11
Frame=0 idx=006225 GeodesicLength=0.0 rxn_smarts="[O:1]=[C:2]1[C:3]([H:7])([H:8])[C:4]([H:9])=[C:5]([H:10])[N:6]1[H:11]>>[O-:1][C:2]1=[C:3]([H:7])[C:4]([H:8])([H:9])[C:5]([H:10])=[N+:6]1[H:11]"
O       -1.24663723       2.17113153      -0.18361375
C       -0.66615932       1.09566156      -0.16034491
C       -1.01851093      -0.23189067      -0.51462752
C        0.13751741      -1.13040278      -0.18605049
C        1.15580741      -0.29195676       0.27558996
N        0.67911336       0.95648610       0.30817092
H       -1.96622461      -0.56455975      -0.90064235
H       -0.68085295      -1.08308887       0.66559074
H        0.27874636      -2.13241803      -0.55997766
H        2.16202595      -0.54268166       0.56919400
H        1.16517460       1.75371935       0.68671111
11
Frame=1 idx=006225 GeodesicLength=0.05261352163886141 rxn_smarts="[O:1]=[C:2]1[C:3]([H:7])([H:8])[C:4]([H:9])=[C:5]([H:10])[N:6]1[H:11]>>[O-:1][C:2]1=[C:3]([H:7])[C:4]([H:8])([H:9])[C:5]([H:10])=[N+:6]1[H:11]"
O       -1.25097116       2.16828399      -0.17149331
C       -0.66649466       1.09578188      -0.15932473
C       -1.02260137      -0.23570873      -0.50000275
C        0.13599873      -1.13138109      -0.17828371
C        1.15545834      -0.29124052       0.27782182
N        0.68350931       0.95905018       0.30335361
H       -1.95779004      -0.56130419      -0.92095309
H       -0.70015730      -1.09323410       0.67621020
H        0.28582452      -2.12620849      -0.56871319
H        2.16121954      -0.54277143       0.57322797
H        1.17600409       1.75873252       0.66815717
11
Frame=2 idx=006225 GeodesicLength=0.10523428274039703 rxn_smarts="[O:1]=[C:2]1[C:3]([H:7])([H:8])[C:4]([H:9])=[C:5]([H:10])[N:6]1[H:11]>>[O-:1][C:2]1=[C:3]([H:7])[C:4]([H:8])([H:9])[C:5]([H:10])=[N+:6]1[H:11]"
O       -1.25525604       2.16534392      -0.15907030
C       -0.66707676       1.09576914      -0.15794141
C       -1.02686459      -0.23957050      -0.48513956
C        0.13444699      -1.13235829      -0.17047880
C        1.15515295      -0.29045240       0.27974749
N        0.68792608       0.96162033       0.29804879
H       -1.94806753      -0.55778060      -0.94123993
H       -0.71986654      -1.10365910       0.68673955
H        0.29265887      -2.11967261      -0.57735918
H        2.16025526      -0.54282031       0.57760819
H        1.18669132       1.76358043       0.64908517
11
Frame=3 idx=006225 GeodesicLength=0.15780918388984133 rxn_smarts="[O:1]=[C:2]1[C:3]([H:7])([H:8])[C:4]([H:9])=[C:5]([H:10])[N:6]1[H:11]>>[O-:1][C:2]1=[C:3]([H:7])[C:4]([H:8])([H:9])[C:5]([H:10])=[N+:6]1[H:11]"
O       -1.25922928       2.16241694      -0.14710481
C       -0.66779704       1.09564364      -0.15647847
C       -1.03123594      -0.24348201      -0.47016469
C        0.13289870      -1.13332531      -0.16269020
C        1.15500443      -0.28954272       0.28102083
N        0.69249211       0.96424481       0.29185939
H       -1.93732585      -0.55406536      -0.96078715
H       -0.73986571      -1.11418644       0.69718282
H        0.29915328      -2.11291580      -0.58573523
H        2.15928682      -0.54273064       0.58183336
H        1.19661847       1.76794288       0.63106415
11
Frame=4 idx=006225 GeodesicLength=0.2103625287074147 rxn_smarts="[O:1]=[C:2]1[C:3]([H:7])([H:8])[C:4]([H:9])=[C:5]([H:10])[N:6]1[H:11]>>[O-:1][C:2]1=[C:3]([H:7])[C:4]([H:8])([H:9])[C:5]([H:10])=[N+:6]1[H:11]"
O       -1.26293779       2.15950183      -0.13548421
C       -0.66865980       1.09540230      -0.15487224
C       -1.03561007      -0.24741470      -0.45529908
C        0.13140261      -1.13428085      -0.15498158
C        1.15499001      -0.28853673       0.28178347
N        0.69716564       0.96689685       0.28491071
H       -1.92571817      -0.55019755      -0.97936314
H       -0.76027370      -1.12484649       0.70732976
H        0.30539436      -2.10596157      -0.59389708
H        2.15828403      -0.54252001       0.58609864
H        1.20596289       1.77195694       0.61377475
11
Frame=5 idx=006225 GeodesicLength=0.26292201340143845 rxn_smarts="[O:1]=[C:2]1[C:3]([H:7])([H:8])[C:4]([H:9])=[C:5]([H:10])[N:6]1[H:11]>>[O-:1][C:2]1=[C:3]([H:7])[C:4]([H:8])([H:9])[C:5]([H:10])=[N+:6]1[H:11]"
O       -1.26645176       2.15656135      -0.12395297
C       -0.66966053       1.09504115      -0.15303853
C       -1.03988544      -0.25134755      -0.44073728
C        0.13000349      -1.13521715      -0.14740498
C        1.15507938      -0.28744958       0.28219536
N        0.70190784       0.96955040       0.27734313
H       -1.91338594      -0.54618474      -0.99684511
H       -0.78121634      -1.13571215       0.71696729
H        0.31148328      -2.09880272      -0.60190102
H        2.15716842      -0.54219611       0.59070260
H        1.21495760       1.77575711       0.59667150
11
Frame=6 idx=006225 GeodesicLength=0.31545603003210687 rxn_smarts="[O:1]=[C:2]1[C:3]([H:7])([H:8])[C:4]([H:9])=[C:5]([H:10])[N:6]1[H:11]>>[O-:1][C:2]1=[C:3]([H:7])[C:4]([H:8])([H:9])[C:5]([H:10])=[N+:6]1[H:11]"
O       -1.26972068       2.15362132      -0.11264886
C       -0.67074509       1.09457674      -0.15105042
C       -1.04398345      -0.25527118      -0.42658730
C        0.12873804      -1.13613290      -0.13996865
C        1.15530066      -0.28627360       0.28223297
N        0.70674056       0.97220901       0.26911969
H       -1.90056824      -0.54208749      -1.01302398
H       -0.80271840      -1.14674534       0.72599984
H        0.31743686      -2.09149289      -0.60967932
H        2.15599303      -0.54171862       0.59553429
H        1.22352671       1.77931496       0.58007174
11
Frame=7 idx=006225 GeodesicLength=0.36801953859885583 rxn_smarts="[O:1]=[C:2]1[C:3]([H:7])([H:8])[C:4]([H:9])=[C:5]([H:10])[N:6]1[H:11]>>[O-:1][C:2]1=[C:3]([H:7])[C:4]([H:8])([H:9])[C:5]([H:10])=[N+:6]1[H:11]"
O       -1.27276341       2.15067065      -0.10146846
C       -0.67188319       1.09401845      -0.14889436
C       -1.04785854      -0.25917962      -0.41292263
C        0.12762667      -1.13702849      -0.13267060
C        1.15565715      -0.28501005       0.28195568
N        0.71165718       0.97486381       0.26031281
H       -1.88739454      -0.53793768      -1.02790451
H       -0.82486445      -1.15795275       0.73433851
H        0.32330211      -2.08406271      -0.61720089
H        2.15476767      -0.54106549       0.60062511
H        1.23175336       1.78268389       0.56382932
11
Frame=8 idx=006225 GeodesicLength=0.4206396568931352 rxn_smarts="[O:1]=[C:2]1[C:3]([H:7])([H:8])[C:4]([H:9])=[C:5]([H:10])[N:6]1[H:11]>>[O-:1][C:2]1=[C:3]([H:7])[C:4]([H:8])([H:9])[C:5]([H:10])=[N+:6]1[H:11]"
O       -1.27562270       2.14769025      -0.09022162
C       -0.67306909       1.09337390      -0.14650564
C       -1.05147985      -0.26307444      -0.39978099
C        0.12669130      -1.13790346      -0.12551302
C        1.15615110      -0.28365538       0.28144293
N        0.71663917       0.97751034       0.25103773
H       -1.87399188      -0.53374442      -1.04156747
H       -0.84772289      -1.16941354       0.74187190
H        0.32912463      -2.07652102      -0.62448089
H        2.15346240      -0.54021813       0.60615591
H        1.23981781       1.78595590       0.54756116
11
Frame=9 idx=006225 GeodesicLength=0.4730714227515252 rxn_smarts="[O:1]=[C:2]1[C:3]([H:7])([H:8])[C:4]([H:9])=[C:5]([H:10])[N:6]1[H:11]>>[O-:1][C:2]1=[C:3]([H:7])[C:4]([H:8])([H:9])[C:5]([H:10])=[N+:6]1[H:11]"
O       -1.27831643       2.14466029      -0.07877048
C       -0.67428286       1.09264686      -0.14386765
C       -1.05476711      -0.26692360      -0.38717660
C        0.12598632      -1.13873791      -0.11851382
C        1.15678112      -0.28221914       0.28069087
N        0.72165207       0.98012012       0.24130994
H       -1.86051792      -0.52952536      -1.05394400
H       -0.87125668      -1.18111229       0.74842021
H        0.33495490      -2.06887801      -0.63153419
H        2.15197658      -0.53918931       0.61235983
H        1.24779001       1.78915837       0.53102589
11
Frame=10 idx=006225 GeodesicLength=0.5255433054576687 rxn_smarts="[O:1]=[C:2]1[C:3]([H:7])([H:8])[C:4]([H:9])=[C:5]([H:10])[N:6]1[H:11]>>[O-:1][C:2]1=[C:3]([H:7])[C:4]([H:8])([H:9])[C:5]([H:10])=[N+:6]1[H:11]"
O       -1.28091061       2.14154344      -0.06683258
C       -0.67554119       1.09183942      -0.14085159
C       -1.05778113      -0.27076057      -0.37505147
C        0.12546232      -1.13955486      -0.11157599
C        1.15750601      -0.28071020       0.27986182
N        0.72666336       0.98268778       0.23130278
H       -1.84672583      -0.52517621      -1.06544759
H       -0.89564169      -1.19313373       0.75402274
H        0.34083131      -2.06113906      -0.63824608
H        2.15034493      -0.53794144       0.61908757
H        1.25579252       1.79234543       0.51373040
11
Frame=11 idx=006225 GeodesicLength=0.5780578811018493 rxn_smarts="[O:1]=[C:2]1[C:3]([H:7])([H:8])[C:4]([H:9])=[C:5]([H:10])[N:6]1[H:11]>>[O-:1][C:2]1=[C:3]([H:7])[C:4]([H:8])([H:9])[C:5]([H:10])=[N+:6]1[H:11]"
O       -1.28338599       2.13833700      -0.05434020
C       -0.67682058       1.09095896      -0.13746199
C       -1.06051282      -0.27459157      -0.36339832
C        0.12514369      -1.14034910      -0.10470805
C        1.15837031      -0.27910844       0.27892084
N        0.73170117       0.98522623       0.22097765
H       -1.83281296      -0.52075597      -1.07607443
H       -0.92088600      -1.20550917       0.75858352
H        0.34674192      -2.05334234      -0.64463918
H        2.14856387      -0.53642567       0.62650992
H        1.26389739       1.79556008       0.49563024
11
Frame=12 idx=006225 GeodesicLength=0.6305823698162031 rxn_smarts="[O:1]=[C:2]1[C:3]([H:7])([H:8])[C:4]([H:9])=[C:5]([H:10])[N:6]1[H:11]>>[O-:1][C:2]1=[C:3]([H:7])[C:4]([H:8])([H:9])[C:5]([H:10])=[N+:6]1[H:11]"
O       -1.28568720       2.13506437      -0.04145265
C       -0.67808281       1.09001538      -0.13376193
C       -1.06296930      -0.27842019      -0.35214990
C        0.12502662      -1.14112018      -0.09785025
C        1.15940151      -0.27740548       0.27778263
N        0.73676718       0.98773533       0.21031278
H       -1.81879185      -0.51628178      -1.08584883
H       -0.94698705      -1.21817582       0.76211916
H        0.35264862      -2.04555084      -0.65058898
H        2.14671403      -0.53459921       0.63433228
H        1.27196025       1.79873841       0.47710569
11
Frame=13 idx=006225 GeodesicLength=0.6831287858222033 rxn_smarts="[O:1]=[C:2]1[C:3]([H:7])([H:8])[C:4]([H:9])=[C:5]([H:10])[N:6]1[H:11]>>[O-:1][C:2]1=[C:3]([H:7])[C:4]([H:8])([H:9])[C:5]([H:10])=[N+:6]1[H:11]"
O       -1.28780184       2.13172597      -0.02815454
C       -0.67931488       1.08901285      -0.12973961
C       -1.06516264      -0.28225607      -0.34125703
C        0.12511112      -1.14186886      -0.09096410
C        1.16061609      -0.27559509       0.27643297
N        0.74185310       0.99021748       0.19934472
H       -1.80467064      -0.51174873      -1.09484586
H       -0.97397651      -1.23114855       0.76458755
H        0.35853974      -2.03779976      -0.65604182
H        2.14482219      -0.53242920       0.64249328
H        1.27998427       1.80188996       0.45814446
11
Frame=14 idx=006225 GeodesicLength=0.7356282935912863 rxn_smarts="[O:1]=[C:2]1[C:3]([H:7])([H:8])[C:4]([H:9])=[C:5]([H:10])[N:6]1[H:11]>>[O-:1][C:2]1=[C:3]([H:7])[C:4]([H:8])([H:9])[C:5]([H:10])=[N+:6]1[H:11]"
O       -1.28971003       2.12832597      -0.01444903
C       -0.68049995       1.08795407      -0.12538826
C       -1.06707908      -0.28609453      -0.33067321
C        0.12540000      -1.14259175      -0.08399476
C        1.16200922      -0.27368003       0.27487831
N        0.74693205       0.99266208       0.18810960
H       -1.79042722      -0.50715441      -1.10310999
H       -1.00188208      -1.24440495       0.76591697
H        0.36440607      -2.03013053      -0.66092198
H        2.14292259      -0.52988730       0.65086087
H        1.28792843       1.80500137       0.43877148
11
Frame=15 idx=006225 GeodesicLength=0.7881192531621591 rxn_smarts="[O:1]=[C:2]1[C:3]([H:7])([H:8])[C:4]([H:9])=[C:5]([H:10])[N:6]1[H:11]>>[O-:1][C:2]1=[C:3]([H:7])[C:4]([H:8])([H:9])[C:5]([H:10])=[N+:6]1[H:11]"
O       -1.29144136       2.12482635      -0.00015325
C       -0.68164392       1.08683339      -0.12065476
C       -1.06874265      -0.28994705      -0.32035635
C        0.12588924      -1.14328570      -0.07690118
C        1.16358663      -0.27165966       0.27311508
N        0.75199514       0.99506558       0.17662086
H       -1.77597196      -0.50245172      -1.11076782
H       -1.03076025      -1.25795958       0.76603769
H        0.37026479      -2.02256088      -0.66517360
H        2.14097289      -0.52695712       0.65949651
H        1.29585146       1.80809640       0.41873682
11
Frame=16 idx=006225 GeodesicLength=0.8406351794047131 rxn_smarts="[O:1]=[C:2]1[C:3]([H:7])([H:8])[C:4]([H:9])=[C:5]([H:10])[N:6]1[H:11]>>[O-:1][C:2]1=[C:3]([H:7])[C:4]([H:8])([H:9])[C:5]([H:10])=[N+:6]1[H:11]"
O       -1.29294574       2.12125948       0.01455527
C       -0.68271607       1.08566132      -0.11559742
C       -1.07016740      -0.29382473      -0.31026313
C        0.12656783      -1.14395438      -0.06961113
C        1.16537917      -0.26952002       0.27109953
N        0.75704415       0.99744490       0.16491763
H       -1.76134786      -0.49769250      -1.11783600
H       -1.06065321      -1.27177588       0.76493199
H        0.37605378      -2.01517190      -0.66868731
H        2.13912472      -0.52358882       0.66808181
H        1.30366063       1.81116252       0.39840876
