14
Frame=0 idx=003797 GeodesicLength=0.0 rxn_smarts="[C:1]([C@@:2]1([H:10])[C@@:3]2([H:11])[C:4]([H:12])([H:13])[O:5][C@@:6]12[H:14])([H:7])([H:8])[H:9]>>[C:1]([C@@:2]1([H:10])[C:4]([H:12])([H:13])[O:5][C@@:6]1([C:3][H:11])[H:14])([H:7])([H:8])[H:9]"
C        1.46222211      -0.30344477       0.60472407
C        0.46464142       0.29067287      -0.35460709
C       -1.37379224       0.59654535      -1.17431544
C       -0.99065972      -0.95699318       0.07675039
O       -1.25010550       0.08971400       1.00914802
C       -0.72806697       1.06913323       0.09484648
H        1.02647963      -0.48107129       1.58615713
H        2.27911817       0.41519284       0.71861181
H        1.89007027      -1.23244134       0.21997719
H        0.94419608       0.60290380      -1.27554562
H       -0.83613453       0.95514935      -2.06441746
H       -0.29640700      -1.71403899       0.44935864
H       -1.87117242      -1.43129829      -0.33746147
H       -0.72038926       2.09997646       0.44677341
14
Frame=1 idx=003797 GeodesicLength=0.05581628207446222 rxn_smarts="[C:1]([C@@:2]1([H:10])[C@@:3]2([H:11])[C:4]([H:12])([H:13])[O:5][C@@:6]12[H:14])([H:7])([H:8])[H:9]>>[C:1]([C@@:2]1([H:10])[C:4]([H:12])([H:13])[O:5][C@@:6]1([C:3][H:11])[H:14])([H:7])([H:8])[H:9]"
C        1.46644258      -0.29747334       0.60285776
C        0.46042105       0.27948333      -0.35817388
C       -1.35150307       0.59122144      -1.17821950
C       -0.99660390      -0.95995247       0.07655271
O       -1.26280963       0.08753620       1.00717382
C       -0.72957822       1.06463609       0.09818422
H        1.03387063      -0.47721014       1.58543200
H        2.27584259       0.42988270       0.71349541
H        1.90300805      -1.22386743       0.22161194
H        0.94121380       0.58350696      -1.28195755
H       -0.83557959       0.98707668      -2.06419083
H       -0.31433093      -1.72212243       0.46126467
H       -1.87700544      -1.43681500      -0.33663027
H       -0.71338792       2.09409741       0.45259950
14
Frame=2 idx=003797 GeodesicLength=0.11155590678069402 rxn_smarts="[C:1]([C@@:2]1([H:10])[C@@:3]2([H:11])[C:4]([H:12])([H:13])[O:5][C@@:6]12[H:14])([H:7])([H:8])[H:9]>>[C:1]([C@@:2]1([H:10])[C:4]([H:12])([H:13])[O:5][C@@:6]1([C:3][H:11])[H:14])([H:7])([H:8])[H:9]"
C        1.47078659      -0.29136598       0.60099781
C        0.45645118       0.26828561      -0.36150369
C       -1.32921548       0.58617715      -1.18186503
C       -1.00257951      -0.96262958       0.07605847
O       -1.27557323       0.08554990       1.00473365
C       -0.73088631       1.06009048       0.10134523
H        1.04134222      -0.47354925       1.58449968
H        2.27241785       0.44470451       0.70863349
H        1.91630237      -1.21474579       0.22306352
H        0.93832919       0.56388612      -1.28807227
H       -0.83569938       1.01734974      -2.06285714
H       -0.33275983      -1.72986457       0.47283973
H       -1.88286926      -1.44180118      -0.33634032
H       -0.70604640       2.08791284       0.45846685
14
Frame=3 idx=003797 GeodesicLength=0.16731579557584925 rxn_smarts="[C:1]([C@@:2]1([H:10])[C@@:3]2([H:11])[C:4]([H:12])([H:13])[O:5][C@@:6]12[H:14])([H:7])([H:8])[H:9]>>[C:1]([C@@:2]1([H:10])[C:4]([H:12])([H:13])[O:5][C@@:6]1([C:3][H:11])[H:14])([H:7])([H:8])[H:9]"
C        1.47526474      -0.28515911       0.59913373
C        0.45275994       0.25713989      -0.36467242
C       -1.30693251       0.58151614      -1.18529448
C       -1.00862037      -0.96519795       0.07535095
O       -1.28850041       0.08376488       1.00207977
C       -0.73203232       1.05569621       0.10442067
H        1.04884223      -0.47018922       1.58352456
H        2.26885969       0.45975374       0.70398586
H        1.93000947      -1.20525386       0.22421483
H        0.93567657       0.54424394      -1.29409490
H       -0.83632191       1.04598229      -2.06084156
H       -0.35174502      -1.73757149       0.48416072
H       -1.88880613      -1.44652330      -0.33648797
H       -0.69845397       2.08179784       0.46452025
14
Frame=4 idx=003797 GeodesicLength=0.22303449676994844 rxn_smarts="[C:1]([C@@:2]1([H:10])[C@@:3]2([H:11])[C:4]([H:12])([H:13])[O:5][C@@:6]12[H:14])([H:7])([H:8])[H:9]>>[C:1]([C@@:2]1([H:10])[C:4]([H:12])([H:13])[O:5][C@@:6]1([C:3][H:11])[H:14])([H:7])([H:8])[H:9]"
C        1.47987606      -0.27884255       0.59726946
C        0.44931255       0.24600501      -0.36761179
C       -1.28469726       0.57720571      -1.18842176
C       -1.01469763      -0.96749892       0.07437067
O       -1.30149580       0.08219536       0.99903504
C       -0.73298837       1.05132757       0.10737804
H        1.05645276      -0.46711470       1.58236556
H        2.26514653       0.47491129       0.69959348
H        1.94409279      -1.19524236       0.22512274
H        0.93319767       0.52457598      -1.29981160
H       -0.83754577       1.07273902      -2.05800629
H       -0.37127703      -1.74500536       0.49514560
H       -1.89479315      -1.45073432      -0.33711990
H       -0.69058335       2.07547826       0.47069075
14
Frame=5 idx=003797 GeodesicLength=0.278770980566103 rxn_smarts="[C:1]([C@@:2]1([H:10])[C@@:3]2([H:11])[C:4]([H:12])([H:13])[O:5][C@@:6]12[H:14])([H:7])([H:8])[H:9]>>[C:1]([C@@:2]1([H:10])[C:4]([H:12])([H:13])[O:5][C@@:6]1([C:3][H:11])[H:14])([H:7])([H:8])[H:9]"
C        1.48463019      -0.27241597       0.59539491
C        0.44611902       0.23488226      -0.37036189
C       -1.26251078       0.57324044      -1.19126277
C       -1.02084769      -0.96964129       0.07317120
O       -1.31461081       0.08082753       0.99573349
C       -0.73376256       1.04705470       0.11027600
H        1.06415755      -0.46435125       1.58111581
H        2.26127942       0.49028200       0.69542426
H        1.95859022      -1.18477392       0.22571907
H        0.93094395       0.50490113      -1.30531216
H       -0.83923606       1.09780459      -2.05463940
H       -0.39141688      -1.75232231       0.50584446
H       -1.90088832      -1.45460196      -0.33815992
H       -0.68244724       2.06911405       0.47705692
14
Frame=6 idx=003797 GeodesicLength=0.33454275503919906 rxn_smarts="[C:1]([C@@:2]1([H:10])[C@@:3]2([H:11])[C:4]([H:12])([H:13])[O:5][C@@:6]12[H:14])([H:7])([H:8])[H:9]>>[C:1]([C@@:2]1([H:10])[C:4]([H:12])([H:13])[O:5][C@@:6]1([C:3][H:11])[H:14])([H:7])([H:8])[H:9]"
C        1.48953058      -0.26587824       0.59351688
C        0.44316691       0.22374118      -0.37291459
C       -1.24037682       0.56959221      -1.19379746
C       -1.02706075      -0.97160377       0.07174687
O       -1.32782757       0.07966924       0.99214640
C       -0.73434641       1.04285137       0.11312015
H        1.07199013      -0.46190227       1.57974671
H        2.25723524       0.50584877       0.69149149
H        1.97351530      -1.17380417       0.22603073
H        0.92890144       0.48518795      -1.31057743
H       -0.84142253       1.12121515      -2.05077966
H       -0.41218132      -1.75947852       0.51625630
H       -1.90708674      -1.45807838      -0.33960422
H       -0.67403745       2.06263949       0.48361782
14
Frame=7 idx=003797 GeodesicLength=0.3903626109626027 rxn_smarts="[C:1]([C@@:2]1([H:10])[C@@:3]2([H:11])[C:4]([H:12])([H:13])[O:5][C@@:6]12[H:14])([H:7])([H:8])[H:9]>>[C:1]([C@@:2]1([H:10])[C:4]([H:12])([H:13])[O:5][C@@:6]1([C:3][H:11])[H:14])([H:7])([H:8])[H:9]"
C        1.49458250      -0.25921666       0.59162551
C        0.44045480       0.21257001      -0.37526407
C       -1.21830128       0.56624028      -1.19601038
C       -1.03335645      -0.97339624       0.07011426
O       -1.34116149       0.07871302       0.98827605
C       -0.73473948       1.03871036       0.11592898
H        1.07997806      -0.45977653       1.57825133
H        2.25299469       0.52163196       0.68777503
H        1.98888098      -1.16228864       0.22603117
H        0.92709258       0.46540887      -1.31558873
H       -0.84404148       1.14301887      -2.04649067
H       -0.43360885      -1.76649326       0.52639032
H       -1.91342089      -1.46117680      -0.34142716
H       -0.66535369       2.05605476       0.49038835
14
Frame=8 idx=003797 GeodesicLength=0.4462054797001709 rxn_smarts="[C:1]([C@@:2]1([H:10])[C@@:3]2([H:11])[C:4]([H:12])([H:13])[O:5][C@@:6]12[H:14])([H:7])([H:8])[H:9]>>[C:1]([C@@:2]1([H:10])[C:4]([H:12])([H:13])[O:5][C@@:6]1([C:3][H:11])[H:14])([H:7])([H:8])[H:9]"
C        1.49979227      -0.25242704       0.58971905
C        0.43793133       0.20128345      -0.37738964
C       -1.19628315       0.56311521      -1.19793990
C       -1.03972803      -0.97500755       0.06828706
O       -1.35455357       0.07796847       0.98405850
C       -0.73492895       1.03453296       0.11865383
H        1.08814358      -0.45796936       1.57664280
H        2.24852077       0.53769238       0.68425167
H        2.00474817      -1.15020735       0.22572691
H        0.92541662       0.44540195      -1.32028687
H       -0.84705703       1.16351860      -2.04168377
H       -0.45572667      -1.77324964       0.53628791
H       -1.91987315      -1.46388343      -0.34361161
H       -0.65640222       2.04923134       0.49728405
14
Frame=9 idx=003797 GeodesicLength=0.5021073833352946 rxn_smarts="[C:1]([C@@:2]1([H:10])[C@@:3]2([H:11])[C:4]([H:12])([H:13])[O:5][C@@:6]12[H:14])([H:7])([H:8])[H:9]>>[C:1]([C@@:2]1([H:10])[C:4]([H:12])([H:13])[O:5][C@@:6]1([C:3][H:11])[H:14])([H:7])([H:8])[H:9]"
C        1.50516902      -0.24552757       0.58780233
C        0.43563473       0.18993244      -0.37932884
C       -1.17430937       0.56027106      -1.19958785
C       -1.04618863      -0.97651794       0.06630539
O       -1.36808175       0.07744066       0.97962379
C       -0.73494296       1.03045155       0.12136793
H        1.09649288      -0.45653915       1.57498462
H        2.24381052       0.55402833       0.68092417
H        2.02113517      -1.13761420       0.22507329
H        0.92398377       0.42527943      -1.32480326
H       -0.85043771       1.18263653      -2.03661025
H       -0.47855626      -1.77993971       0.54595859
H       -1.92647324      -1.46628371      -0.34611839
H       -0.64723616       2.04238227       0.50440849
14
Frame=10 idx=003797 GeodesicLength=0.5580994068476155 rxn_smarts="[C:1]([C@@:2]1([H:10])[C@@:3]2([H:11])[C:4]([H:12])([H:13])[O:5][C@@:6]12[H:14])([H:7])([H:8])[H:9]>>[C:1]([C@@:2]1([H:10])[C:4]([H:12])([H:13])[O:5][C@@:6]1([C:3][H:11])[H:14])([H:7])([H:8])[H:9]"
C        1.51069771      -0.23845305       0.58584922
C        0.43352554       0.17845232      -0.38102964
C       -1.15240868       0.55756380      -1.20080724
C       -1.05276026      -0.97778812       0.06411775
O       -1.38166789       0.07712163       0.97486988
C       -0.73474395       1.02632054       0.12409114
H        1.10514381      -0.45544406       1.57298436
H        2.23883637       0.57052501       0.67787189
H        2.03792914      -1.12416222       0.22412790
H        0.92270322       0.40501189      -1.32896274
H       -0.85406997       1.20017318      -2.03120699
H       -0.50214098      -1.78633317       0.55531682
H       -1.93327602      -1.46815322      -0.34897558
H       -0.63776803       2.03516546       0.51175325
14
Frame=11 idx=003797 GeodesicLength=0.6141170004050768 rxn_smarts="[C:1]([C@@:2]1([H:10])[C@@:3]2([H:11])[C:4]([H:12])([H:13])[O:5][C@@:6]12[H:14])([H:7])([H:8])[H:9]>>[C:1]([C@@:2]1([H:10])[C:4]([H:12])([H:13])[O:5][C@@:6]1([C:3][H:11])[H:14])([H:7])([H:8])[H:9]"
C        1.51640506      -0.23127699       0.58389168
C        0.43163711       0.16688582      -0.38250717
C       -1.13051720       0.55511287      -1.20175484
C       -1.05940733      -0.97894371       0.06178856
O       -1.39536023       0.07704134       0.96987423
C       -0.73435335       1.02226204       0.12681440
H        1.11403375      -0.45471851       1.57094911
H        2.23363550       0.58725432       0.67500312
H        2.05522216      -1.11019338       0.22283555
H        0.92166002       0.38463162      -1.33287218
H       -0.85815706       1.21634798      -2.02559039
H       -0.52646620      -1.79260934       0.56442329
H       -1.94020786      -1.46969103      -0.35216970
H       -0.62812436       2.02789696       0.51931434
14
Frame=12 idx=003797 GeodesicLength=0.670177103348669 rxn_smarts="[C:1]([C@@:2]1([H:10])[C@@:3]2([H:11])[C:4]([H:12])([H:13])[O:5][C@@:6]12[H:14])([H:7])([H:8])[H:9]>>[C:1]([C@@:2]1([H:10])[C:4]([H:12])([H:13])[O:5][C@@:6]1([C:3][H:11])[H:14])([H:7])([H:8])[H:9]"
C        1.52228900      -0.22397118       0.58191292
C        0.42995738       0.15521039      -0.38372201
C       -1.10862952       0.55283415      -1.20236168
C       -1.06614081      -0.97993692       0.05931071
O       -1.40912822       0.07719066       0.96458330
C       -0.73375673       1.01820630       0.12954735
H        1.12320715      -0.45433476       1.56879042
H        2.22821703       0.60418450       0.67232158
H        2.07296227      -1.09559446       0.22118976
H        0.92082478       0.36412336      -1.33642300
H       -0.86265274       1.23112160      -2.01975080
H       -0.55156213      -1.79866299       0.57322960
H       -1.94729436      -1.47081272      -0.35570140
H       -0.61829310       2.02044208       0.52707325
14
Frame=13 idx=003797 GeodesicLength=0.7262692044929875 rxn_smarts="[C:1]([C@@:2]1([H:10])[C@@:3]2([H:11])[C:4]([H:12])([H:13])[O:5][C@@:6]12[H:14])([H:7])([H:8])[H:9]>>[C:1]([C@@:2]1([H:10])[C:4]([H:12])([H:13])[O:5][C@@:6]1([C:3][H:11])[H:14])([H:7])([H:8])[H:9]"
C        1.52834984      -0.21654116       0.57991500
C        0.42848246       0.14342046      -0.38467328
C       -1.08673523       0.55070711      -1.20262999
C       -1.07295670      -0.98077778       0.05670003
O       -1.42296681       0.07758201       0.95902479
C       -0.73296111       1.01416557       0.13230713
H        1.13269984      -0.45429978       1.56649762
H        2.22258003       0.62128013       0.66983579
H        2.09112393      -1.08034996       0.21919465
H        0.92019718       0.34351055      -1.33963132
H       -0.86754235       1.24450973      -2.01374390
H       -0.57743316      -1.80450532       0.58173041
H       -1.95453132      -1.47152183      -0.35956334
H       -0.60830659       2.01282028       0.53503641
14
Frame=14 idx=003797 GeodesicLength=0.7823807597798222 rxn_smarts="[C:1]([C@@:2]1([H:10])[C@@:3]2([H:11])[C:4]([H:12])([H:13])[O:5][C@@:6]12[H:14])([H:7])([H:8])[H:9]>>[C:1]([C@@:2]1([H:10])[C:4]([H:12])([H:13])[O:5][C@@:6]1([C:3][H:11])[H:14])([H:7])([H:8])[H:9]"
C        1.53458996      -0.20898743       0.57789607
C        0.42721028       0.13151304      -0.38534618
C       -1.06482007       0.54870932      -1.20255367
C       -1.07985140      -0.98146819       0.05396796
O       -1.43686890       0.07821805       0.95320016
C       -0.73197007       1.01013295       0.13510499
H        1.14254152      -0.45459847       1.56407051
H        2.21673790       0.63851398       0.66753242
H        2.10967521      -1.06445691       0.21684990
H        0.91977623       0.32280029      -1.34247811
H       -0.87282583       1.25652676      -2.00759429
H       -0.60408460      -1.81012270       0.58990725
H       -1.96191411      -1.47181027      -0.36375622
H       -0.59819612       2.00502960       0.54319922
14
Frame=15 idx=003797 GeodesicLength=0.8384933313936569 rxn_smarts="[C:1]([C@@:2]1([H:10])[C@@:3]2([H:11])[C:4]([H:12])([H:13])[O:5][C@@:6]12[H:14])([H:7])([H:8])[H:9]>>[C:1]([C@@:2]1([H:10])[C:4]([H:12])([H:13])[O:5][C@@:6]1([C:3][H:11])[H:14])([H:7])([H:8])[H:9]"
C        1.54101284      -0.20131363       0.57585670
C        0.42614057       0.11948814      -0.38572791
C       -1.04286975       0.54682646      -1.20213213
C       -1.08681854      -0.98201231       0.05112515
O       -1.45083032       0.07910224       0.94711463
C       -0.73079053       1.00610746       0.13795334
H        1.15276115      -0.45520876       1.56151736
H        2.21071158       0.65585361       0.66539464
H        2.12858057      -1.04792843       0.21416298
H        0.91956385       0.30200377      -1.34495350
H       -0.87851710       1.26718384      -2.00132575
H       -0.63151462      -1.81550706       0.59774009
H       -1.96943247      -1.47167317      -0.36828600
H       -0.58799723       1.99707786       0.55156039
14
Frame=16 idx=003797 GeodesicLength=0.8946219594507958 rxn_smarts="[C:1]([C@@:2]1([H:10])[C@@:3]2([H:11])[C:4]([H:12])([H:13])[O:5][C@@:6]12[H:14])([H:7])([H:8])[H:9]>>[C:1]([C@@:2]1([H:10])[C:4]([H:12])([H:13])[O:5][C@@:6]1([C:3][H:11])[H:14])([H:7])([H:8])[H:9]"
C        1.54762231      -0.19350945       0.57379690
C        0.42526887       0.10732628      -0.38580270
C       -1.02086084       0.54504164      -1.20135980
C       -1.09386251      -0.98241187       0.04817672
O       -1.46484859       0.08024168       0.94076027
C       -0.72941507       1.00207859       0.14086496
H        1.16339159      -0.45613104       1.55883245
H        2.20448227       0.67331184       0.66342257
H        2.14784647      -1.03072224       0.21112493
H        0.91954541       0.28105681      -1.34705399
H       -0.88462535       1.27649894      -1.99494032
H       -0.65975237      -1.82063934       0.60521760
H       -1.97708729      -1.47109309      -0.37317422
H       -0.57770490       1.98895125       0.56013462
