13
Frame=0 idx=000710 GeodesicLength=0.0 rxn_smarts="[C:1]([N:2]1[C:3]([H:10])([H:11])[C:4](=[O:5])[C:6]1([H:12])[H:13])([H:7])([H:8])[H:9]>>[C:1]1([H:7])([H:9])[N:2]([H:8])[C:3]([H:10])([H:11])[C:4](=[O:5])[C:6]1([H:12])[H:13]"
C       -1.80568062      -0.03601417      -0.45393157
N       -0.46007306      -0.13828567       0.30088286
C        0.37361198       1.07193584       0.41373602
C        1.59500882       0.17337949       0.22819727
O        2.76933949       0.34369933       0.26881297
C        0.68551688      -1.02297593      -0.03731210
H       -2.03027762      -1.04600665      -0.79450161
H       -1.40669469      -0.16520672       0.90604038
H       -1.70595802       0.66599706      -1.28545034
H        0.22755330       1.75967877      -0.42527320
H        0.29244586       1.61217392       1.35681846
H        0.80319137      -1.89070362       0.61017248
H        0.66201637      -1.32767166      -1.08819165
13
Frame=1 idx=000710 GeodesicLength=0.13741814465687582 rxn_smarts="[C:1]([N:2]1[C:3]([H:10])([H:11])[C:4](=[O:5])[C:6]1([H:12])[H:13])([H:7])([H:8])[H:9]>>[C:1]1([H:7])([H:9])[N:2]([H:8])[C:3]([H:10])([H:11])[C:4](=[O:5])[C:6]1([H:12])[H:13]"
C       -1.79167096      -0.07822636      -0.45390935
N       -0.46558563      -0.08942142       0.30493441
C        0.38970129       1.09647793       0.41965374
C        1.59240959       0.17045397       0.25070386
O        2.76872602       0.33031888       0.29241334
C        0.67017857      -1.00655078      -0.05469726
H       -2.04040880      -1.10024342      -0.73159675
H       -1.42075840      -0.11818273       0.92043492
H       -1.71629010       0.60059547      -1.30660907
H        0.25878741       1.78488854      -0.42106829
H        0.30893179       1.63204591       1.36562747
H        0.72117241      -1.92761683       0.52412834
H        0.72480681      -1.29453917      -1.11001536
13
Frame=2 idx=000710 GeodesicLength=0.27459862910576416 rxn_smarts="[C:1]([N:2]1[C:3]([H:10])([H:11])[C:4](=[O:5])[C:6]1([H:12])[H:13])([H:7])([H:8])[H:9]>>[C:1]1([H:7])([H:9])[N:2]([H:8])[C:3]([H:10])([H:11])[C:4](=[O:5])[C:6]1([H:12])[H:13]"
C       -1.77681198      -0.12155106      -0.45206448
N       -0.47144000      -0.04019493       0.30351545
C        0.40577041       1.12002679       0.42504969
C        1.58885945       0.16716308       0.27096272
O        2.76696280       0.31685648       0.31702596
C        0.65538448      -0.99084370      -0.07239522
H       -2.04912721      -1.15114055      -0.66738476
H       -1.43485900      -0.07182735       0.93041607
H       -1.73037767       0.53557948      -1.32328901
H        0.29178382       1.81117870      -0.41566121
H        0.32459130       1.64887650       1.37497353
H        0.63812241      -1.95557646       0.43317530
H        0.79114119      -1.26854698      -1.12432404
13
Frame=3 idx=000710 GeodesicLength=0.4115329797711987 rxn_smarts="[C:1]([N:2]1[C:3]([H:10])([H:11])[C:4](=[O:5])[C:6]1([H:12])[H:13])([H:7])([H:8])[H:9]>>[C:1]1([H:7])([H:9])[N:2]([H:8])[C:3]([H:10])([H:11])[C:4](=[O:5])[C:6]1([H:12])[H:13]"
C       -1.76129102      -0.16518255      -0.44837941
N       -0.47772743       0.00936024       0.29588964
C        0.42157959       1.14244485       0.42986878
C        1.58432950       0.16360721       0.28870422
O        2.76399011       0.30339880       0.34265911
C        0.64124504      -0.97613849      -0.09061831
H       -2.05690943      -1.19801796      -0.60215939
H       -1.44862832      -0.02684083       0.93599819
H       -1.74864824       0.47139622      -1.33561136
H        0.32660686       1.83865811      -0.40883577
H        0.33883019       1.66225053       1.38487279
H        0.55652750      -1.97447415       0.33842971
H        0.86009567      -1.25046199      -1.13081821
13
Frame=4 idx=000710 GeodesicLength=0.548057043330507 rxn_smarts="[C:1]([N:2]1[C:3]([H:10])([H:11])[C:4](=[O:5])[C:6]1([H:12])[H:13])([H:7])([H:8])[H:9]>>[C:1]1([H:7])([H:9])[N:2]([H:8])[C:3]([H:10])([H:11])[C:4](=[O:5])[C:6]1([H:12])[H:13]"
C       -1.74525119      -0.20842171      -0.44275460
N       -0.48450695       0.05929658       0.28151740
C        0.43689785       1.16360885       0.43387827
C        1.57865454       0.15966823       0.30435379
O        2.75954444       0.28970742       0.36998808
C        0.62765140      -0.96246896      -0.10985036
H       -2.06406854      -1.24034767      -0.53566163
H       -1.46148768       0.01638683       0.93749586
H       -1.77158787       0.40809881      -1.34353811
H        0.36356979       1.86698346      -0.40082657
H        0.35096101       1.67223489       1.39484238
H        0.47889751      -1.98481012       0.24013276
H        0.93072570      -1.23993660      -1.12957727
13
Frame=5 idx=000710 GeodesicLength=0.6842195779935473 rxn_smarts="[C:1]([N:2]1[C:3]([H:10])([H:11])[C:4](=[O:5])[C:6]1([H:12])[H:13])([H:7])([H:8])[H:9]>>[C:1]1([H:7])([H:9])[N:2]([H:8])[C:3]([H:10])([H:11])[C:4](=[O:5])[C:6]1([H:12])[H:13]"
C       -1.72882013      -0.25046397      -0.43508865
N       -0.49184575       0.10976750       0.25991197
C        0.45142284       1.18352114       0.43690406
C        1.57168119       0.15537602       0.31794416
O        2.75339891       0.27571908       0.39908805
C        0.61454402      -0.94983028      -0.13063526
H       -2.07029228      -1.27760855      -0.46826310
H       -1.47273058       0.05725211       0.93551812
H       -1.79953301       0.34590641      -1.34688166
H        0.40269641       1.89614291      -0.39158249
H        0.36030678       1.67884488       1.40458032
H        0.40693045      -1.98738886       0.13897144
H        1.00224114      -1.23723838      -1.12046696
13
Frame=6 idx=000710 GeodesicLength=0.8199435138710567 rxn_smarts="[C:1]([N:2]1[C:3]([H:10])([H:11])[C:4](=[O:5])[C:6]1([H:12])[H:13])([H:7])([H:8])[H:9]>>[C:1]1([H:7])([H:9])[N:2]([H:8])[C:3]([H:10])([H:11])[C:4](=[O:5])[C:6]1([H:12])[H:13]"
C       -1.71196743      -0.29072568      -0.42514367
N       -0.49974899       0.16093050       0.23076835
C        0.46487403       1.20215830       0.43851337
C        1.56306943       0.15046358       0.33026206
O        2.74501271       0.26085289       0.43129881
C        0.60181923      -0.93793772      -0.15387952
H       -2.07521735      -1.30953510      -0.39908186
H       -1.48138774       0.09560930       0.93092604
H       -1.83273227       0.28435869      -1.34532006
H        0.44434597       1.92560202      -0.38162736
H        0.36609962       1.68265020       1.41317013
H        0.34192306      -1.98317914       0.03380425
H        1.07390974      -1.24124783      -1.10369055
13
Frame=7 idx=000710 GeodesicLength=0.9551024009040041 rxn_smarts="[C:1]([N:2]1[C:3]([H:10])([H:11])[C:4](=[O:5])[C:6]1([H:12])[H:13])([H:7])([H:8])[H:9]>>[C:1]1([H:7])([H:9])[N:2]([H:8])[C:3]([H:10])([H:11])[C:4](=[O:5])[C:6]1([H:12])[H:13]"
C       -1.69445838      -0.32847616      -0.41271468
N       -0.50826197       0.21278672       0.19418299
C        0.47683375       1.21951212       0.43838791
C        1.55250491       0.14494351       0.34138875
O        2.73384995       0.24488030       0.46713730
C        0.58949945      -0.92658575      -0.18032492
H       -2.07761616      -1.33590910      -0.32838309
H       -1.48649289       0.13111828       0.92479378
H       -1.87073801       0.22334119      -1.33829474
H        0.48823758       1.95499675      -0.37110057
H        0.36778292       1.68411498       1.41994199
H        0.28420909      -1.97285373      -0.07594489
H        1.14464977      -1.25186912      -1.07906983
13
Frame=8 idx=000710 GeodesicLength=1.0894796959103756 rxn_smarts="[C:1]([N:2]1[C:3]([H:10])([H:11])[C:4](=[O:5])[C:6]1([H:12])[H:13])([H:7])([H:8])[H:9]>>[C:1]1([H:7])([H:9])[N:2]([H:8])[C:3]([H:10])([H:11])[C:4](=[O:5])[C:6]1([H:12])[H:13]"
C       -1.67571713      -0.36298284      -0.39764389
N       -0.51742272       0.26492430       0.15113843
C        0.48677729       1.23540921       0.43612739
C        1.53959548       0.13882008       0.35146000
O        2.71915650       0.22774785       0.50685085
C        0.57769855      -0.91558274      -0.21041436
H       -2.07574473      -1.35672207      -0.25681192
H       -1.48727825       0.16361164       0.91833519
H       -1.91243511       0.16318970      -1.32492388
H        0.53354389       1.98340838      -0.36046321
H        0.36510763       1.68393223       1.42395999
H        0.23352610      -1.95662874      -0.19180890
H        1.21319250      -1.26912701      -1.04580568
13
Frame=9 idx=000710 GeodesicLength=1.2229864914183648 rxn_smarts="[C:1]([N:2]1[C:3]([H:10])([H:11])[C:4](=[O:5])[C:6]1([H:12])[H:13])([H:7])([H:8])[H:9]>>[C:1]1([H:7])([H:9])[N:2]([H:8])[C:3]([H:10])([H:11])[C:4](=[O:5])[C:6]1([H:12])[H:13]"
C       -1.65507991      -0.39375246      -0.38006988
N       -0.52734575       0.31647098       0.10385502
C        0.49428138       1.24981583       0.43154443
C        1.52422683       0.13218549       0.36039715
O        2.70052780       0.20971695       0.54967066
C        0.56671873      -0.90510944      -0.24381564
H       -2.06802519      -1.37257226      -0.18561294
H       -1.48412673       0.19321571       0.91273055
H       -1.95578280       0.10465920      -1.30451127
H        0.57900103       2.00995567      -0.35027904
H        0.35840421       1.68324896       1.42461163
H        0.18942353      -1.93425907      -0.31599020
H        1.27777689      -1.29357555      -1.00253048
13
Frame=10 idx=000710 GeodesicLength=1.3551762697343634 rxn_smarts="[C:1]([N:2]1[C:3]([H:10])([H:11])[C:4](=[O:5])[C:6]1([H:12])[H:13])([H:7])([H:8])[H:9]>>[C:1]1([H:7])([H:9])[N:2]([H:8])[C:3]([H:10])([H:11])[C:4](=[O:5])[C:6]1([H:12])[H:13]"
C       -1.63170081      -0.42005229      -0.36056868
N       -0.53808235       0.36632871       0.05537144
C        0.49894902       1.26254156       0.42480620
C        1.50680887       0.12602379       0.36647097
O        2.67809953       0.19233131       0.59245339
C        0.55677819      -0.89536487      -0.27913720
H       -2.05252388      -1.38428573      -0.11817372
H       -1.47766263       0.21929688       0.90901673
H       -1.99767935       0.04945571      -1.27710304
H        0.62171945       2.03401590      -0.34052283
H        0.34906062       1.68192007       1.42214293
H        0.15097543      -1.90385096      -0.44942717
H        1.33525789      -1.32836007      -0.94532902
13
Frame=11 idx=000710 GeodesicLength=1.4854950501892514 rxn_smarts="[C:1]([N:2]1[C:3]([H:10])([H:11])[C:4](=[O:5])[C:6]1([H:12])[H:13])([H:7])([H:8])[H:9]>>[C:1]1([H:7])([H:9])[N:2]([H:8])[C:3]([H:10])([H:11])[C:4](=[O:5])[C:6]1([H:12])[H:13]"
C       -1.60537896      -0.44194661      -0.34030265
N       -0.54982730       0.41381781       0.00870947
C        0.50086415       1.27408362       0.41662795
C        1.48899873       0.12160854       0.36730858
O        2.65393788       0.17741330       0.63019998
C        0.54803724      -0.88717926      -0.31359425
H       -2.02904521      -1.39381873      -0.05766964
H       -1.46995114       0.24140580       0.90783779
H       -2.03525457      -0.00122557      -1.24406881
H        0.65931210       2.05667899      -0.33066033
H        0.33873121       1.67975808       1.41804558
H        0.11850971      -1.86265390      -0.59404219
H        1.38106618      -1.37794207      -0.86839148
13
Frame=12 idx=000710 GeodesicLength=1.6123425993004445 rxn_smarts="[C:1]([N:2]1[C:3]([H:10])([H:11])[C:4](=[O:5])[C:6]1([H:12])[H:13])([H:7])([H:8])[H:9]>>[C:1]1([H:7])([H:9])[N:2]([H:8])[C:3]([H:10])([H:11])[C:4](=[O:5])[C:6]1([H:12])[H:13]"
C       -1.57600669      -0.45943816      -0.32169851
N       -0.56266627       0.45879611      -0.03348521
C        0.50009529       1.28492384       0.40905646
C        1.47406828       0.12155170       0.35752398
O        2.63343379       0.16961063       0.64981933
C        0.53982196      -0.88190868      -0.34235819
H       -1.99903670      -1.40289085      -0.00968308
H       -1.46354092       0.25836341       0.90878685
H       -2.06418939      -0.04609545      -1.20956570
H        0.68758020       2.08145862      -0.31707650
H        0.32974214       1.67322701       1.41643057
H        0.09461789      -1.80647312      -0.74935355
H        1.40608042      -1.45112506      -0.75839646
13
Frame=13 idx=000710 GeodesicLength=1.732388207940616 rxn_smarts="[C:1]([N:2]1[C:3]([H:10])([H:11])[C:4](=[O:5])[C:6]1([H:12])[H:13])([H:7])([H:8])[H:9]>>[C:1]1([H:7])([H:9])[N:2]([H:8])[C:3]([H:10])([H:11])[C:4](=[O:5])[C:6]1([H:12])[H:13]"
C       -1.54235562      -0.47283740      -0.30915493
N       -0.57646591       0.50196667      -0.07034966
C        0.49697802       1.29412320       0.40505313
C        1.46458542       0.12815716       0.33166643
O        2.62216456       0.17189820       0.63444089
C        0.53027193      -0.87817279      -0.36245200
H       -1.96462363      -1.41100430       0.01958003
H       -1.45988571       0.26885412       0.90949413
H       -2.08044492      -0.08535529      -1.18061840
H        0.70337704       2.11034450      -0.29380176
H        0.32506099       1.65543137       1.42261559
H        0.08895245      -1.73732578      -0.89918502
H        1.39238538      -1.54607967      -0.60728842
13
Frame=14 idx=000710 GeodesicLength=1.852292305360227 rxn_smarts="[C:1]([N:2]1[C:3]([H:10])([H:11])[C:4](=[O:5])[C:6]1([H:12])[H:13])([H:7])([H:8])[H:9]>>[C:1]1([H:7])([H:9])[N:2]([H:8])[C:3]([H:10])([H:11])[C:4](=[O:5])[C:6]1([H:12])[H:13]"
C       -1.50403800      -0.48290295      -0.30513713
N       -0.59086778       0.54483674      -0.10452644
C        0.49280037       1.30091977       0.40536077
C        1.45911104       0.13882781       0.29510532
O        2.61932942       0.17827855       0.58864295
C        0.52024068      -0.87283260      -0.37932369
H       -1.92969769      -1.41628520       0.03242844
H       -1.45896642       0.27350336       0.90682418
H       -2.08518497      -0.12063255      -1.16020812
H        0.71215815       2.14201462      -0.25870875
H        0.32402562       1.62562806       1.43584637
H        0.10446046      -1.67923748      -1.00994470
H        1.33662911      -1.63211811      -0.44635922
13
Frame=15 idx=000710 GeodesicLength=1.9754403701538883 rxn_smarts="[C:1]([N:2]1[C:3]([H:10])([H:11])[C:4](=[O:5])[C:6]1([H:12])[H:13])([H:7])([H:8])[H:9]>>[C:1]1([H:7])([H:9])[N:2]([H:8])[C:3]([H:10])([H:11])[C:4](=[O:5])[C:6]1([H:12])[H:13]"
C       -1.46467379      -0.48930372      -0.30541780
N       -0.60531960       0.58584493      -0.13665138
C        0.48810812       1.30496672       0.40704204
C        1.45475833       0.14867716       0.25929901
O        2.61909228       0.18244497       0.53750915
C        0.51122470      -0.86996337      -0.39015682
H       -1.90000208      -1.41602255       0.03905399
H       -1.46130518       0.27624642       0.90240785
H       -2.08124928      -0.15276335      -1.14702215
H        0.71994284       2.17050662      -0.22023384
H        0.32300191       1.59099263       1.44965996
H        0.12671946      -1.64620431      -1.07490230
H        1.26970228      -1.68542216      -0.32058772
13
Frame=16 idx=000710 GeodesicLength=2.099981809144112 rxn_smarts="[C:1]([N:2]1[C:3]([H:10])([H:11])[C:4](=[O:5])[C:6]1([H:12])[H:13])([H:7])([H:8])[H:9]>>[C:1]1([H:7])([H:9])[N:2]([H:8])[C:3]([H:10])([H:11])[C:4](=[O:5])[C:6]1([H:12])[H:13]"
C       -1.42605022      -0.49262026      -0.30602756
N       -0.62003035       0.62438550      -0.16566351
C        0.48289738       1.30725484       0.40800912
C        1.44964690       0.15651469       0.22743768
O        2.61790714       0.18433591       0.49014252
C        0.50269862      -0.87014303      -0.39588901
H       -1.87399494      -1.41216292       0.04319489
H       -1.46501368       0.27726225       0.89954521
H       -2.07175987      -0.18185654      -1.13670393
H        0.72781330       2.19383193      -0.18406551
H        0.32109027       1.55744124       1.46056910
H        0.14911022      -1.62636628      -1.11728420
H        1.20568523      -1.71787732      -0.22326480
