12
Frame=0 idx=004855 GeodesicLength=0.0 rxn_smarts="[C:1]([C:2]([C:3](=[O:4])[C:5](=[O:6])[H:12])([H:10])[H:11])([H:7])([H:8])[H:9]>>[C:1]([C:2]([C:3](=[O:4])[H:10])([C:5](=[O:6])[H:12])[H:11])([H:7])([H:8])[H:9]"
C       -1.67016661      -0.04003206       0.60740893
C       -0.24439424      -0.33015572       0.53315921
C        0.42321731      -0.22550980      -0.72254826
O       -0.11513683       0.15959599      -1.80346652
C        1.84225962       0.53964618      -0.35625285
O        2.60148373       0.27664101       0.51010126
H       -1.81848931       0.95744095       0.16962439
H       -2.19464482      -0.69068584      -0.10458949
H       -2.10370253      -0.10980320       1.60082597
H        0.96474401      -1.23617996      -0.70187839
H        0.34212709      -0.61489346       1.40172452
H        1.97270261       1.31393587      -1.13410872
12
Frame=1 idx=004855 GeodesicLength=0.10163727499170992 rxn_smarts="[C:1]([C:2]([C:3](=[O:4])[C:5](=[O:6])[H:12])([H:10])[H:11])([H:7])([H:8])[H:9]>>[C:1]([C:2]([C:3](=[O:4])[H:10])([C:5](=[O:6])[H:12])[H:11])([H:7])([H:8])[H:9]"
C       -1.65560780      -0.03105603       0.60033875
C       -0.22865782      -0.32984832       0.52012307
C        0.42147275      -0.24696169      -0.74905232
O       -0.12025556       0.11298769      -1.83036252
C        1.82102991       0.55651279      -0.34487693
O        2.59838278       0.27973230       0.50217411
H       -1.79735092       0.98382563       0.20384950
H       -2.19804419      -0.64810824      -0.12698940
H       -2.08781947      -0.13892604       1.59114061
H        0.95423951      -1.27329862      -0.65519541
H        0.34863193      -0.61366183       1.39515789
H        1.94397887       1.34880236      -1.10630736
12
Frame=2 idx=004855 GeodesicLength=0.20335203798089127 rxn_smarts="[C:1]([C:2]([C:3](=[O:4])[C:5](=[O:6])[H:12])([H:10])[H:11])([H:7])([H:8])[H:9]>>[C:1]([C:2]([C:3](=[O:4])[H:10])([C:5](=[O:6])[H:12])[H:11])([H:7])([H:8])[H:9]"
C       -1.64086199      -0.02225963       0.59271684
C       -0.21271356      -0.32972043       0.50745817
C        0.42095998      -0.26974364      -0.77430658
O       -0.12470789       0.06680330      -1.85493699
C        1.79975733       0.57260166      -0.33393210
O        2.59601180       0.28298217       0.49236800
H       -1.77509289       1.00881116       0.23939113
H       -2.20021684      -0.60390985      -0.14987076
H       -2.07314752      -0.16905520       1.57869721
H        0.94168609      -1.30903953      -0.60898398
H        0.35509028      -0.61033903       1.38974860
H        1.91323520       1.38286903      -1.07834954
12
Frame=3 idx=004855 GeodesicLength=0.30516817062045004 rxn_smarts="[C:1]([C:2]([C:3](=[O:4])[C:5](=[O:6])[H:12])([H:10])[H:11])([H:7])([H:8])[H:9]>>[C:1]([C:2]([C:3](=[O:4])[H:10])([C:5](=[O:6])[H:12])[H:11])([H:7])([H:8])[H:9]"
C       -1.62603306      -0.01362176       0.58463233
C       -0.19657420      -0.32948306       0.49528606
C        0.42156212      -0.29342610      -0.79821379
O       -0.12855978       0.02109294      -1.87733043
C        1.77868113       0.58794289      -0.32346675
O        2.59440178       0.28633881       0.48072351
H       -1.75222783       1.03216826       0.27623195
H       -2.20098626      -0.55830378      -0.17305048
H       -2.05977823      -0.20018795       1.56347003
H        0.92697922      -1.34339887      -0.56329814
H        0.36155313      -0.60507449       1.38541724
H        1.88098198       1.41595312      -1.05040152
12
Frame=4 idx=004855 GeodesicLength=0.40701224269470704 rxn_smarts="[C:1]([C:2]([C:3](=[O:4])[C:5](=[O:6])[H:12])([H:10])[H:11])([H:7])([H:8])[H:9]>>[C:1]([C:2]([C:3](=[O:4])[H:10])([C:5](=[O:6])[H:12])[H:11])([H:7])([H:8])[H:9]"
C       -1.61118574      -0.00516836       0.57619995
C       -0.18030405      -0.32913490       0.48359813
C        0.42315141      -0.31766602      -0.82074314
O       -0.13190919      -0.02406021      -1.89760377
C        1.75782455       0.60272542      -0.31344869
O        2.59313781       0.29034250       0.46773835
H       -1.72908853       1.05369855       0.31471408
H       -2.20033041      -0.51118041      -0.19638790
H       -2.04766363      -0.23232888       1.54545335
H        0.91030770      -1.37625654      -0.51820944
H        0.36796900      -0.59835923       1.38191286
H        1.84809107       1.44738808      -1.02322378
12
Frame=5 idx=004855 GeodesicLength=0.5088289582801293 rxn_smarts="[C:1]([C:2]([C:3](=[O:4])[C:5](=[O:6])[H:12])([H:10])[H:11])([H:7])([H:8])[H:9]>>[C:1]([C:2]([C:3](=[O:4])[H:10])([C:5](=[O:6])[H:12])[H:11])([H:7])([H:8])[H:9]"
C       -1.59615367       0.00328251       0.56745562
C       -0.16390270      -0.32891058       0.47235144
C        0.42568221      -0.34264123      -0.84191167
O       -0.13469854      -0.06941019      -1.91590342
C        1.73699925       0.61693391      -0.30404350
O        2.59177277       0.29540791       0.45352667
H       -1.70528273       1.07348248       0.35553722
H       -2.19806896      -0.46160445      -0.22009394
H       -2.03673890      -0.26566759       1.52429387
H        0.89198812      -1.40779080      -0.47355937
H        0.37433516      -0.59040531       1.37906721
H        1.81406800       1.47732333      -0.99672016
12
Frame=6 idx=004855 GeodesicLength=0.6107331102465747 rxn_smarts="[C:1]([C:2]([C:3](=[O:4])[C:5](=[O:6])[H:12])([H:10])[H:11])([H:7])([H:8])[H:9]>>[C:1]([C:2]([C:3](=[O:4])[H:10])([C:5](=[O:6])[H:12])[H:11])([H:7])([H:8])[H:9]"
C       -1.58115944       0.01165904       0.55850492
C       -0.14738261      -0.32847681       0.46165409
C        0.42894762      -0.36785471      -0.86173589
O       -0.13718678      -0.11449512      -1.93237199
C        1.71660798       0.63068817      -0.29523481
O        2.59063364       0.30123864       0.43825466
H       -1.68168199       1.09106859       0.39821297
H       -2.19415852      -0.41041552      -0.24366346
H       -2.02707564      -0.29981738       1.50011079
H        0.87176465      -1.43792342      -0.42939264
H        0.38073402      -0.58143012       1.37687433
H        1.77995708       1.50575864      -0.97121296
12
Frame=7 idx=004855 GeodesicLength=0.7126491101955831 rxn_smarts="[C:1]([C:2]([C:3](=[O:4])[C:5](=[O:6])[H:12])([H:10])[H:11])([H:7])([H:8])[H:9]>>[C:1]([C:2]([C:3](=[O:4])[H:10])([C:5](=[O:6])[H:12])[H:11])([H:7])([H:8])[H:9]"
C       -1.56610970       0.02006514       0.54939461
C       -0.13073813      -0.32793221       0.45146090
C        0.43288398      -0.39338159      -0.88025561
O       -0.13939236      -0.15972113      -1.94706434
C        1.69653352       0.64400615      -0.28713209
O        2.58941339       0.30807628       0.42205430
H       -1.65823039       1.10632031       0.44322895
H       -2.18838747      -0.35703563      -0.26712156
H       -2.01861030      -0.33482635       1.47257787
H        0.84984119      -1.46670288      -0.38555541
H        0.38715589      -0.57157553       1.37518945
H        1.74564036       1.53270744      -0.94677708
12
Frame=8 idx=004855 GeodesicLength=0.8146082312204069 rxn_smarts="[C:1]([C:2]([C:3](=[O:4])[C:5](=[O:6])[H:12])([H:10])[H:11])([H:7])([H:8])[H:9]>>[C:1]([C:2]([C:3](=[O:4])[H:10])([C:5](=[O:6])[H:12])[H:11])([H:7])([H:8])[H:9]"
C       -1.55099971       0.02855655       0.54017876
C       -0.11396166      -0.32729526       0.44176965
C        0.43739032      -0.41921752      -0.89751704
O       -0.14144972      -0.20527378      -1.96004478
C        1.67681026       0.65694131      -0.27983572
O        2.58804427       0.31603249       0.40506882
H       -1.63509257       1.11897746       0.49083887
H       -2.18060707      -0.30117110      -0.29036526
H       -2.01133569      -0.37066886       1.44140581
H        0.82628894      -1.49415022      -0.34187969
H        0.39363484      -0.56097088       1.37395889
H        1.71127779       1.55823981      -0.92357831
12
Frame=9 idx=004855 GeodesicLength=0.9165615268467231 rxn_smarts="[C:1]([C:2]([C:3](=[O:4])[C:5](=[O:6])[H:12])([H:10])[H:11])([H:7])([H:8])[H:9]>>[C:1]([C:2]([C:3](=[O:4])[H:10])([C:5](=[O:6])[H:12])[H:11])([H:7])([H:8])[H:9]"
C       -1.53576413       0.03720337       0.53089534
C       -0.09702881      -0.32657986       0.43255911
C        0.44237135      -0.44533139      -0.91355893
O       -0.14346812      -0.25125433      -1.97129724
C        1.65739786       0.66950598      -0.27336244
O        2.58646675       0.32499424       0.38726868
H       -1.61249312       1.12869602       0.54096165
H       -2.17048164      -0.24287401      -0.31314816
H       -2.00514530      -0.40689014       1.40636836
H        0.80113585      -1.52024618      -0.29831072
H        0.40020537      -0.54973825       1.37307173
H        1.67680394       1.58251456      -0.90144739
12
Frame=10 idx=004855 GeodesicLength=1.0185560820966924 rxn_smarts="[C:1]([C:2]([C:3](=[O:4])[C:5](=[O:6])[H:12])([H:10])[H:11])([H:7])([H:8])[H:9]>>[C:1]([C:2]([C:3](=[O:4])[H:10])([C:5](=[O:6])[H:12])[H:11])([H:7])([H:8])[H:9]"
C       -1.52039110       0.04604765       0.52159892
C       -0.07992096      -0.32580005       0.42382954
C        0.44773257      -0.47174711      -0.92843135
O       -0.14563198      -0.29777643      -1.98082895
C        1.63833061       0.68174497      -0.26780681
O        2.58466195       0.33502433       0.36875358
H       -1.59065109       1.13510741       0.59373704
H       -2.15780599      -0.18191265      -0.33531429
H       -2.00000510      -0.44338292       1.36713424
H        0.77440701      -1.54496459      -0.25466540
H        0.40691321      -0.53794543       1.37251031
H        1.64236086       1.60560481      -0.88051683
12
Frame=11 idx=004855 GeodesicLength=1.1205993120466595 rxn_smarts="[C:1]([C:2]([C:3](=[O:4])[C:5](=[O:6])[H:12])([H:10])[H:11])([H:7])([H:8])[H:9]>>[C:1]([C:2]([C:3](=[O:4])[H:10])([C:5](=[O:6])[H:12])[H:11])([H:7])([H:8])[H:9]"
C       -1.50481466       0.05514677       0.51233558
C       -0.06260969      -0.32501716       0.41556903
C        0.45338857      -0.49847862      -0.94217705
O       -0.14810831      -0.34490519      -1.98858420
C        1.61956506       0.69367667      -0.26318700
O        2.58261019       0.34603827       0.34947241
H       -1.56978679       1.13780923       0.64898642
H       -2.14223218      -0.11832751      -0.35660083
H       -1.99581041      -0.47965444       1.32345630
H        0.74612990      -1.56826105      -0.21086340
H        0.41381143      -0.52569353       1.37221292
H        1.60785689       1.62766656      -0.86062016
12
Frame=12 idx=004855 GeodesicLength=1.2227375890268042 rxn_smarts="[C:1]([C:2]([C:3](=[O:4])[C:5](=[O:6])[H:12])([H:10])[H:11])([H:7])([H:8])[H:9]>>[C:1]([C:2]([C:3](=[O:4])[H:10])([C:5](=[O:6])[H:12])[H:11])([H:7])([H:8])[H:9]"
C       -1.48899276       0.06453889       0.50317393
C       -0.04506613      -0.32429356       0.40778254
C        0.45925599      -0.52554919      -0.95484546
O       -0.15110155      -0.39267764      -1.99450658
C        1.60108688       0.70532582      -0.25953441
O        2.58032912       0.35798763       0.32938485
H       -1.55014866       1.13637815       0.70650576
H       -2.12344034      -0.05213632      -0.37674475
H       -1.99248683      -0.51527318       1.27507938
H        0.71633232      -1.59007053      -0.16680183
H        0.42096719      -0.51305228       1.37216254
H        1.57326478       1.64882221      -0.84165598
12
Frame=13 idx=004855 GeodesicLength=1.3250043926477195 rxn_smarts="[C:1]([C:2]([C:3](=[O:4])[C:5](=[O:6])[H:12])([H:10])[H:11])([H:7])([H:8])[H:9]>>[C:1]([C:2]([C:3](=[O:4])[H:10])([C:5](=[O:6])[H:12])[H:11])([H:7])([H:8])[H:9]"
C       -1.47282729       0.07424239       0.49414365
C       -0.02726183      -0.32376215       0.40043912
C        0.46524379      -0.55291875      -0.96649340
O       -0.15478247      -0.44096972      -1.99850023
C        1.58279963       0.71668809      -0.25676834
O        2.57778102       0.37068863       0.30837206
H       -1.53199784       1.13047991       0.76556232
H       -2.10106086       0.01613869      -0.39539860
H       -1.98977948      -0.54928498       1.22212189
H        0.68505806      -1.61033143      -0.12253722
H        0.42844830      -0.50023092       1.37225186
H        1.53837897       1.66926025      -0.82319311
12
Frame=14 idx=004855 GeodesicLength=1.4274806469480743 rxn_smarts="[C:1]([C:2]([C:3](=[O:4])[C:5](=[O:6])[H:12])([H:10])[H:11])([H:7])([H:8])[H:9]>>[C:1]([C:2]([C:3](=[O:4])[H:10])([C:5](=[O:6])[H:12])[H:11])([H:7])([H:8])[H:9]"
C       -1.45631028       0.08423615       0.48534062
C       -0.00917561      -0.32348732       0.39354037
C        0.47126136      -0.58055525      -0.97721403
O       -0.15937881      -0.48962986      -2.00053746
C        1.56473677       0.72777573      -0.25487742
O        2.57501916       0.38406367       0.28641741
H       -1.51561258       1.11982431       0.82552552
H       -2.07493403       0.08609481      -0.41224173
H       -1.98753586      -0.58116392       1.16466230
H        0.65231508      -1.62893330      -0.07804626
H        0.43632625      -0.48729640       1.37248054
H        1.50328856       1.68907138      -0.80504984
12
Frame=15 idx=004855 GeodesicLength=1.5302629847883733 rxn_smarts="[C:1]([C:2]([C:3](=[O:4])[C:5](=[O:6])[H:12])([H:10])[H:11])([H:7])([H:8])[H:9]>>[C:1]([C:2]([C:3](=[O:4])[H:10])([C:5](=[O:6])[H:12])[H:11])([H:7])([H:8])[H:9]"
C       -1.43937813       0.09448145       0.47681369
C        0.00921136      -0.32361260       0.38705701
C        0.47721781      -0.60841048      -0.98710054
O       -0.16505245      -0.53846010      -2.00057677
C        1.54682911       0.73858045      -0.25376057
O        2.57202824       0.39796002       0.26341394
H       -1.50118254       1.10431695       0.88543514
H       -2.04489023       0.15704878      -0.42698674
H       -1.98547993      -0.61009059       1.10309141
H        0.61817091      -1.64579874      -0.03340479
H        0.44466951      -0.47441558       1.37277741
H        1.46785633       1.70840046      -0.78675920
12
Frame=16 idx=004855 GeodesicLength=1.6334590929767245 rxn_smarts="[C:1]([C:2]([C:3](=[O:4])[C:5](=[O:6])[H:12])([H:10])[H:11])([H:7])([H:8])[H:9]>>[C:1]([C:2]([C:3](=[O:4])[H:10])([C:5](=[O:6])[H:12])[H:11])([H:7])([H:8])[H:9]"
C       -1.42199867       0.10490628       0.46861569
C        0.02790961      -0.32426714       0.38095109
C        0.48302362      -0.63641815      -0.99627561
O       -0.17193457      -0.58720988      -1.99863524
C        1.52903373       0.74908989      -0.25330654
O        2.56879947       0.41223403       0.23928813
H       -1.48884817       1.08405772       0.94424142
H       -2.01092616       0.22819864      -0.43939975
H       -1.98332115      -0.63537406       1.03799398
H        0.58270408      -1.66084094       0.01129411
H        0.45353475      -0.46173237       1.37308124
H        1.43202346       1.72735599      -0.76784853
