14
Frame=0 idx=010166 GeodesicLength=0.0 rxn_smarts="[N:1]([C:2](=[O:3])[C:4]([C@@:5]1([H:12])[C:6]([H:13])([H:14])[O:7]1)([H:10])[H:11])([H:8])[H:9]>>[N:1]([C:2](=[O:3])/[C:4](=[C:5](\[C:6]([O:7][H:11])([H:13])[H:14])[H:12])[H:10])([H:8])[H:9]"
N        1.77392033       0.54847124       1.66862927
C        0.63418703       0.64136800       0.91733817
O        0.05859549       1.71112763       0.79077284
C        0.20231035      -0.63027136       0.30783151
C       -1.07641872      -0.73407009      -0.33971488
C       -1.40710516       0.27438910      -1.33868476
O       -0.56141828      -0.71136341      -1.97056999
H        2.18768506       1.41354918       1.96685862
H        2.35956537      -0.26343958       1.61249041
H        0.56542412      -1.53601423       0.78105879
H        0.36490498      -0.64068985      -1.15974008
H       -1.72687344      -1.59411307      -0.24532263
H       -0.96927343       1.25858763      -1.22832195
H       -2.40550369       0.26246884      -1.76262530
14
Frame=1 idx=010166 GeodesicLength=0.06603991645511788 rxn_smarts="[N:1]([C:2](=[O:3])[C:4]([C@@:5]1([H:12])[C:6]([H:13])([H:14])[O:7]1)([H:10])[H:11])([H:8])[H:9]>>[N:1]([C:2](=[O:3])/[C:4](=[C:5](\[C:6]([O:7][H:11])([H:13])[H:14])[H:12])[H:10])([H:8])[H:9]"
N        1.77697550       0.55001855       1.66911928
C        0.63398694       0.64059504       0.92370558
O        0.04684952       1.70509005       0.81024498
C        0.20884476      -0.62902661       0.30101841
C       -1.07395539      -0.72682398      -0.33786474
C       -1.40634571       0.27306820      -1.34637997
O       -0.57562112      -0.72101066      -1.98090926
H        2.18243731       1.41413926       1.98106246
H        2.36452812      -0.26037643       1.61271867
H        0.56367135      -1.53492682       0.78116900
H        0.37669120      -0.64934137      -1.18263643
H       -1.72590472      -1.58384937      -0.22839334
H       -0.95906427       1.25512029      -1.25270821
H       -2.41309350       0.26732386      -1.75014642
14
Frame=2 idx=010166 GeodesicLength=0.1320542515607328 rxn_smarts="[N:1]([C:2](=[O:3])[C:4]([C@@:5]1([H:12])[C:6]([H:13])([H:14])[O:7]1)([H:10])[H:11])([H:8])[H:9]>>[N:1]([C:2](=[O:3])/[C:4](=[C:5](\[C:6]([O:7][H:11])([H:13])[H:14])[H:12])[H:10])([H:8])[H:9]"
N        1.78013175       0.55177405       1.66936051
C        0.63352898       0.63976384       0.93041410
O        0.03509009       1.69879830       0.82980031
C        0.21522732      -0.62765135       0.29436454
C       -1.07151324      -0.71951332      -0.33598118
C       -1.40560044       0.27166080      -1.35404331
O       -0.58992912      -0.73072769      -1.99091609
H        2.17713042       1.41460996       1.99529480
H        2.36950844      -0.25716729       1.61277460
H        0.56197869      -1.53369860       0.78110303
H        0.38843267      -0.65831969      -1.20573945
H       -1.72477206      -1.57341429      -0.21159631
H       -0.94905650       1.25128850      -1.27710088
H       -2.42015702       0.27259678      -1.73773467
14
Frame=3 idx=010166 GeodesicLength=0.19804631054309144 rxn_smarts="[N:1]([C:2](=[O:3])[C:4]([C@@:5]1([H:12])[C:6]([H:13])([H:14])[O:7]1)([H:10])[H:11])([H:8])[H:9]>>[N:1]([C:2](=[O:3])/[C:4](=[C:5](\[C:6]([O:7][H:11])([H:13])[H:14])[H:12])[H:10])([H:8])[H:9]"
N        1.78342572       0.55375722       1.66929735
C        0.63287068       0.63888824       0.93740109
O        0.02335308       1.69226767       0.84942344
C        0.22146790      -0.62612989       0.28785340
C       -1.06910075      -0.71211807      -0.33404697
C       -1.40487686       0.27015919      -1.36167963
O       -0.60438284      -0.74055259      -2.00058206
H        2.17163669       1.41490215       2.00982921
H        2.37457138      -0.25377018       1.61257123
H        0.56036770      -1.53232107       0.78084428
H        0.40010951      -0.66766671      -1.22908479
H       -1.72349524      -1.56277440      -0.19487725
H       -0.93923753       1.24707104      -1.30155923
H       -2.42670946       0.27828740      -1.72539007
14
Frame=4 idx=010166 GeodesicLength=0.2640224771323999 rxn_smarts="[N:1]([C:2](=[O:3])[C:4]([C@@:5]1([H:12])[C:6]([H:13])([H:14])[O:7]1)([H:10])[H:11])([H:8])[H:9]>>[N:1]([C:2](=[O:3])/[C:4](=[C:5](\[C:6]([O:7][H:11])([H:13])[H:14])[H:12])[H:10])([H:8])[H:9]"
N        1.78683560       0.55599015       1.66895007
C        0.63197820       0.63794520       0.94472164
O        0.01154928       1.68546281       0.86924539
C        0.22755629      -0.62446259       0.28149928
C       -1.06671834      -0.70464484      -0.33207362
C       -1.40416722       0.26857491      -1.36928111
O       -0.61894876      -0.75044655      -2.00991444
H        2.16612958       1.41507060       2.02434923
H        2.37961201      -0.25023464       1.61227846
H        0.55884545      -1.53081231       0.78038341
H        0.41174419      -0.67735554      -1.25266902
H       -1.72206721      -1.55196035      -0.17828513
H       -0.92960946       1.24248279      -1.32605606
H       -2.43273960       0.28439034      -1.71314812
14
Frame=5 idx=010166 GeodesicLength=0.3299792741167044 rxn_smarts="[N:1]([C:2](=[O:3])[C:4]([C@@:5]1([H:12])[C:6]([H:13])([H:14])[O:7]1)([H:10])[H:11])([H:8])[H:9]>>[N:1]([C:2](=[O:3])/[C:4](=[C:5](\[C:6]([O:7][H:11])([H:13])[H:14])[H:12])[H:10])([H:8])[H:9]"
N        1.79045437       0.55852470       1.66818143
C        0.63096417       0.63698693       0.95223902
O       -0.00021120       1.67843155       0.88916138
C        0.23351845      -0.62261533       0.27526454
C       -1.06437236      -0.69705425      -0.33002649
C       -1.40349436       0.26688411      -1.37685783
O       -0.63371475      -0.76048969      -2.01888652
H        2.16029380       1.41493665       2.03949767
H        2.38477936      -0.24647586       1.61167699
H        0.55744117      -1.52913355       0.77970984
H        0.42328705      -0.68747129      -1.27655738
H       -1.72050459      -1.54090236      -0.16170901
H       -0.92016555       1.23746965      -1.35070183
H       -2.43827557       0.29090872      -1.70099180
14
Frame=6 idx=010166 GeodesicLength=0.3959264422080314 rxn_smarts="[N:1]([C:2](=[O:3])[C:4]([C@@:5]1([H:12])[C:6]([H:13])([H:14])[O:7]1)([H:10])[H:11])([H:8])[H:9]>>[N:1]([C:2](=[O:3])/[C:4](=[C:5](\[C:6]([O:7][H:11])([H:13])[H:14])[H:12])[H:10])([H:8])[H:9]"
N        1.79422061       0.56137675       1.66706068
C        0.62975002       0.63596393       0.96006912
O       -0.01208224       1.67109376       0.90938841
C        0.23933896      -0.62060041       0.26917340
C       -1.06205755      -0.68936867      -0.32793427
C       -1.40284210       0.26511097      -1.38439460
O       -0.64861000      -0.77060044      -2.02751909
H        2.15448808       1.41465428       2.05459994
H        2.38985401      -0.24260309       1.61112519
H        0.55615982      -1.52732431       0.77880838
H        0.43478304      -0.69794446      -1.30073577
H       -1.71878706      -1.52966777      -0.14525603
H       -0.91091994       1.23207297      -1.37541646
H       -2.44329565       0.29783649      -1.68896891
14
Frame=7 idx=010166 GeodesicLength=0.46186911876969716 rxn_smarts="[N:1]([C:2](=[O:3])[C:4]([C@@:5]1([H:12])[C:6]([H:13])([H:14])[O:7]1)([H:10])[H:11])([H:8])[H:9]>>[N:1]([C:2](=[O:3])/[C:4](=[C:5](\[C:6]([O:7][H:11])([H:13])[H:14])[H:12])[H:10])([H:8])[H:9]"
N        1.79824304       0.56462318       1.66541975
C        0.62844641       0.63492869       0.96808085
O       -0.02396241       1.66349612       0.92983002
C        0.24505378      -0.61838205       0.26318098
C       -1.05977018      -0.68155233      -0.32577061
C       -1.40223615       0.26323365      -1.39189914
O       -0.66372502      -0.78085129      -2.03579707
H        2.14843110       1.41403668       2.07023662
H        2.39492729      -0.23856213       1.61051213
H        0.55504341      -1.52534058       0.77765940
H        0.44618211      -0.70884918      -1.32527928
H       -1.71691929      -1.51819604      -0.12882234
H       -0.90187666       1.22624824      -1.40029744
H       -2.44783742       0.30516704      -1.67705387
14
Frame=8 idx=010166 GeodesicLength=0.5278094705082746 rxn_smarts="[N:1]([C:2](=[O:3])[C:4]([C@@:5]1([H:12])[C:6]([H:13])([H:14])[O:7]1)([H:10])[H:11])([H:8])[H:9]>>[N:1]([C:2](=[O:3])/[C:4](=[C:5](\[C:6]([O:7][H:11])([H:13])[H:14])[H:12])[H:10])([H:8])[H:9]"
N        1.80242843       0.56824532       1.66337877
C        0.62698601       0.63383022       0.97637738
O       -0.03597546       1.65555153       0.95067279
C        0.25064461      -0.61597485       0.25731145
C       -1.05750939      -0.67362481      -0.32355937
C       -1.40166103       0.26127327      -1.39935794
O       -0.67899368      -0.79116998      -2.04373365
H        2.14244944       1.41326685       2.08579978
H        2.39983213      -0.23443602       1.61011526
H        0.55408633      -1.52322388       0.77624933
H        0.45752147      -0.72012515      -1.35018471
H       -1.71488809      -1.50654690      -0.11250548
H       -0.89304318       1.22002875      -1.42527473
H       -2.45187760       0.31290566      -1.66528888
14
Frame=9 idx=010166 GeodesicLength=0.5937063258846776 rxn_smarts="[N:1]([C:2](=[O:3])[C:4]([C@@:5]1([H:12])[C:6]([H:13])([H:14])[O:7]1)([H:10])[H:11])([H:8])[H:9]>>[N:1]([C:2](=[O:3])/[C:4](=[C:5](\[C:6]([O:7][H:11])([H:13])[H:14])[H:12])[H:10])([H:8])[H:9]"
N        1.80720181       0.57256598       1.66024989
C        0.62561912       0.63281711       0.98465354
O       -0.04789942       1.64738074       0.97168346
C        0.25622929      -0.61328778       0.25143821
C       -1.05523411      -0.66551665      -0.32125982
C       -1.40119366       0.25919287      -1.40677631
O       -0.69464269      -0.80168940      -2.05131497
H        2.13587632       1.41180694       2.10261127
H        2.40459265      -0.23020002       1.61001372
H        0.55344418      -1.52084009       0.77451458
H        0.46863601      -0.73196010      -1.37561962
H       -1.71266651      -1.49460631      -0.09607918
H       -0.88444995       1.21333851      -1.45052629
H       -2.45551304       0.32099822      -1.65358847
14
Frame=10 idx=010166 GeodesicLength=0.659596825581766 rxn_smarts="[N:1]([C:2](=[O:3])[C:4]([C@@:5]1([H:12])[C:6]([H:13])([H:14])[O:7]1)([H:10])[H:11])([H:8])[H:9]>>[N:1]([C:2](=[O:3])/[C:4](=[C:5](\[C:6]([O:7][H:11])([H:13])[H:14])[H:12])[H:10])([H:8])[H:9]"
N        1.81303114       0.57791461       1.65534993
C        0.62478385       0.63220627       0.99232262
O       -0.05918280       1.63935280       0.99218144
C        0.26194676      -0.61015854       0.24537538
C       -1.05292715      -0.65708301      -0.31875209
C       -1.40095855       0.25686500      -1.41420423
O       -0.71102749      -0.81276632      -2.05842632
H        2.12732266       1.40848428       2.12347927
H        2.40972717      -0.22550582       1.60939530
H        0.55327710      -1.51793507       0.77244684
H        0.47932742      -0.74462930      -1.40179923
H       -1.71024210      -1.48209804      -0.07907698
H       -0.87617754       1.20595642      -1.47649053
H       -2.45890048       0.32939672      -1.64180140
14
Frame=11 idx=010166 GeodesicLength=0.725484447572237 rxn_smarts="[N:1]([C:2](=[O:3])[C:4]([C@@:5]1([H:12])[C:6]([H:13])([H:14])[O:7]1)([H:10])[H:11])([H:8])[H:9]>>[N:1]([C:2](=[O:3])/[C:4](=[C:5](\[C:6]([O:7][H:11])([H:13])[H:14])[H:12])[H:10])([H:8])[H:9]"
N        1.81910097       0.58392812       1.64982227
C        0.62380491       0.63154940       1.00030599
O       -0.07074550       1.63085504       1.01336881
C        0.26760345      -0.60678398       0.23937879
C       -1.05058563      -0.64853627      -0.31623429
C       -1.40078073       0.25446673      -1.42155257
O       -0.72756143      -0.82380960      -2.06520325
H        2.11923351       1.40487661       2.14355266
H        2.41413451      -0.22093690       1.60994392
H        0.55339713      -1.51487355       0.77002635
H        0.48995360      -0.75761224      -1.42846897
H       -1.70752540      -1.46946754      -0.06226686
H       -0.86822779       1.19817903      -1.50250002
H       -2.46180160       0.33816516      -1.63017284
14
Frame=12 idx=010166 GeodesicLength=0.791375427049968 rxn_smarts="[N:1]([C:2](=[O:3])[C:4]([C@@:5]1([H:12])[C:6]([H:13])([H:14])[O:7]1)([H:10])[H:11])([H:8])[H:9]>>[N:1]([C:2](=[O:3])/[C:4](=[C:5](\[C:6]([O:7][H:11])([H:13])[H:14])[H:12])[H:10])([H:8])[H:9]"
N        1.82521217       0.59052177       1.64397371
C        0.62265363       0.63081586       1.00866543
O       -0.08262327       1.62182338       1.03533677
C        0.27317080      -0.60316960       0.23349266
C       -1.04822475      -0.63986743      -0.31370205
C       -1.40062636       0.25201194      -1.42882455
O       -0.74420281      -0.83481386      -2.07163216
H        2.11171682       1.40099925       2.16256540
H        2.41790365      -0.21634559       1.61142819
H        0.55376278      -1.51168287       0.76728475
H        0.50053689      -0.77091221      -1.45560858
H       -1.70455301      -1.45670997      -0.04566971
H       -0.86055109       1.19001161      -1.52854585
H       -2.46417545       0.34731771      -1.61876402
14
Frame=13 idx=010166 GeodesicLength=0.8572810281824924 rxn_smarts="[N:1]([C:2](=[O:3])[C:4]([C@@:5]1([H:12])[C:6]([H:13])([H:14])[O:7]1)([H:10])[H:11])([H:8])[H:9]>>[N:1]([C:2](=[O:3])/[C:4](=[C:5](\[C:6]([O:7][H:11])([H:13])[H:14])[H:12])[H:10])([H:8])[H:9]"
N        1.83154138       0.59782012       1.63761040
C        0.62169441       0.63029656       1.01692004
O       -0.09432325       1.61260448       1.05748375
C        0.27871739      -0.59918275       0.22763325
C       -1.04585803      -0.63091772      -0.31103915
C       -1.40054863       0.24939029      -1.43610013
O       -0.76124936      -0.84615286      -2.07757447
H        2.10341375       1.39565889       2.18327004
H        2.42191835      -0.21101932       1.61225012
H        0.55441676      -1.50814025       0.76431839
H        0.51086436      -0.78491645      -1.48332089
H       -1.70140767      -1.44350341      -0.02884665
H       -0.85309386       1.18122655      -1.55505670
H       -2.46608561       0.35683588      -1.60754799
14
Frame=14 idx=010166 GeodesicLength=0.9231825985672762 rxn_smarts="[N:1]([C:2](=[O:3])[C:4]([C@@:5]1([H:12])[C:6]([H:13])([H:14])[O:7]1)([H:10])[H:11])([H:8])[H:9]>>[N:1]([C:2](=[O:3])/[C:4](=[C:5](\[C:6]([O:7][H:11])([H:13])[H:14])[H:12])[H:10])([H:8])[H:9]"
N        1.83682067       0.60489992       1.63271119
C        0.62019154       0.62942417       1.02607672
O       -0.10669450       1.60251704       1.08094193
C        0.28392830      -0.59510404       0.22219281
C       -1.04358397      -0.62187725      -0.30839995
C       -1.40027302       0.24680742      -1.44333199
O       -0.77807205      -0.85731575      -2.08315037
H        2.09657930       1.39089178       2.20112216
H        2.42590413      -0.20508751       1.61262421
H        0.55493637      -1.50472618       0.76124347
H        0.52132390      -0.79921735      -1.51120865
H       -1.69823779      -1.43021457      -0.01252464
H       -0.84562049       1.17212169      -1.58140453
H       -2.46720240       0.36688064      -1.59689237
14
Frame=15 idx=010166 GeodesicLength=0.9890835265544154 rxn_smarts="[N:1]([C:2](=[O:3])[C:4]([C@@:5]1([H:12])[C:6]([H:13])([H:14])[O:7]1)([H:10])[H:11])([H:8])[H:9]>>[N:1]([C:2](=[O:3])/[C:4](=[C:5](\[C:6]([O:7][H:11])([H:13])[H:14])[H:12])[H:10])([H:8])[H:9]"
N        1.84127158       0.61183897       1.62899956
C        0.61837522       0.62835440       1.03582629
O       -0.11943701       1.59174004       1.10535017
C        0.28886531      -0.59085622       0.21708809
C       -1.04140532      -0.61264965      -0.30572310
C       -1.39984893       0.24420130      -1.45056245
O       -0.79489000      -0.86851302      -2.08829851
H        2.09037996       1.38619218       2.21787853
H        2.43034265      -0.19828018       1.61179781
H        0.55536733      -1.50131952       0.75807123
H        0.53177349      -0.81405518      -1.53938457
H       -1.69508952      -1.41665392       0.00355847
H       -0.83811396       1.16255459      -1.60784025
H       -2.46759081       0.37744620      -1.58676127
14
Frame=16 idx=010166 GeodesicLength=1.0549825081701165 rxn_smarts="[N:1]([C:2](=[O:3])[C:4]([C@@:5]1([H:12])[C:6]([H:13])([H:14])[O:7]1)([H:10])[H:11])([H:8])[H:9]>>[N:1]([C:2](=[O:3])/[C:4](=[C:5](\[C:6]([O:7][H:11])([H:13])[H:14])[H:12])[H:10])([H:8])[H:9]"
N        1.84504521       0.61871817       1.62624999
C        0.61630631       0.62711141       1.04609369
O       -0.13249446       1.58025792       1.13067347
C        0.29356857      -0.58641197       0.21226766
C       -1.03930811      -0.60321285      -0.30300556
C       -1.39930539       0.24156390      -1.45779006
O       -0.81177571      -0.87976380      -2.09302186
H        2.08468826       1.38159088       2.23386342
H        2.43519352      -0.19070818       1.60995058
H        0.55575770      -1.49789575       0.75475309
H        0.54216416      -0.82947265      -1.56794548
H       -1.69194682      -1.40279695       0.01944692
H       -0.83060610       1.15249591      -1.63440205
H       -2.46728714       0.38852394      -1.57713381
