13
Frame=0 idx=007962 GeodesicLength=0.0 rxn_smarts="[N:1](=[C:2]1\[O:3][C:4]([H:9])([H:10])[C@@:5]12[C:6]([H:11])([H:12])[N:7]2[H:13])\[H:8]>>[N:1](=[C:2]1\[O:3][C:4]([H:9])([H:10])[C-:5]2[C:6]([H:11])([H:12])[N+:7]12[H:13])\[H:8]"
N        1.66202315      -1.34739275      -0.82416542
C        0.99943810      -0.47110532      -0.21842073
O        1.44131049       0.51539136       0.60531335
C        0.27420667       1.34040899       0.58537018
C       -0.39195816       0.59986821      -0.55221215
C       -1.60359854      -0.12054064      -0.17945755
N       -0.49575590      -1.00721348       0.24562760
H        2.65574507      -1.15785909      -0.77772715
H       -0.21296875       1.32780127       1.56696510
H        0.52734137       2.36165169       0.29510523
H       -2.22256493      -0.53269557      -0.97103212
H       -2.17343036       0.24668364       0.67041424
H       -0.45978820      -1.75499831      -0.44578052
13
Frame=1 idx=007962 GeodesicLength=0.06395428197556587 rxn_smarts="[N:1](=[C:2]1\[O:3][C:4]([H:9])([H:10])[C@@:5]12[C:6]([H:11])([H:12])[N:7]2[H:13])\[H:8]>>[N:1](=[C:2]1\[O:3][C:4]([H:9])([H:10])[C-:5]2[C:6]([H:11])([H:12])[N+:7]12[H:13])\[H:8]"
N        1.67842504      -1.34213639      -0.82360870
C        1.00851394      -0.47288144      -0.21590167
O        1.44120296       0.51101132       0.61453951
C        0.27472087       1.34036019       0.58263186
C       -0.39653144       0.58740030      -0.54201122
C       -1.61571265      -0.12071329      -0.17429467
N       -0.50327494      -1.00899290       0.22615210
H        2.67180003      -1.15297459      -0.76602895
H       -0.20661964       1.34516428       1.56661999
H        0.53299647       2.35604452       0.27819248
H       -2.23868788      -0.52048121      -0.96892486
H       -2.17638790       0.23603099       0.68598473
H       -0.47044486      -1.75783176      -0.46335059
13
Frame=2 idx=007962 GeodesicLength=0.12787988313183352 rxn_smarts="[N:1](=[C:2]1\[O:3][C:4]([H:9])([H:10])[C@@:5]12[C:6]([H:11])([H:12])[N:7]2[H:13])\[H:8]>>[N:1](=[C:2]1\[O:3][C:4]([H:9])([H:10])[C-:5]2[C:6]([H:11])([H:12])[N+:7]12[H:13])\[H:8]"
N        1.69484546      -1.33655190      -0.82303095
C        1.01740142      -0.47471752      -0.21321000
O        1.44078270       0.50636747       0.62411207
C        0.27523391       1.34030741       0.57976759
C       -0.40112771       0.57502202      -0.53170843
C       -1.62760755      -0.12100569      -0.16892717
N       -0.51084692      -1.01089196       0.20642260
H        2.68774340      -1.14782798      -0.75406879
H       -0.20027420       1.36313361       1.56578777
H        0.53898594       2.35004213       0.26099143
H       -2.25470957      -0.50783950      -0.96656393
H       -2.17900257       0.22459557       0.70176205
H       -0.48142431      -1.76063365      -0.48133422
13
Frame=3 idx=007962 GeodesicLength=0.19175835370604977 rxn_smarts="[N:1](=[C:2]1\[O:3][C:4]([H:9])([H:10])[C@@:5]12[C:6]([H:11])([H:12])[N:7]2[H:13])\[H:8]>>[N:1](=[C:2]1\[O:3][C:4]([H:9])([H:10])[C-:5]2[C:6]([H:11])([H:12])[N+:7]12[H:13])\[H:8]"
N        1.71127525      -1.33064592      -0.82239897
C        1.02609932      -0.47661981      -0.21033024
O        1.44004721       0.50147893       0.63400676
C        0.27574971       1.34024531       0.57677925
C       -0.40573977       0.56273719      -0.52130345
C       -1.63927674      -0.12142649      -0.16335832
N       -0.51847736      -1.01288637       0.18644526
H        2.70355791      -1.14240874      -0.74187459
H       -0.19390720       1.38167937       1.56444485
H        0.54529386       2.34363220       0.24353645
H       -2.27060906      -0.49478123      -0.96393469
H       -2.18127446       0.21238119       0.71770417
H       -0.49273869      -1.76338564      -0.49971648
13
Frame=4 idx=007962 GeodesicLength=0.2555783422384371 rxn_smarts="[N:1](=[C:2]1\[O:3][C:4]([H:9])([H:10])[C@@:5]12[C:6]([H:11])([H:12])[N:7]2[H:13])\[H:8]>>[N:1](=[C:2]1\[O:3][C:4]([H:9])([H:10])[C-:5]2[C:6]([H:11])([H:12])[N+:7]12[H:13])\[H:8]"
N        1.72770523      -1.32444095      -0.82166996
C        1.03460865      -0.47860300      -0.20723765
O        1.43900120       0.49636410       0.64420050
C        0.27627231       1.34016846       0.57367401
C       -0.41035628       0.55054703      -0.51079521
C       -1.65071495      -0.12198251      -0.15759898
N       -0.52617554      -1.01494708       0.16623620
H        2.71922878      -1.13668834      -0.72951095
H       -0.18749088       1.40076831       1.56257606
H        0.55189905       2.33680743       0.22586749
H       -2.28635734      -0.48132147      -0.96103384
H       -2.18321628       0.19940207       0.73375296
H       -0.50440396      -1.76607406      -0.51846063
13
Frame=5 idx=007962 GeodesicLength=0.3193646682276284 rxn_smarts="[N:1](=[C:2]1\[O:3][C:4]([H:9])([H:10])[C@@:5]12[C:6]([H:11])([H:12])[N:7]2[H:13])\[H:8]>>[N:1](=[C:2]1\[O:3][C:4]([H:9])([H:10])[C-:5]2[C:6]([H:11])([H:12])[N+:7]12[H:13])\[H:8]"
N        1.74414149      -1.31798413      -0.82079313
C        1.04293749      -0.48069411      -0.20390515
O        1.43766544       0.49104686       0.65468054
C        0.27680669       1.34007670       0.57046912
C       -0.41496414       0.53845111      -0.50017750
C       -1.66192574      -0.12268251      -0.15166833
N       -0.53395669      -1.01703944       0.14581622
H        2.73476023      -1.13063501      -0.71708375
H       -0.18099457       1.42037405       1.56017964
H        0.55876937       2.32957067       0.20802709
H       -2.30192249      -0.46748086      -0.95785920
H       -2.18486919       0.18567800       0.74983027
H       -0.51644788      -1.76868132      -0.53751583
13
Frame=6 idx=007962 GeodesicLength=0.38300262888350595 rxn_smarts="[N:1](=[C:2]1\[O:3][C:4]([H:9])([H:10])[C@@:5]12[C:6]([H:11])([H:12])[N:7]2[H:13])\[H:8]>>[N:1](=[C:2]1\[O:3][C:4]([H:9])([H:10])[C-:5]2[C:6]([H:11])([H:12])[N+:7]12[H:13])\[H:8]"
N        1.76050758      -1.31128493      -0.81967700
C        1.05108161      -0.48291330      -0.20025475
O        1.43604841       0.48552190       0.66541395
C        0.27735616       1.33994198       0.56716272
C       -0.41953545       0.52642797      -0.48946231
C       -1.67288382      -0.12350785      -0.14560604
N       -0.54181392      -1.01913981       0.12523502
H        2.75007718      -1.12411416      -0.70475226
H       -0.17443820       1.44034998       1.55727716
H        0.56590134       2.32191973       0.19004533
H       -2.31725391      -0.45330921      -0.95445610
H       -2.18619246       0.17135865       0.76584767
H       -0.52885452      -1.77125096      -0.55677338
13
Frame=7 idx=007962 GeodesicLength=0.4466015961339505 rxn_smarts="[N:1](=[C:2]1\[O:3][C:4]([H:9])([H:10])[C@@:5]12[C:6]([H:11])([H:12])[N:7]2[H:13])\[H:8]>>[N:1](=[C:2]1\[O:3][C:4]([H:9])([H:10])[C-:5]2[C:6]([H:11])([H:12])[N+:7]12[H:13])\[H:8]"
N        1.77687681      -1.30433779      -0.81837247
C        1.05904515      -0.48526259      -0.19633113
O        1.43415571       0.47982035       0.67638717
C        0.27791962       1.33978764       0.56374554
C       -0.42409771       0.51449267      -0.47864214
C       -1.68362081      -0.12449189      -0.13936718
N       -0.54976068      -1.02123119       0.10442045
H        2.76525798      -1.11723878      -0.69233515
H       -0.16775202       1.46078195       1.55381965
H        0.57326761       2.31383984       0.17190994
H       -2.33239897      -0.43875344      -0.95074458
H       -2.18722581       0.15628705       0.78186433
H       -0.54166688      -1.77369381      -0.57635442
13
Frame=8 idx=007962 GeodesicLength=0.5101411186122351 rxn_smarts="[N:1](=[C:2]1\[O:3][C:4]([H:9])([H:10])[C@@:5]12[C:6]([H:11])([H:12])[N:7]2[H:13])\[H:8]>>[N:1](=[C:2]1\[O:3][C:4]([H:9])([H:10])[C-:5]2[C:6]([H:11])([H:12])[N+:7]12[H:13])\[H:8]"
N        1.79325599      -1.29705365      -0.81692206
C        1.06682598      -0.48771354      -0.19216964
O        1.43192707       0.47397177       0.68757123
C        0.27849414       1.33961186       0.56018340
C       -0.42867375       0.50264870      -0.46771877
C       -1.69413308      -0.12565414      -0.13289637
N       -0.55778470      -1.02330465       0.08328970
H        2.78031311      -1.11012177      -0.67958219
H       -0.16091018       1.48167268       1.54970378
H        0.58088041       2.30529646       0.15360152
H       -2.34742122      -0.42376876      -0.94661195
H       -2.18789494       0.14035695       0.79796635
H       -0.55487882      -1.77594191      -0.59641500
13
Frame=9 idx=007962 GeodesicLength=0.5736036682341554 rxn_smarts="[N:1](=[C:2]1\[O:3][C:4]([H:9])([H:10])[C@@:5]12[C:6]([H:11])([H:12])[N:7]2[H:13])\[H:8]>>[N:1](=[C:2]1\[O:3][C:4]([H:9])([H:10])[C-:5]2[C:6]([H:11])([H:12])[N+:7]12[H:13])\[H:8]"
N        1.80961045      -1.28953865      -0.81519441
C        1.07443049      -0.49033011      -0.18767082
O        1.42943171       0.46797100       0.69896558
C        0.27908703       1.33940216       0.55650539
C       -0.43322814       0.49087192      -0.45668992
C       -1.70442295      -0.12698179      -0.12626411
N       -0.56590046      -1.02531965       0.06191739
H        2.79521080      -1.10258039      -0.66680914
H       -0.15391787       1.50291538       1.54502012
H        0.58870857       2.29631572       0.13514542
H       -2.36225047      -0.40841523      -0.94213525
H       -2.18825478       0.12372404       0.81400132
H       -0.56850439      -1.77803440      -0.61679156
13
Frame=10 idx=007962 GeodesicLength=0.6370081415609421 rxn_smarts="[N:1](=[C:2]1\[O:3][C:4]([H:9])([H:10])[C@@:5]12[C:6]([H:11])([H:12])[N:7]2[H:13])\[H:8]>>[N:1](=[C:2]1\[O:3][C:4]([H:9])([H:10])[C-:5]2[C:6]([H:11])([H:12])[N+:7]12[H:13])\[H:8]"
N        1.82595943      -1.28168890      -0.81325965
C        1.08185103      -0.49308246      -0.18287936
O        1.42663162       0.46185365       0.71053373
C        0.27968664       1.33916717       0.55267015
C       -0.43779233       0.47917754      -0.44555997
C       -1.71448122      -0.12850495      -0.11939921
N       -0.57410528      -1.02725598       0.04019353
H        2.80996554      -1.09477305      -0.65368590
H       -0.14671392       1.52454083       1.53967162
H        0.59672786       2.28685551       0.11649967
H       -2.37694685      -0.39262942      -0.93717253
H       -2.18822036       0.10621239       0.83005904
H       -0.58256216      -1.77987233      -0.63767111
13
Frame=11 idx=007962 GeodesicLength=0.7003714455128218 rxn_smarts="[N:1](=[C:2]1\[O:3][C:4]([H:9])([H:10])[C@@:5]12[C:6]([H:11])([H:12])[N:7]2[H:13])\[H:8]>>[N:1](=[C:2]1\[O:3][C:4]([H:9])([H:10])[C-:5]2[C:6]([H:11])([H:12])[N+:7]12[H:13])\[H:8]"
N        1.84231595      -1.27352962      -0.81108039
C        1.08910026      -0.49599307      -0.17776995
O        1.42354573       0.45564293       0.72225750
C        0.28029787       1.33890972       0.54867638
C       -0.44236375       0.46755567      -0.43433211
C       -1.72432861      -0.13023221      -0.11230771
N       -0.58239800      -1.02907896       0.01810991
H        2.82459370      -1.08669297      -0.64024894
H       -0.13929266       1.54650922       1.53365311
H        0.60492972       2.27692658       0.09768073
H       -2.39152672      -0.37642620      -0.93171040
H       -2.18781882       0.08784017       0.84612068
H       -0.59705467      -1.78143127      -0.65904882
13
Frame=12 idx=007962 GeodesicLength=0.7636578397431488 rxn_smarts="[N:1](=[C:2]1\[O:3][C:4]([H:9])([H:10])[C@@:5]12[C:6]([H:11])([H:12])[N:7]2[H:13])\[H:8]>>[N:1](=[C:2]1\[O:3][C:4]([H:9])([H:10])[C-:5]2[C:6]([H:11])([H:12])[N+:7]12[H:13])\[H:8]"
N        1.85864598      -1.26509968      -0.80856445
C        1.09616434      -0.49909594      -0.17228822
O        1.42016444       0.44935130       0.73412831
C        0.28093110       1.33861043       0.54452148
C       -0.44691532       0.45599068      -0.42299313
C       -1.73394595      -0.13217219      -0.10500969
N       -0.59079455      -1.03075047      -0.00432568
H        2.83906127      -1.07822839      -0.62661507
H       -0.13164001       1.56875741       1.52692173
H        0.61331732       2.26650639       0.07871461
H       -2.40592953      -0.35981035      -0.92573456
H       -2.18705324       0.06862249       0.86211614
H       -0.61200586      -1.78268167      -0.68087147
13
Frame=13 idx=007962 GeodesicLength=0.8269058143640611 rxn_smarts="[N:1](=[C:2]1\[O:3][C:4]([H:9])([H:10])[C@@:5]12[C:6]([H:11])([H:12])[N:7]2[H:13])\[H:8]>>[N:1](=[C:2]1\[O:3][C:4]([H:9])([H:10])[C-:5]2[C:6]([H:11])([H:12])[N+:7]12[H:13])\[H:8]"
N        1.87498633      -1.25636111      -0.80571140
C        1.10304688      -0.50239135      -0.16644337
O        1.41647600       0.44298954       0.74613070
C        0.28157767       1.33828900       0.54016631
C       -0.45148054       0.44448988      -0.41156205
C       -1.74335001      -0.13435010      -0.09744484
N       -0.59928399      -1.03223793      -0.02722007
H        2.85339857      -1.06948046      -0.61256520
H       -0.12372319       1.59132348       1.51943633
H        0.62188393       2.25558076       0.05953395
H       -2.42025180      -0.34273963      -0.91912262
H       -2.18586314       0.04842016       0.87812769
H       -0.62741670      -1.78353223      -0.70332544
13
Frame=14 idx=007962 GeodesicLength=0.8901403252949767 rxn_smarts="[N:1](=[C:2]1\[O:3][C:4]([H:9])([H:10])[C@@:5]12[C:6]([H:11])([H:12])[N:7]2[H:13])\[H:8]>>[N:1](=[C:2]1\[O:3][C:4]([H:9])([H:10])[C-:5]2[C:6]([H:11])([H:12])[N+:7]12[H:13])\[H:8]"
N        1.89135024      -1.24727342      -0.80251637
C        1.10974430      -0.50587106      -0.16024744
O        1.41246836       0.43658560       0.75826238
C        0.28222364       1.33796601       0.53557101
C       -0.45607546       0.43305817      -0.40004343
C       -1.75252542      -0.13680427      -0.08955698
N       -0.60786554      -1.03350551      -0.05068950
H        2.86760020      -1.06057526      -0.59788857
H       -0.11554606       1.61422659       1.51113772
H        0.63060946       2.24414990       0.04007117
H       -2.43453714      -0.32518776      -0.91171679
H       -2.18414104       0.02710220       0.89421684
H       -0.64330555      -1.78387119      -0.72660003
13
Frame=15 idx=007962 GeodesicLength=0.9533790501304653 rxn_smarts="[N:1](=[C:2]1\[O:3][C:4]([H:9])([H:10])[C@@:5]12[C:6]([H:11])([H:12])[N:7]2[H:13])\[H:8]>>[N:1](=[C:2]1\[O:3][C:4]([H:9])([H:10])[C-:5]2[C:6]([H:11])([H:12])[N+:7]12[H:13])\[H:8]"
N        1.90774626      -1.23779560      -0.79891325
C        1.11624074      -0.50953234      -0.15367384
O        1.40809605       0.43016707       0.77052637
C        0.28287897       1.33763287       0.53068250
C       -0.46071971       0.42169033      -0.38844384
C       -1.76147439      -0.13956962      -0.08129237
N       -0.61654086      -1.03450238      -0.07484327
H        2.88166163      -1.05153721      -0.58242989
H       -0.10707134       1.63747294       1.50190447
H        0.63952434       2.23213674       0.02027795
H       -2.44885338      -0.30711530      -0.90337333
H       -2.18180639       0.00452603       0.91044336
H       -0.65968191      -1.78357354      -0.75086484
13
Frame=16 idx=007962 GeodesicLength=1.0165932149312797 rxn_smarts="[N:1](=[C:2]1\[O:3][C:4]([H:9])([H:10])[C@@:5]12[C:6]([H:11])([H:12])[N:7]2[H:13])\[H:8]>>[N:1](=[C:2]1\[O:3][C:4]([H:9])([H:10])[C-:5]2[C:6]([H:11])([H:12])[N+:7]12[H:13])\[H:8]"
N        1.92413403      -1.22806881      -0.79477173
C        1.12253570      -0.51343921      -0.14665864
O        1.40340252       0.42374958       0.78288286
C        0.28354328       1.33729133       0.52552222
C       -0.46537948       0.41038681      -0.37676488
C       -1.77018367      -0.14265270      -0.07269854
N       -0.62531800      -1.03514748      -0.09963385
H        2.89555671      -1.04224020      -0.56642549
H       -0.09829577       1.66098659       1.49177767
H        0.64858947       2.21958582       0.00020858
H       -2.46312022      -0.28856407      -0.89411849
H       -2.17890758      -0.01926360       0.92666493
H       -0.67655699      -1.78262406      -0.77598463
