11
Frame=0 idx=011748 GeodesicLength=0.0 rxn_smarts="[C:1](#[C:2][c:3]1[c:4]([H:9])[c:5]([H:10])[n:6][n:7]1[H:11])[H:8]>>[C+:1](=[C:2]=[C:3]1[C:4]([H:9])=[C-:5][N:6]([H:10])[N:7]1[H:11])[H:8]"
C        2.77670139      -0.21542602      -0.02116587
C        1.58096496      -0.15844072      -0.02415207
C        0.16005990      -0.09974075      -0.01898075
C       -0.77982746      -1.07070718       0.22057319
C       -2.06559016      -0.50665256      -0.02234038
N       -1.83487565       0.82324810      -0.35615779
N       -0.49664149       1.05131101      -0.28743575
H        3.84014040      -0.27295328      -0.01820827
H       -0.56798131      -2.08828774       0.50459781
H       -2.51053951       0.60791863       0.60044705
H       -0.10241110       1.92973049      -0.57717716
11
Frame=1 idx=011748 GeodesicLength=0.03430534916688698 rxn_smarts="[C:1](#[C:2][c:3]1[c:4]([H:9])[c:5]([H:10])[n:6][n:7]1[H:11])[H:8]>>[C+:1](=[C:2]=[C:3]1[C:4]([H:9])=[C-:5][N:6]([H:10])[N:7]1[H:11])[H:8]"
C        2.77898134      -0.21516686      -0.01675205
C        1.58325766      -0.15697090      -0.01898131
C        0.16244252      -0.09941826      -0.01764640
C       -0.77833096      -1.06978872       0.22208523
C       -2.06209260      -0.50521349      -0.02725328
N       -1.83168766       0.82087745      -0.35823238
N       -0.49511848       1.05265046      -0.28118012
H        3.84213102      -0.27738950      -0.03338149
H       -0.56800659      -2.08638342       0.51059033
H       -2.53024752       0.60612621       0.59333670
H       -0.10132873       1.93067701      -0.57258526
11
Frame=2 idx=011748 GeodesicLength=0.06862170910223175 rxn_smarts="[C:1](#[C:2][c:3]1[c:4]([H:9])[c:5]([H:10])[n:6][n:7]1[H:11])[H:8]>>[C+:1](=[C:2]=[C:3]1[C:4]([H:9])=[C-:5][N:6]([H:10])[N:7]1[H:11])[H:8]"
C        2.78132591      -0.21596812      -0.01843424
C        1.58573770      -0.15453175      -0.01072499
C        0.16501372      -0.09844202      -0.01406033
C       -0.77657980      -1.06860270       0.22455927
C       -2.05815718      -0.50418173      -0.03342604
N       -1.82814868       0.81816807      -0.36145493
N       -0.49356337       1.05427849      -0.27381971
H        3.84379650      -0.28255020      -0.04831452
H       -0.56779471      -2.08400557       0.51818829
H       -2.55147382       0.60357122       0.58322926
H       -0.10015627       1.93226431      -0.56574206
11
Frame=3 idx=011748 GeodesicLength=0.10296892809361033 rxn_smarts="[C:1](#[C:2][c:3]1[c:4]([H:9])[c:5]([H:10])[n:6][n:7]1[H:11])[H:8]>>[C+:1](=[C:2]=[C:3]1[C:4]([H:9])=[C-:5][N:6]([H:10])[N:7]1[H:11])[H:8]"
C        2.78369517      -0.21702573      -0.02204790
C        1.58849347      -0.15110071       0.00150807
C        0.16785603      -0.09640754      -0.00614510
C       -0.77456072      -1.06704948       0.22853739
C       -2.05347811      -0.50388436      -0.04240127
N       -1.82386082       0.81486454      -0.36701325
N       -0.49187644       1.05637413      -0.26437624
H        3.84512930      -0.28947216      -0.06937852
H       -0.56751992      -2.08084973       0.52872080
H       -2.57524966       0.59971468       0.56754889
H       -0.09862829       1.93483636      -0.55495286
11
Frame=4 idx=011748 GeodesicLength=0.13735646360199386 rxn_smarts="[C:1](#[C:2][c:3]1[c:4]([H:9])[c:5]([H:10])[n:6][n:7]1[H:11])[H:8]>>[C+:1](=[C:2]=[C:3]1[C:4]([H:9])=[C-:5][N:6]([H:10])[N:7]1[H:11])[H:8]"
C        2.78598142      -0.21837273      -0.02770399
C        1.59151889      -0.14745279       0.01466942
C        0.17097812      -0.09326500       0.00645762
C       -0.77225328      -1.06510431       0.23417767
C       -2.04786379      -0.50431463      -0.05418843
N       -1.81862810       0.81099700      -0.37481089
N       -0.49005445       1.05898264      -0.25253092
H        3.84579068      -0.29773016      -0.09529710
H       -0.56727871      -2.07671822       0.54288742
H       -2.60142516       0.59443392       0.54591112
H       -0.09676561       1.93854428      -0.53957192
11
Frame=5 idx=011748 GeodesicLength=0.17171719060310725 rxn_smarts="[C:1](#[C:2][c:3]1[c:4]([H:9])[c:5]([H:10])[n:6][n:7]1[H:11])[H:8]>>[C+:1](=[C:2]=[C:3]1[C:4]([H:9])=[C-:5][N:6]([H:10])[N:7]1[H:11])[H:8]"
C        2.78820132      -0.21869665      -0.03086755
C        1.59439531      -0.14430071       0.02416594
C        0.17394157      -0.09117757       0.01391271
C       -0.76998979      -1.06339197       0.23853045
C       -2.04279081      -0.50387472      -0.06210224
N       -1.81410830       0.80783330      -0.37962288
N       -0.48849204       1.06112446      -0.24298686
H        3.84621637      -0.30547667      -0.11509339
H       -0.56675980      -2.07342208       0.55337623
H       -2.62509032       0.59009930       0.52919834
H       -0.09552351       1.94128332      -0.52851075
11
Frame=6 idx=011748 GeodesicLength=0.20605945470744166 rxn_smarts="[C:1](#[C:2][c:3]1[c:4]([H:9])[c:5]([H:10])[n:6][n:7]1[H:11])[H:8]>>[C+:1](=[C:2]=[C:3]1[C:4]([H:9])=[C-:5][N:6]([H:10])[N:7]1[H:11])[H:8]"
C        2.79045060      -0.21901091      -0.03264939
C        1.59709168      -0.14220833       0.02972641
C        0.17674202      -0.09021752       0.01686415
C       -0.76796685      -1.06198439       0.24158131
C       -2.03841856      -0.50256035      -0.06681452
N       -1.81021727       0.80541050      -0.38182907
N       -0.48699275       1.06277682      -0.23533507
H        3.84696989      -0.31128152      -0.12880548
H       -0.56634530      -2.07077062       0.56127206
H       -2.64680612       0.58671974       0.51681224
H       -0.09450734       1.94312659      -0.52082264
11
Frame=7 idx=011748 GeodesicLength=0.24040038039135841 rxn_smarts="[C:1](#[C:2][c:3]1[c:4]([H:9])[c:5]([H:10])[n:6][n:7]1[H:11])[H:8]>>[C+:1](=[C:2]=[C:3]1[C:4]([H:9])=[C-:5][N:6]([H:10])[N:7]1[H:11])[H:8]"
C        2.79276310      -0.21935114      -0.03398142
C        1.59969223      -0.14076376       0.03272283
C        0.17946216      -0.08992681       0.01700339
C       -0.76606212      -1.06075672       0.24378364
C       -2.03448826      -0.50071578      -0.06961074
N       -1.80673020       0.80346691      -0.38240909
N       -0.48552054       1.06415648      -0.22873229
H        3.84806667      -0.31601817      -0.13859323
H       -0.56596495      -2.06838220       0.56792326
H       -2.66758697       0.58377759       0.50680554
H       -0.09363112       1.94451361      -0.51491189
11
Frame=8 idx=011748 GeodesicLength=0.2747490469908482 rxn_smarts="[C:1](#[C:2][c:3]1[c:4]([H:9])[c:5]([H:10])[n:6][n:7]1[H:11])[H:8]>>[C+:1](=[C:2]=[C:3]1[C:4]([H:9])=[C-:5][N:6]([H:10])[N:7]1[H:11])[H:8]"
C        2.79513283      -0.21980188      -0.03535678
C        1.60223668      -0.13981990       0.03380857
C        0.18213878      -0.09010453       0.01516555
C       -0.76422594      -1.05966665       0.24531462
C       -2.03085565      -0.49851098      -0.07120543
N       -1.80349857       0.80188287      -0.38186877
N       -0.48403704       1.06536390      -0.22270238
H        3.84951499      -0.31999789      -0.14560733
H       -0.56563677      -2.06601136       0.57418765
H       -2.68794818       0.58099134       0.49811077
H       -0.09282114       1.94567510      -0.50984648
11
Frame=9 idx=011748 GeodesicLength=0.30911735210290864 rxn_smarts="[C:1](#[C:2][c:3]1[c:4]([H:9])[c:5]([H:10])[n:6][n:7]1[H:11])[H:8]>>[C+:1](=[C:2]=[C:3]1[C:4]([H:9])=[C-:5][N:6]([H:10])[N:7]1[H:11])[H:8]"
C        2.79753204      -0.22058643      -0.03756900
C        1.60478407      -0.13931644       0.03355663
C        0.18482359      -0.09044141       0.01282951
C       -0.76242168      -1.05861753       0.24665768
C       -2.02727730      -0.49617039      -0.07255888
N       -1.80024260       0.80048261      -0.38094231
N       -0.48248395       1.06653874      -0.21649097
H        3.85125936      -0.32342487      -0.15140384
H       -0.56544391      -2.06336595       0.58119295
H       -2.70859533       0.57799024       0.48898737
H       -0.09193429       1.94691142      -0.50425914
11
Frame=10 idx=011748 GeodesicLength=0.3435138401126794 rxn_smarts="[C:1](#[C:2][c:3]1[c:4]([H:9])[c:5]([H:10])[n:6][n:7]1[H:11])[H:8]>>[C+:1](=[C:2]=[C:3]1[C:4]([H:9])=[C-:5][N:6]([H:10])[N:7]1[H:11])[H:8]"
C        2.79998861      -0.22140034      -0.04092645
C        1.60740245      -0.13893112       0.03235918
C        0.18757434      -0.09063068       0.01083560
C       -0.76051290      -1.05754101       0.24798448
C       -2.02354037      -0.49390425      -0.07429918
N       -1.79685040       0.79912475      -0.38004444
N       -0.48091978       1.06783378      -0.20962119
H        3.85314165      -0.32728333      -0.15707111
H       -0.56526055      -2.06014857       0.58973751
H       -2.72996529       0.57435840       0.47830741
H       -0.09105777       1.94852236      -0.49726182
11
Frame=11 idx=011748 GeodesicLength=0.37794771927927817 rxn_smarts="[C:1](#[C:2][c:3]1[c:4]([H:9])[c:5]([H:10])[n:6][n:7]1[H:11])[H:8]>>[C+:1](=[C:2]=[C:3]1[C:4]([H:9])=[C-:5][N:6]([H:10])[N:7]1[H:11])[H:8]"
C        2.80249456      -0.22206969      -0.04594662
C        1.61014591      -0.13841906       0.03060142
C        0.19043935      -0.09045871       0.00981343
C       -0.75840534      -1.05640908       0.24936807
C       -2.01948513      -0.49186019      -0.07690059
N       -1.79322859       0.79771984      -0.37944825
N       -0.47938864       1.06935502      -0.20170973
H        3.85505360      -0.33223888      -0.16328517
H       -0.56503992      -2.05609395       0.60049228
H       -2.75234117       0.56975625       0.46517399
H       -0.09024462       1.95071845      -0.48815882
11
Frame=12 idx=011748 GeodesicLength=0.41242270053193975 rxn_smarts="[C:1](#[C:2][c:3]1[c:4]([H:9])[c:5]([H:10])[n:6][n:7]1[H:11])[H:8]>>[C+:1](=[C:2]=[C:3]1[C:4]([H:9])=[C-:5][N:6]([H:10])[N:7]1[H:11])[H:8]"
C        2.80503603      -0.22231868      -0.05294787
C        1.61308151      -0.13742912       0.02898843
C        0.19348282      -0.08966262       0.01060138
C       -0.75599077      -1.05513042       0.25116237
C       -2.01491193      -0.49019279      -0.08075265
N       -1.78925384       0.79613247      -0.37950144
N       -0.47795002       1.07121109      -0.19236168
H        3.85676336      -0.33911530      -0.17113249
H       -0.56468923      -2.05104846       0.61379996
H       -2.77600040       0.56387987       0.44848887
H       -0.08956753       1.95367397      -0.47634489
11
Frame=13 idx=011748 GeodesicLength=0.44695985560830964 rxn_smarts="[C:1](#[C:2][c:3]1[c:4]([H:9])[c:5]([H:10])[n:6][n:7]1[H:11])[H:8]>>[C+:1](=[C:2]=[C:3]1[C:4]([H:9])=[C-:5][N:6]([H:10])[N:7]1[H:11])[H:8]"
C        2.80753809      -0.22214943      -0.06259118
C        1.61628551      -0.13574754       0.02832093
C        0.19678750      -0.08796045       0.01452082
C       -0.75320520      -1.05361442       0.25387062
C       -2.00954125      -0.48908417      -0.08652524
N       -1.78465485       0.79421645      -0.38071950
N       -0.47661454       1.07352120      -0.18092259
H        3.85800429      -0.34834160      -0.18213773
H       -0.56431967      -2.04477274       0.63042587
H       -2.80129636       0.55633535       0.42653267
H       -0.08898352       1.95759735      -0.46077465
11
Frame=14 idx=011748 GeodesicLength=0.48154701022609037 rxn_smarts="[C:1](#[C:2][c:3]1[c:4]([H:9])[c:5]([H:10])[n:6][n:7]1[H:11])[H:8]>>[C+:1](=[C:2]=[C:3]1[C:4]([H:9])=[C-:5][N:6]([H:10])[N:7]1[H:11])[H:8]"
C        2.80992217      -0.22162942      -0.07486774
C        1.61962957      -0.13368725       0.02724912
C        0.20024485      -0.08580696       0.01962742
C       -0.75013766      -1.05199389       0.25691025
C       -2.00372885      -0.48818262      -0.09284772
N       -1.77979432       0.79224897      -0.38202122
N       -0.47541287       1.07605851      -0.16835002
H        3.85909832      -0.35911884      -0.19310446
H       -0.56390116      -2.03760043       0.64893099
H       -2.82728337       0.54765654       0.40161813
H       -0.08863668       1.96205538      -0.44314474
11
Frame=15 idx=011748 GeodesicLength=0.5161612152304166 rxn_smarts="[C:1](#[C:2][c:3]1[c:4]([H:9])[c:5]([H:10])[n:6][n:7]1[H:11])[H:8]>>[C+:1](=[C:2]=[C:3]1[C:4]([H:9])=[C-:5][N:6]([H:10])[N:7]1[H:11])[H:8]"
C        2.81209865      -0.22135341      -0.08928822
C        1.62297894      -0.13178709       0.02509546
C        0.20373889      -0.08368509       0.02463676
C       -0.74702311      -1.05036050       0.26011750
C       -1.99787411      -0.48711165      -0.09850523
N       -1.77488937       0.79046188      -0.38267019
N       -0.47421992       1.07855296      -0.15548867
H        3.86036860      -0.36971439      -0.20212911
H       -0.56356702      -2.03011337       0.66771981
H       -2.85325979       0.53860002       0.37556785
H       -0.08835177       1.96651063      -0.42505596
11
Frame=16 idx=011748 GeodesicLength=0.5507769355482721 rxn_smarts="[C:1](#[C:2][c:3]1[c:4]([H:9])[c:5]([H:10])[n:6][n:7]1[H:11])[H:8]>>[C+:1](=[C:2]=[C:3]1[C:4]([H:9])=[C-:5][N:6]([H:10])[N:7]1[H:11])[H:8]"
C        2.81404123      -0.22184380      -0.10535015
C        1.62620463      -0.13054000       0.02105101
C        0.20715450      -0.08204790       0.02811298
C       -0.74405926      -1.04884961       0.26302804
C       -1.99240273      -0.48553588      -0.10249105
N       -1.77022140       0.78910522      -0.38191537
N       -0.47291208       1.08077688      -0.14315049
H        3.86219120      -0.37864400      -0.20721749
H       -0.56336556      -2.02274190       0.68555781
H       -2.87866507       0.52980315       0.35036021
H       -0.08796547       1.97051786      -0.40798549
