15
Frame=0 idx=008157 GeodesicLength=0.0 rxn_smarts="[O:1]([C@@:2]12[C:3]([H:9])([H:10])[C@@:4]3([H:11])[C:5]([H:12])([H:13])[C@:6]1([H:14])[C@@:7]23[H:15])[H:8]>>[O:1]([C@@:2]12[C:3]([H:9])([H:10])[C:4][C:5]([H:12])([H:13])[C@:6]1([H:14])[C:7]2([H:11])[H:15])[H:8]"
O        2.05696842       0.83019877      -0.48469338
C        0.85548926       0.19945871      -0.21867778
C        0.66985242      -1.17759298       0.33827943
C       -0.85219205      -1.19127916       0.05257368
C       -1.35646160       0.08152347       0.78620423
C       -0.41405580       1.00195075       0.07428692
C       -0.24489915       0.24202694      -1.21217331
H        2.38690828       1.22239602       0.32682589
H        0.87427873      -1.30495252       1.40499269
H        1.20813611      -1.93806261      -0.22777128
H       -0.94709205      -0.88779375      -1.16985001
H       -2.40860766       0.28328214       0.58129770
H       -1.21802478      -0.00763131       1.86721604
H       -0.35944856       2.08389919       0.12661027
H       -0.25085164       0.56257634      -2.24512115
15
Frame=1 idx=008157 GeodesicLength=0.05426349450352295 rxn_smarts="[O:1]([C@@:2]12[C:3]([H:9])([H:10])[C@@:4]3([H:11])[C:5]([H:12])([H:13])[C@:6]1([H:14])[C@@:7]23[H:15])[H:8]>>[O:1]([C@@:2]12[C:3]([H:9])([H:10])[C:4][C:5]([H:12])([H:13])[C@:6]1([H:14])[C:7]2([H:11])[H:15])[H:8]"
O        2.05747390       0.82984740      -0.48458828
C        0.85480821       0.20065880      -0.22091200
C        0.67051413      -1.17660228       0.33948980
C       -0.85028045      -1.19064345       0.05958659
C       -1.35574170       0.08165795       0.78820598
C       -0.41427993       1.00218220       0.07255929
C       -0.24666717       0.24053976      -1.21393733
H        2.38786925       1.21787960       0.32875829
H        0.88101938      -1.30338622       1.40528792
H        1.20609303      -1.93874180      -0.22710536
H       -0.95474640      -0.89688640      -1.18089058
H       -2.40827559       0.28022602       0.58141672
H       -1.22102334      -0.00362059       1.87013766
H       -0.36150292       2.08396343       0.12500267
H       -0.24526041       0.57292560      -2.24301138
15
Frame=2 idx=008157 GeodesicLength=0.10852695953612793 rxn_smarts="[O:1]([C@@:2]12[C:3]([H:9])([H:10])[C@@:4]3([H:11])[C:5]([H:12])([H:13])[C@:6]1([H:14])[C@@:7]23[H:15])[H:8]>>[O:1]([C@@:2]12[C:3]([H:9])([H:10])[C:4][C:5]([H:12])([H:13])[C@:6]1([H:14])[C:7]2([H:11])[H:15])[H:8]"
O        2.05798773       0.82950149      -0.48446643
C        0.85413755       0.20186769      -0.22313502
C        0.67119002      -1.17560008       0.34070416
C       -0.84834030      -1.18997119       0.06662690
C       -1.35501241       0.08181798       0.79021675
C       -0.41449057       1.00242366       0.07084278
C       -0.24842362       0.23906232      -1.21569821
H        2.38882454       1.21336644       0.33068841
H        0.88778435      -1.30182735       1.40554738
H        1.20403528      -1.93941172      -0.22644199
H       -0.96244126      -0.90602332      -1.19211779
H       -2.40792186       0.27716966       0.58152074
H       -1.22405839       0.00041553       1.87304682
H       -0.36354509       2.08403484       0.12341074
H       -0.23972598       0.58317405      -2.24074523
15
Frame=3 idx=008157 GeodesicLength=0.16279034843441248 rxn_smarts="[O:1]([C@@:2]12[C:3]([H:9])([H:10])[C@@:4]3([H:11])[C:5]([H:12])([H:13])[C@:6]1([H:14])[C@@:7]23[H:15])[H:8]>>[O:1]([C@@:2]12[C:3]([H:9])([H:10])[C:4][C:5]([H:12])([H:13])[C@:6]1([H:14])[C:7]2([H:11])[H:15])[H:8]"
O        2.05850993       0.82916133      -0.48432748
C        0.85347759       0.20308571      -0.22534497
C        0.67188078      -1.17458633       0.34192344
C       -0.84637076      -1.18926208       0.07369916
C       -1.35427390       0.08200424       0.79223806
C       -0.41468734       1.00267551       0.06913951
C       -0.25016793       0.23759579      -1.21745374
H        2.38977499       1.20885728       0.33261619
H        0.89457538      -1.30027643       1.40577151
H        1.20196197      -1.94007228      -0.22578136
H       -0.97017789      -0.91520244      -1.20354512
H       -2.40754631       0.27411256       0.58161011
H       -1.22713083       0.00447840       1.87594480
H       -0.36557470       2.08411383       0.12183639
H       -0.23425100       0.59331490      -2.23832650
15
Frame=4 idx=008157 GeodesicLength=0.21705461282786026 rxn_smarts="[O:1]([C@@:2]12[C:3]([H:9])([H:10])[C@@:4]3([H:11])[C:5]([H:12])([H:13])[C@:6]1([H:14])[C@@:7]23[H:15])[H:8]>>[O:1]([C@@:2]12[C:3]([H:9])([H:10])[C:4][C:5]([H:12])([H:13])[C@:6]1([H:14])[C:7]2([H:11])[H:15])[H:8]"
O        2.05904057       0.82882733      -0.48417126
C        0.85282867       0.20431320      -0.22753992
C        0.67258707      -1.17356125       0.34314882
C       -0.84437101      -1.18851608       0.08080816
C       -1.35352640       0.08221738       0.79427166
C       -0.41486983       1.00293822       0.06745158
C       -0.25189967       0.23614111      -1.21920184
H        2.39072150       1.20435322       0.33454148
H        0.90139417      -1.29873417       1.40596115
H        1.19987214      -1.94072372      -0.22512341
H       -0.97795754      -0.92442179      -1.21518703
H       -2.40714877       0.27105416       0.58168532
H       -1.23024158       0.00856937       1.87883327
H       -0.36759120       2.08420105       0.12028150
H       -0.22883812       0.60334197      -2.23575950
15
Frame=5 idx=008157 GeodesicLength=0.27131682347364017 rxn_smarts="[O:1]([C@@:2]12[C:3]([H:9])([H:10])[C@@:4]3([H:11])[C:5]([H:12])([H:13])[C@:6]1([H:14])[C@@:7]23[H:15])[H:8]>>[O:1]([C@@:2]12[C:3]([H:9])([H:10])[C:4][C:5]([H:12])([H:13])[C@:6]1([H:14])[C:7]2([H:11])[H:15])[H:8]"
O        2.05957948       0.82849900      -0.48399731
C        0.85219101       0.20555026      -0.22971766
C        0.67330961      -1.17252442       0.34438110
C       -0.84234002      -1.18773223       0.08795866
C       -1.35277011       0.08245813       0.79631911
C       -0.41503781       1.00321171       0.06578141
C       -0.25361832       0.23469935      -1.22093931
H        2.39166441       1.19985489       0.33646357
H        0.90824262      -1.29720053       1.40611602
H        1.19776493      -1.94136527      -0.22446830
H       -0.98578132      -0.93367785      -1.22705802
H       -2.40672901       0.26799395       0.58174701
H       -1.23339153       0.01269000       1.88171295
H       -0.36959454       2.08429595       0.11874813
H       -0.22348940       0.61324706      -2.23304738
15
Frame=6 idx=008157 GeodesicLength=0.3255810458088546 rxn_smarts="[O:1]([C@@:2]12[C:3]([H:9])([H:10])[C@@:4]3([H:11])[C:5]([H:12])([H:13])[C@:6]1([H:14])[C@@:7]23[H:15])[H:8]>>[O:1]([C@@:2]12[C:3]([H:9])([H:10])[C:4][C:5]([H:12])([H:13])[C@:6]1([H:14])[C:7]2([H:11])[H:15])[H:8]"
O        2.06012473       0.82817968      -0.48380614
C        0.85156402       0.20679760      -0.23187787
C        0.67404949      -1.17147511       0.34562261
C       -0.84027629      -1.18691122       0.09515588
C       -1.35200513       0.08272627       0.79838256
C       -0.41519243       1.00349591       0.06412943
C       -0.25532474       0.23326970      -1.22266558
H        2.39261037       1.19535006       0.33838600
H        0.91512489      -1.29567258       1.40623805
H        1.19564090      -1.94199768      -0.22381184
H       -0.99364982      -0.94297119      -1.23917516
H       -2.40628714       0.26492881       0.58179661
H       -1.23657959       0.01684450       1.88458615
H       -0.37158968       2.08439925       0.11723155
H       -0.21820957       0.62303601      -2.23019226
15
Frame=7 idx=008157 GeodesicLength=0.3798451288883878 rxn_smarts="[O:1]([C@@:2]12[C:3]([H:9])([H:10])[C@@:4]3([H:11])[C:5]([H:12])([H:13])[C@:6]1([H:14])[C@@:7]23[H:15])[H:8]>>[O:1]([C@@:2]12[C:3]([H:9])([H:10])[C:4][C:5]([H:12])([H:13])[C@:6]1([H:14])[C:7]2([H:11])[H:15])[H:8]"
O        2.06067805       0.82786654      -0.48359745
C        0.85094875       0.20805480      -0.23401702
C        0.67480711      -1.17041448       0.34687422
C       -0.83817941      -1.18605228       0.10240551
C       -1.35123175       0.08302332       0.80046400
C       -0.41533192       1.00379145       0.06249939
C       -0.25701781       0.23185343      -1.22437653
H        2.39355457       1.19085280       0.34030411
H        0.92204070      -1.29415423       1.40632758
H        1.19349737      -1.94262101      -0.22315700
H       -1.00156465      -0.95229699      -1.25155449
H       -2.40582264       0.26186026       0.58183435
H       -1.23980862       0.02103200       1.88745437
H       -0.37357099       2.08451118       0.11573930
H       -0.21299874       0.63269321      -2.22720035
15
Frame=8 idx=008157 GeodesicLength=0.4341105748959249 rxn_smarts="[O:1]([C@@:2]12[C:3]([H:9])([H:10])[C@@:4]3([H:11])[C:5]([H:12])([H:13])[C@:6]1([H:14])[C@@:7]23[H:15])[H:8]>>[O:1]([C@@:2]12[C:3]([H:9])([H:10])[C:4][C:5]([H:12])([H:13])[C@:6]1([H:14])[C:7]2([H:11])[H:15])[H:8]"
O        2.06123949       0.82755991      -0.48337137
C        0.85034542       0.20932199      -0.23613312
C        0.67558320      -1.16934284       0.34813777
C       -0.83604853      -1.18515552       0.10971343
C       -1.35045021       0.08334982       0.80256582
C       -0.41545597       1.00409857       0.06089339
C       -0.25869769       0.23045053      -1.22606978
H        2.39449810       1.18636452       0.34221737
H        0.92899228      -1.29264598       1.40638602
H        1.19133303      -1.94323578      -0.22250297
H       -1.00952738      -0.96165258      -1.26421419
H       -2.40533541       0.25878717       0.58186139
H       -1.24307938       0.02525428       1.89031994
H       -0.37553803       2.08463226       0.11427261
H       -0.20785893       0.64221365      -2.22407630
15
Frame=9 idx=008157 GeodesicLength=0.48837399182316926 rxn_smarts="[O:1]([C@@:2]12[C:3]([H:9])([H:10])[C@@:4]3([H:11])[C:5]([H:12])([H:13])[C@:6]1([H:14])[C@@:7]23[H:15])[H:8]>>[O:1]([C@@:2]12[C:3]([H:9])([H:10])[C:4][C:5]([H:12])([H:13])[C@:6]1([H:14])[C:7]2([H:11])[H:15])[H:8]"
O        2.06180790       0.82725833      -0.48312806
C        0.84975398       0.21059859      -0.23822388
C        0.67637913      -1.16826033       0.34941498
C       -0.83388158      -1.18422008       0.11708543
C       -1.34966066       0.08370711       0.80468997
C       -0.41556490       1.00441722       0.05931385
C       -0.26036418       0.22906069      -1.22774186
H        2.39544069       1.18188467       0.34412455
H        0.93598237      -1.29114785       1.40641392
H        1.18914784      -1.94384245      -0.22184871
H       -1.01753704      -0.97103438      -1.27717307
H       -2.40482498       0.25570969       0.58187854
H       -1.24639282       0.02951423       1.89318397
H       -0.37749190       2.08476224       0.11283311
H       -0.20279386       0.65159230      -2.22082273
15
Frame=10 idx=008157 GeodesicLength=0.5426394448811743 rxn_smarts="[O:1]([C@@:2]12[C:3]([H:9])([H:10])[C@@:4]3([H:11])[C:5]([H:12])([H:13])[C@:6]1([H:14])[C@@:7]23[H:15])[H:8]>>[O:1]([C@@:2]12[C:3]([H:9])([H:10])[C:4][C:5]([H:12])([H:13])[C@:6]1([H:14])[C:7]2([H:11])[H:15])[H:8]"
O        2.06238334       0.82696319      -0.48286758
C        0.84917434       0.21188420      -0.24028860
C        0.67719560      -1.16716702       0.35070799
C       -0.83167792      -1.18324654       0.12452893
C       -1.34886256       0.08409467       0.80683963
C       -0.41565847       1.00474634       0.05776120
C       -0.26201817       0.22768187      -1.22939125
H        2.39638174       1.17741577       0.34602599
H        0.94301433      -1.28965909       1.40641241
H        1.18693693      -1.94444274      -0.22119296
H       -1.02559778      -0.98044002      -1.29045079
H       -2.40429061       0.25262443       0.58188840
H       -1.24974829       0.03381562       1.89604928
H       -0.37943187       2.08490003       0.11141931
H       -0.19780062       0.66082929      -2.21744196
15
Frame=11 idx=008157 GeodesicLength=0.5969025863432053 rxn_smarts="[O:1]([C@@:2]12[C:3]([H:9])([H:10])[C@@:4]3([H:11])[C:5]([H:12])([H:13])[C@:6]1([H:14])[C@@:7]23[H:15])[H:8]>>[O:1]([C@@:2]12[C:3]([H:9])([H:10])[C:4][C:5]([H:12])([H:13])[C@:6]1([H:14])[C:7]2([H:11])[H:15])[H:8]"
O        2.06296499       0.82667374      -0.48259470
C        0.84860577       0.21318192      -0.24232225
C        0.67803289      -1.16606013       0.35201989
C       -0.82943623      -1.18223356       0.13205018
C       -1.34805854       0.08451277       0.80901624
C       -0.41573786       1.00508654       0.05624015
C       -0.26365969       0.22631529      -1.23101179
H        2.39733267       1.17294643       0.34791540
H        0.95008713      -1.28817392       1.40638427
H        1.18470358      -1.94502883      -0.22053520
H       -1.03370577      -0.98986574      -1.30406880
H       -2.40373454       0.24952713       0.58189171
H       -1.25315223       0.03815740       1.89891644
H       -0.38135721       2.08504574       0.11003628
H       -0.19288497       0.66991520      -2.21393782
15
Frame=12 idx=008157 GeodesicLength=0.651169851213463 rxn_smarts="[O:1]([C@@:2]12[C:3]([H:9])([H:10])[C@@:4]3([H:11])[C:5]([H:12])([H:13])[C@:6]1([H:14])[C@@:7]23[H:15])[H:8]>>[O:1]([C@@:2]12[C:3]([H:9])([H:10])[C:4][C:5]([H:12])([H:13])[C@:6]1([H:14])[C:7]2([H:11])[H:15])[H:8]"
O        2.06355109       0.82639294      -0.48230449
C        0.84804735       0.21449126      -0.24432483
C        0.67889297      -1.16494173       0.35335088
C       -0.82715492      -1.18118145       0.13965696
C       -1.34724715       0.08496356       0.81122525
C       -0.41580484       1.00543921       0.05475091
C       -0.26529144       0.22495891      -1.23260315
H        2.39829112       1.16847330       0.34980232
H        0.95721024      -1.28669465       1.40632830
H        1.18244717      -1.94560443      -0.21987682
H       -1.04186843      -0.99930600      -1.31805078
H       -2.40315610       0.24641677       0.58189463
H       -1.25660017       0.04254695       1.90179141
H       -0.38327504       2.08520236       0.10867683
H       -0.18804185       0.67884301      -2.21031742
15
Frame=13 idx=008157 GeodesicLength=0.7054411796181745 rxn_smarts="[O:1]([C@@:2]12[C:3]([H:9])([H:10])[C@@:4]3([H:11])[C:5]([H:12])([H:13])[C@:6]1([H:14])[C@@:7]23[H:15])[H:8]>>[O:1]([C@@:2]12[C:3]([H:9])([H:10])[C:4][C:5]([H:12])([H:13])[C@:6]1([H:14])[C:7]2([H:11])[H:15])[H:8]"
O        2.06414101       0.82612045      -0.48199808
C        0.84749881       0.21581135      -0.24629583
C        0.67977668      -1.16381069       0.35470463
C       -0.82483228      -1.18008993       0.14735714
C       -1.34642858       0.08544726       0.81346891
C       -0.41585892       1.00580304       0.05329493
C       -0.26691471       0.22361053      -1.23416244
H        2.39925945       1.16399198       0.35168541
H        0.96438870      -1.28521862       1.40624612
H        1.18016370      -1.94617154      -0.21921232
H       -1.05008226      -1.00875994      -1.33242144
H       -2.40255492       0.24328759       0.58189680
H       -1.26009270       0.04699156       1.90467543
H       -0.38518525       2.08536828       0.10734042
H       -0.18327874       0.68761869      -2.20657969
15
Frame=14 idx=008157 GeodesicLength=0.7597225225172162 rxn_smarts="[O:1]([C@@:2]12[C:3]([H:9])([H:10])[C@@:4]3([H:11])[C:5]([H:12])([H:13])[C@:6]1([H:14])[C@@:7]23[H:15])[H:8]>>[O:1]([C@@:2]12[C:3]([H:9])([H:10])[C:4][C:5]([H:12])([H:13])[C@:6]1([H:14])[C:7]2([H:11])[H:15])[H:8]"
O        2.06473290       0.82585684      -0.48167659
C        0.84695982       0.21714062      -0.24823503
C        0.68068587      -1.16266702       0.35608487
C       -0.82246558      -1.17895907       0.15516074
C       -1.34560255       0.08596483       0.81575030
C       -0.41590016       1.00617673       0.05187305
C       -0.26853141       0.22226600      -1.23568703
H        2.40023894       1.15949762       0.35356417
H        0.97163071      -1.28374199       1.40613928
H        1.17785053      -1.94673265      -0.21853743
H       -1.05834834      -1.01822445      -1.34720804
H       -2.40192972       0.24013815       0.58189875
H       -1.26363251       0.05149557       1.90757106
H       -0.38709010       2.08554222       0.10602544
H       -0.17859840       0.69624660      -2.20272354
15
Frame=15 idx=008157 GeodesicLength=0.8140082486974181 rxn_smarts="[O:1]([C@@:2]12[C:3]([H:9])([H:10])[C@@:4]3([H:11])[C:5]([H:12])([H:13])[C@:6]1([H:14])[C@@:7]23[H:15])[H:8]>>[O:1]([C@@:2]12[C:3]([H:9])([H:10])[C:4][C:5]([H:12])([H:13])[C@:6]1([H:14])[C:7]2([H:11])[H:15])[H:8]"
O        2.06532729       0.82560005      -0.48134104
C        0.84643098       0.21847812      -0.25013876
C        0.68162099      -1.16151179       0.35749462
C       -0.82005395      -1.17778847       0.16307516
C       -1.34476922       0.08651706       0.81807281
C       -0.41592760       1.00656000       0.05048872
C       -0.27014117       0.22092452      -1.23717257
H        2.40122776       1.15500021       0.35543364
H        0.97893561      -1.28226766       1.40601014
H        1.17550609      -1.94728880      -0.21784997
H       -1.06666583      -1.02769165      -1.36243765
H       -2.40127967       0.23696928       0.58190297
H       -1.26721994       0.05605929       1.91048082
H       -0.38898698       2.08572389       0.10473542
H       -0.17400437       0.70471594      -2.19875432
15
Frame=16 idx=008157 GeodesicLength=0.8682966166799237 rxn_smarts="[O:1]([C@@:2]12[C:3]([H:9])([H:10])[C@@:4]3([H:11])[C:5]([H:12])([H:13])[C@:6]1([H:14])[C@@:7]23[H:15])[H:8]>>[O:1]([C@@:2]12[C:3]([H:9])([H:10])[C:4][C:5]([H:12])([H:13])[C@:6]1([H:14])[C:7]2([H:11])[H:15])[H:8]"
O        2.06592415       0.82534755      -0.48099295
C        0.84591256       0.21982246      -0.25200356
C        0.68258269      -1.16034615       0.35893738
C       -0.81759607      -1.17657785       0.17110908
C       -1.34392856       0.08710480       0.82044032
C       -0.41594054       1.00695222       0.04914513
C       -0.27174425       0.21958407      -1.23861440
H        2.40222350       1.15050954       0.35728843
H        0.98630326      -1.28079797       1.40586139
H        1.17312876      -1.94784135      -0.21714697
H       -1.07503429      -1.03715298      -1.37814097
H       -2.40060382       0.23378143       0.58191261
H       -1.27085481       0.06068375       1.91340774
H       -0.39087381       2.08591262       0.10347301
H       -0.16949877       0.71301787      -2.19467625
