14
Frame=0 idx=004172 GeodesicLength=0.0 rxn_smarts="[C:1]1([H:7])([H:8])[C:2]([H:9])([H:10])[O:3][C:4]([H:11])([H:12])[C:5]([H:13])([H:14])[O:6]1>>[C:1]([C:2]([O:3][C:4]([C:5][H:14])([H:11])[H:12])([H:9])[H:10])([O:6][H:13])([H:7])[H:8]"
C       -0.77269104      -1.15810826      -0.14778613
C       -1.26513265       0.27571138      -0.11252120
O       -0.35938011       1.14067131      -0.73661837
C        0.82767263       1.20373584       0.05840971
C        1.65091657      -0.04120439       0.10582681
O        0.58821246      -1.31599225       0.28344345
H       -1.39639340      -1.81199449       0.46486625
H       -0.77030429      -1.51930134      -1.17775126
H       -2.21598009       0.32952527      -0.64605507
H       -1.43972588       0.59546350       0.92669724
H        0.52197131       1.53190799       1.06277946
H        1.46605235       1.98528827      -0.36109909
H        1.06557477      -0.92479924       1.13431137
H        2.09920735      -0.29090360      -0.85450317
14
Frame=1 idx=004172 GeodesicLength=0.05558364593540092 rxn_smarts="[C:1]1([H:7])([H:8])[C:2]([H:9])([H:10])[O:3][C:4]([H:11])([H:12])[C:5]([H:13])([H:14])[O:6]1>>[C:1]([C:2]([O:3][C:4]([C:5][H:14])([H:11])[H:12])([H:9])[H:10])([O:6][H:13])([H:7])[H:8]"
C       -0.76938761      -1.15604719      -0.14981720
C       -1.26680929       0.27591590      -0.11264874
O       -0.36184914       1.14510467      -0.73243081
C        0.82807592       1.20274051       0.05883952
C        1.64331863      -0.04792148       0.10060589
O        0.58621007      -1.31059637       0.29622123
H       -1.39684279      -1.81458941       0.45398346
H       -0.75564155      -1.51281082      -1.18145846
H       -2.21623153       0.32927437      -0.64880068
H       -1.44493000       0.59185487       0.92716731
H        0.52788817       1.53035964       1.06507478
H        1.46781132       1.98203695      -0.36250290
H        1.07964404      -0.91489796       1.15119823
H        2.07874376      -0.30042368      -0.86543161
14
Frame=2 idx=004172 GeodesicLength=0.1111820916636019 rxn_smarts="[C:1]1([H:7])([H:8])[C:2]([H:9])([H:10])[O:3][C:4]([H:11])([H:12])[C:5]([H:13])([H:14])[O:6]1>>[C:1]([C:2]([O:3][C:4]([C:5][H:14])([H:11])[H:12])([H:9])[H:10])([O:6][H:13])([H:7])[H:8]"
C       -0.76618040      -1.15400053      -0.15185752
C       -1.26851788       0.27611425      -0.11282831
O       -0.36429359       1.14948491      -0.72822608
C        0.82846601       1.20170423       0.05928268
C        1.63562696      -0.05462570       0.09568750
O        0.58406527      -1.30515991       0.30866616
H       -1.39715465      -1.81711995       0.44323105
H       -0.74129951      -1.50635698      -1.18502488
H       -2.21648551       0.32907799      -0.65162676
H       -1.45018919       0.58820602       0.92756615
H        0.53378120       1.52886003       1.06731947
H        1.46957350       1.97868346      -0.36395770
H        1.09426051      -0.90500280       1.16756066
H        2.05834727      -0.30986502      -0.87579243
14
Frame=3 idx=004172 GeodesicLength=0.16678941890626534 rxn_smarts="[C:1]1([H:7])([H:8])[C:2]([H:9])([H:10])[O:3][C:4]([H:11])([H:12])[C:5]([H:13])([H:14])[O:6]1>>[C:1]([C:2]([O:3][C:4]([C:5][H:14])([H:11])[H:12])([H:9])[H:10])([O:6][H:13])([H:7])[H:8]"
C       -0.76306978      -1.15196808      -0.15390542
C       -1.27025920       0.27630650      -0.11305875
O       -0.36671367       1.15381291      -0.72400080
C        0.82884290       1.20062732       0.05974129
C        1.62784673      -0.06131669       0.09106083
O        0.58177487      -1.29968241       0.32081280
H       -1.39734907      -1.81959392       0.43259256
H       -0.72725777      -1.49993684      -1.18845708
H       -2.21674006       0.32893616      -0.65453516
H       -1.45550812       0.58451802       0.92789263
H        0.53965275       1.52740466       1.06951800
H        1.47133692       1.97523051      -0.36545822
H        1.10943109      -0.89510469       1.18340779
H        2.03801240      -0.31923345      -0.88561046
14
Frame=4 idx=004172 GeodesicLength=0.22241172710594592 rxn_smarts="[C:1]1([H:7])([H:8])[C:2]([H:9])([H:10])[O:3][C:4]([H:11])([H:12])[C:5]([H:13])([H:14])[O:6]1>>[C:1]([C:2]([O:3][C:4]([C:5][H:14])([H:11])[H:12])([H:9])[H:10])([O:6][H:13])([H:7])[H:8]"
C       -0.76006178      -1.14995138      -0.15596019
C       -1.27203479       0.27649447      -0.11334338
O       -0.36910627       1.15808183      -0.71976270
C        0.82920374       1.19951106       0.06021777
C        1.61998427      -0.06798904       0.08673332
O        0.57934480      -1.29417434       0.33264836
H       -1.39743543      -1.82200176       0.42208810
H       -0.71353964      -1.49356310      -1.19175923
H       -2.21699756       0.32885299      -0.65752862
H       -1.46088885       0.58079713       0.92814236
H        0.54549503       1.52599208       1.07167349
H        1.47309335       1.97168358      -0.36700095
H        1.12516114      -0.88522314       1.19872870
H        2.01778199      -0.32851038      -0.89487704
14
Frame=5 idx=004172 GeodesicLength=0.2780589315355452 rxn_smarts="[C:1]1([H:7])([H:8])[C:2]([H:9])([H:10])[O:3][C:4]([H:11])([H:12])[C:5]([H:13])([H:14])[O:6]1>>[C:1]([C:2]([O:3][C:4]([C:5][H:14])([H:11])[H:12])([H:9])[H:10])([O:6][H:13])([H:7])[H:8]"
C       -0.75715609      -1.14794987      -0.15802090
C       -1.27384548       0.27667812      -0.11368015
O       -0.37147256       1.16229333      -0.71550731
C        0.82954885       1.19835519       0.06071382
C        1.61204236      -0.07464316       0.08269679
O        0.57676880      -1.28863530       0.34420767
H       -1.39743333      -1.82435235       0.41169742
H       -0.70012240      -1.48722780      -1.19493836
H       -2.21725580       0.32882768      -0.66060849
H       -1.46633492       0.57704076       0.92831613
H        0.55131140       1.52461701       1.07378943
H        1.47484175       1.96804199      -0.36858466
H        1.14146078      -0.87534165       1.21353205
H        1.99764664      -0.33770394      -0.90361344
14
Frame=6 idx=004172 GeodesicLength=0.33374040711963593 rxn_smarts="[C:1]1([H:7])([H:8])[C:2]([H:9])([H:10])[O:3][C:4]([H:11])([H:12])[C:5]([H:13])([H:14])[O:6]1>>[C:1]([C:2]([O:3][C:4]([C:5][H:14])([H:11])[H:12])([H:9])[H:10])([O:6][H:13])([H:7])[H:8]"
C       -0.75435312      -1.14596276      -0.16008339
C       -1.27569363       0.27686061      -0.11407333
O       -0.37381263       1.16645179      -0.71123510
C        0.82987680       1.19716047       0.06123309
C        1.60402538      -0.08127920       0.07894209
O        0.57404802      -1.28306968       0.35551942
H       -1.39735878      -1.82664783       0.40141830
H       -0.68698994      -1.48093405      -1.19799852
H       -2.21751376       0.32886285      -0.66378633
H       -1.47185993       0.57325539       0.92840905
H        0.55710163       1.52327100       1.07587512
H        1.47657934       1.96431114      -0.37019938
H        1.15835150      -0.86546311       1.22782574
H        1.97759912      -0.34681662      -0.91184676
14
Frame=7 idx=004172 GeodesicLength=0.3894104218878726 rxn_smarts="[C:1]1([H:7])([H:8])[C:2]([H:9])([H:10])[O:3][C:4]([H:11])([H:12])[C:5]([H:13])([H:14])[O:6]1>>[C:1]([C:2]([O:3][C:4]([C:5][H:14])([H:11])[H:12])([H:9])[H:10])([O:6][H:13])([H:7])[H:8]"
C       -0.75164756      -1.14398981      -0.16214554
C       -1.27757638       0.27703876      -0.11452163
O       -0.37612459       1.17055675      -0.70693440
C        0.83019088       1.19592510       0.06178224
C        1.59594045      -0.08790264       0.07545607
O        0.57117950      -1.27746530       0.36661382
H       -1.39721868      -1.82889133       0.39122962
H       -0.67412411      -1.47468312      -1.20093733
H       -2.21776589       0.32895157      -0.66706198
H       -1.47746410       0.56943690       0.92841531
H        0.56287365       1.52194423       1.07794124
H        1.47830563       1.96049353      -0.37183303
H        1.17580989      -0.85554667       1.24159777
H        1.95762131      -0.35586796      -0.91960215
14
Frame=8 idx=004172 GeodesicLength=0.44514930653562207 rxn_smarts="[C:1]1([H:7])([H:8])[C:2]([H:9])([H:10])[O:3][C:4]([H:11])([H:12])[C:5]([H:13])([H:14])[O:6]1>>[C:1]([C:2]([O:3][C:4]([C:5][H:14])([H:11])[H:12])([H:9])[H:10])([O:6][H:13])([H:7])[H:8]"
C       -0.74905381      -1.14203068      -0.16420726
C       -1.27949856       0.27721532      -0.11502933
O       -0.37840759       1.17459979      -0.70262089
C        0.83048464       1.19464940       0.06235990
C        1.58778332      -0.09450110       0.07225973
O        0.56815966      -1.27183903       0.37746554
H       -1.39702771      -1.83107348       0.38116080
H       -0.66155583      -1.46847988      -1.20376013
H       -2.21801633       0.32909972      -0.67043964
H       -1.48315487       0.56559482       0.92833004
H        0.56861234       1.52063933       1.07997802
H        1.48001585       1.95658566      -0.37348698
H        1.19388886      -0.84563867       1.25483795
H        1.93777001      -0.36482121      -0.92684776
14
Frame=9 idx=004172 GeodesicLength=0.5009440635216709 rxn_smarts="[C:1]1([H:7])([H:8])[C:2]([H:9])([H:10])[O:3][C:4]([H:11])([H:12])[C:5]([H:13])([H:14])[O:6]1>>[C:1]([C:2]([O:3][C:4]([C:5][H:14])([H:11])[H:12])([H:9])[H:10])([O:6][H:13])([H:7])[H:8]"
C       -0.74656922      -1.14008738      -0.16626866
C       -1.28146233       0.27739242      -0.11559253
O       -0.38066535       1.17858666      -0.69828898
C        0.83075735       1.19333579       0.06296767
C        1.57955823      -0.10108082       0.06934993
O        0.56498680      -1.26619856       0.38810979
H       -1.39680062      -1.83320591       0.37118787
H       -0.64926105      -1.46232257      -1.20647642
H       -2.21826611       0.32931192      -0.67391953
H       -1.48893732       0.56172985       0.92815840
H        0.57432065       1.51935972       1.08199456
H        1.48170753       1.95259005      -0.37516456
H        1.21259221      -0.83571716       1.26754521
H        1.91803922      -0.37369403      -0.93360274
14
Frame=10 idx=004172 GeodesicLength=0.5567904639229893 rxn_smarts="[C:1]1([H:7])([H:8])[C:2]([H:9])([H:10])[O:3][C:4]([H:11])([H:12])[C:5]([H:13])([H:14])[O:6]1>>[C:1]([C:2]([O:3][C:4]([C:5][H:14])([H:11])[H:12])([H:9])[H:10])([O:6][H:13])([H:7])[H:8]"
C       -0.74419624      -1.13815850      -0.16832621
C       -1.28347098       0.27757026      -0.11621149
O       -0.38289908       1.18251794      -0.69393403
C        0.83100793       1.19198327       0.06360926
C        1.57126690      -0.10764257       0.06672500
O        0.56165197      -1.26054089       0.39857416
H       -1.39655153      -1.83529216       0.36129811
H       -0.63722489      -1.45620583      -1.20908430
H       -2.21851305       0.32958561      -0.67750926
H       -1.49482089       0.55784209       0.92789751
H        0.58000120       1.51810052       1.08399537
H        1.48337988       1.94850429      -0.37686160
H        1.23193980      -0.82577283       1.27970744
H        1.89842899      -0.38249119      -0.93987995
14
Frame=11 idx=004172 GeodesicLength=0.6125332555503188 rxn_smarts="[C:1]1([H:7])([H:8])[C:2]([H:9])([H:10])[O:3][C:4]([H:11])([H:12])[C:5]([H:13])([H:14])[O:6]1>>[C:1]([C:2]([O:3][C:4]([C:5][H:14])([H:11])[H:12])([H:9])[H:10])([O:6][H:13])([H:7])[H:8]"
C       -0.74191211      -1.13624209      -0.17036331
C       -1.28551551       0.27774781      -0.11689333
O       -0.38510347       1.18640559      -0.68953865
C        0.83124612       1.19058876       0.06429831
C        1.56291830      -0.11418889       0.06433229
O        0.55818709      -1.25482891       0.40888613
H       -1.39626194      -1.83733155       0.35150623
H       -0.62542303      -1.45014418      -1.21157111
H       -2.21873508       0.32990783      -0.68123476
H       -1.50081852       0.55393588       0.92753089
H        0.58567210       1.51683191       1.08600453
H        1.48503729       1.94433648      -0.37855206
H        1.25183057      -0.81580249       1.29134978
H        1.87887818      -0.39121617      -0.94575493
14
Frame=12 idx=004172 GeodesicLength=0.6683354924205196 rxn_smarts="[C:1]1([H:7])([H:8])[C:2]([H:9])([H:10])[O:3][C:4]([H:11])([H:12])[C:5]([H:13])([H:14])[O:6]1>>[C:1]([C:2]([O:3][C:4]([C:5][H:14])([H:11])[H:12])([H:9])[H:10])([O:6][H:13])([H:7])[H:8]"
C       -0.73974416      -1.13434014      -0.17238959
C       -1.28760662       0.27792839      -0.11763814
O       -0.38728103       1.19023460      -0.68512324
C        0.83145816       1.18915593       0.06503013
C        1.55450536      -0.12071458       0.06222838
O        0.55455861      -1.24910682       0.41903030
H       -1.39596849      -1.83932014       0.34180967
H       -0.61388349      -1.44413486      -1.21394965
H       -2.21894933       0.33029280      -0.68508432
H       -1.50692667       0.55001519       0.92706202
H        0.59130810       1.51557495       1.08800904
H        1.48666962       1.94008304      -0.38024538
H        1.27239173      -0.80581085       1.30241684
H        1.85946822      -0.39985749      -0.95115606
14
Frame=13 idx=004172 GeodesicLength=0.72418500908932 rxn_smarts="[C:1]1([H:7])([H:8])[C:2]([H:9])([H:10])[O:3][C:4]([H:11])([H:12])[C:5]([H:13])([H:14])[O:6]1>>[C:1]([C:2]([O:3][C:4]([C:5][H:14])([H:11])[H:12])([H:9])[H:10])([O:6][H:13])([H:7])[H:8]"
C       -0.73769460      -1.13245399      -0.17440174
C       -1.28974392       0.27811278      -0.11844983
O       -0.38942758       1.19400051      -0.68069379
C        0.83164277       1.18768393       0.06580965
C        1.54603121      -0.12721933       0.06041454
O        0.55077254      -1.24338121       0.42899716
H       -1.39567455      -1.84125093       0.33222683
H       -0.60261937      -1.43819034      -1.21621892
H       -2.21915507       0.33074228      -0.68906136
H       -1.51314679       0.54608525       0.92648439
H        0.59690143       1.51432277       1.09001468
H        1.48827432       1.93574887      -0.38192724
H        1.29361372      -0.79579560       1.31289259
H        1.84022591      -0.40840500      -0.95608696
14
Frame=14 idx=004172 GeodesicLength=0.7800679093885609 rxn_smarts="[C:1]1([H:7])([H:8])[C:2]([H:9])([H:10])[O:3][C:4]([H:11])([H:12])[C:5]([H:13])([H:14])[O:6]1>>[C:1]([C:2]([O:3][C:4]([C:5][H:14])([H:11])[H:12])([H:9])[H:10])([O:6][H:13])([H:7])[H:8]"
C       -0.73576602      -1.13058497      -0.17639655
C       -1.29192678       0.27830181      -0.11933228
O       -0.39153925       1.19769904      -0.67625651
C        0.83179828       1.18617243       0.06664160
C        1.53749841      -0.13370171       0.05889240
O        0.54683405      -1.23766024       0.43878091
H       -1.39538651      -1.84311787       0.32277430
H       -0.59164073      -1.43232127      -1.21837897
H       -2.21935069       0.33125747      -0.69316965
H       -1.51948024       0.54215207       0.92579161
H        0.60244405       1.51306956       1.09202678
H        1.48984883       1.93133921      -0.38358357
H        1.31549264      -0.78575588       1.32276133
H        1.82117394      -0.41684965      -0.96055140
14
Frame=15 idx=004172 GeodesicLength=0.835972010678367 rxn_smarts="[C:1]1([H:7])([H:8])[C:2]([H:9])([H:10])[O:3][C:4]([H:11])([H:12])[C:5]([H:13])([H:14])[O:6]1>>[C:1]([C:2]([O:3][C:4]([C:5][H:14])([H:11])[H:12])([H:9])[H:10])([O:6][H:13])([H:7])[H:8]"
C       -0.73396123      -1.12873440      -0.17837116
C       -1.29415456       0.27849635      -0.12028923
O       -0.39361241       1.20132586      -0.67181764
C        0.83192276       1.18462085       0.06753091
C        1.52890924      -0.14016089       0.05766423
O        0.54274670      -1.23195319       0.44837812
H       -1.39511241      -1.84491535       0.31346694
H       -0.58095507      -1.42653757      -1.22043032
H       -2.21953444       0.33183970      -0.69741271
H       -1.52592817       0.53822192       0.92497723
H        0.60792721       1.51180936       1.09405097
H        1.49139071       1.92685920      -0.38519953
H        1.33802906      -0.77568736       1.33200548
H        1.80233261      -0.42518447      -0.96455330
14
Frame=16 idx=004172 GeodesicLength=0.8918853377106235 rxn_smarts="[C:1]1([H:7])([H:8])[C:2]([H:9])([H:10])[O:3][C:4]([H:11])([H:12])[C:5]([H:13])([H:14])[O:6]1>>[C:1]([C:2]([O:3][C:4]([C:5][H:14])([H:11])[H:12])([H:9])[H:10])([O:6][H:13])([H:7])[H:8]"
C       -0.73228324      -1.12690365      -0.18032303
C       -1.29642670       0.27869730      -0.12132422
O       -0.39564368       1.20487685      -0.66738323
C        0.83201419       1.18302836       0.06848278
C        1.52026567      -0.14659672       0.05673287
O        0.53851256      -1.22627006       0.45778778
H       -1.39486169      -1.84663831       0.30431759
H       -0.57056728      -1.42084831      -1.22237371
H       -2.21970455       0.33249018      -0.70179396
H       -1.53249172       0.53430103       0.92403511
H        0.61334186       1.51053626       1.09609308
H        1.49289811       1.92231352      -0.38675976
H        1.36122656      -0.76558238       1.34060571
H        1.78371992      -0.43340408      -0.96809701
