14
Frame=0 idx=007757 GeodesicLength=0.0 rxn_smarts="[C:1]([C:2]1=[C:3]([H:11])/[C:4](=[N:5]/[H:12])[O:6][C:7]1([H:13])[H:14])([H:8])([H:9])[H:10]>>[C:1]([C:2]1=[C:3]([H:11])[C:7]1([H:13])[H:14])([H:8])([H:9])[H:10].[C:4](=[N:5][H:12])=[O:6]"
C       -1.96818775      -0.31475858      -0.79803131
C       -0.79085615       0.05793515      -0.01635863
C        0.35685105      -0.43182852       0.53513165
C        1.86136013       0.08798249      -0.03534429
N        2.46753507      -0.97643873      -0.40173620
O        2.00926561       1.30257604       0.00320514
C       -0.37844777       0.89378687       1.03000233
H       -2.88494587       0.05726932      -0.34018855
H       -1.87139594       0.17885557      -1.77169367
H       -2.01775045      -1.38845676      -0.97241742
H        0.44810083      -1.45071652       0.88997477
H        3.35959473      -0.71657780      -0.81690511
H       -1.04397498       1.09108216       1.86570130
H        0.45285148       1.60928928       0.82865996
14
Frame=1 idx=007757 GeodesicLength=0.1064751782981089 rxn_smarts="[C:1]([C:2]1=[C:3]([H:11])/[C:4](=[N:5]/[H:12])[O:6][C:7]1([H:13])[H:14])([H:8])([H:9])[H:10]>>[C:1]([C:2]1=[C:3]([H:11])[C:7]1([H:13])[H:14])([H:8])([H:9])[H:10].[C:4](=[N:5][H:12])=[O:6]"
C       -1.99582152      -0.31378834      -0.78528179
C       -0.79904834       0.04751368      -0.02632633
C        0.34925554      -0.45189684       0.50413760
C        1.88098875       0.08025012      -0.04111666
N        2.50540289      -0.97236873      -0.40047257
O        2.03988140       1.28941909       0.08299798
C       -0.36404382       0.89712305       1.00674813
H       -2.90251272       0.04078276      -0.29441530
H       -1.92962756       0.20101224      -1.75026810
H       -2.04507278      -1.38406748      -0.97987994
H        0.44265032      -1.47580245       0.84416592
H        3.42154969      -0.71195429      -0.75764542
H       -1.00910876       1.09907020       1.85738465
H        0.40550693       1.65470700       0.73997181
14
Frame=2 idx=007757 GeodesicLength=0.21274429777647885 rxn_smarts="[C:1]([C:2]1=[C:3]([H:11])/[C:4](=[N:5]/[H:12])[O:6][C:7]1([H:13])[H:14])([H:8])([H:9])[H:10]>>[C:1]([C:2]1=[C:3]([H:11])[C:7]1([H:13])[H:14])([H:8])([H:9])[H:10].[C:4](=[N:5][H:12])=[O:6]"
C       -2.02431593      -0.31289836      -0.77140737
C       -0.80760351       0.03672837      -0.03726205
C        0.34160604      -0.47253342       0.47027334
C        1.90161487       0.07488534      -0.04651660
N        2.54495838      -0.96539926      -0.39794185
O        2.06337389       1.27277370       0.16988075
C       -0.34740071       0.90267720       0.97843135
H       -2.91893344       0.02515775      -0.24752633
H       -1.98896609       0.22178911      -1.72693089
H       -2.07526649      -1.37949591      -0.98512922
H        0.43820985      -1.50140188       0.79434066
H        3.48151239      -0.70489350      -0.69584781
H       -0.97036896       1.11053300       1.84422097
H        0.36157971       1.69207786       0.65141505
14
Frame=3 idx=007757 GeodesicLength=0.31886372498137483 rxn_smarts="[C:1]([C:2]1=[C:3]([H:11])/[C:4](=[N:5]/[H:12])[O:6][C:7]1([H:13])[H:14])([H:8])([H:9])[H:10]>>[C:1]([C:2]1=[C:3]([H:11])[C:7]1([H:13])[H:14])([H:8])([H:9])[H:10].[C:4](=[N:5][H:12])=[O:6]"
C       -2.05255468      -0.31122402      -0.75694255
C       -0.81617684       0.02576535      -0.04834003
C        0.33404032      -0.49370019       0.43451446
C        1.92380353       0.07101269      -0.04838853
N        2.58630332      -0.95633366      -0.39169138
O        2.07592400       1.25534037       0.24831744
C       -0.32964843       0.90883799       0.94753874
H       -2.93355572       0.01182624      -0.20120591
H       -2.04680622       0.24200225      -1.70225653
H       -2.10758177      -1.37392644      -0.98850679
H        0.43448609      -1.52764738       0.74087983
H        3.53906659      -0.69617338      -0.63105693
H       -0.92946218       1.12247728       1.82843224
H        0.32216200       1.72174290       0.56870593
14
Frame=4 idx=007757 GeodesicLength=0.4249065087289551 rxn_smarts="[C:1]([C:2]1=[C:3]([H:11])/[C:4](=[N:5]/[H:12])[O:6][C:7]1([H:13])[H:14])([H:8])([H:9])[H:10]>>[C:1]([C:2]1=[C:3]([H:11])[C:7]1([H:13])[H:14])([H:8])([H:9])[H:10].[C:4](=[N:5][H:12])=[O:6]"
C       -2.08024445      -0.30869900      -0.74193547
C       -0.82463480       0.01502994      -0.05953563
C        0.32663235      -0.51493380       0.39690426
C        1.94715360       0.06784497      -0.04729176
N        2.62910273      -0.94625300      -0.38106284
O        2.07968361       1.23904782       0.31426816
C       -0.31152400       0.91492028       0.91529055
H       -2.94636655      -0.00008139      -0.15518971
H       -2.10319854       0.26244608      -1.67602594
H       -2.14096753      -1.36723312      -0.99074238
H        0.43130198      -1.55411358       0.68357664
H        3.59441855      -0.68725121      -0.56228517
H       -0.88741114       1.13332539       1.81120276
H        0.28605419       1.74595061       0.49282652
14
Frame=5 idx=007757 GeodesicLength=0.5307752689574625 rxn_smarts="[C:1]([C:2]1=[C:3]([H:11])/[C:4](=[N:5]/[H:12])[O:6][C:7]1([H:13])[H:14])([H:8])([H:9])[H:10]>>[C:1]([C:2]1=[C:3]([H:11])[C:7]1([H:13])[H:14])([H:8])([H:9])[H:10].[C:4](=[N:5][H:12])=[O:6]"
C       -2.10721959      -0.30546256      -0.72636758
C       -0.83289658       0.00459366      -0.07082514
C        0.31945766      -0.53592198       0.35746026
C        1.97131161       0.06484397      -0.04380526
N        2.67302857      -0.93599373      -0.36536797
O        2.07734161       1.22456333       0.36863121
C       -0.29336194       0.92067725       0.88218276
H       -2.95733308      -0.01110209      -0.10938910
H       -2.15811977       0.28323603      -1.64813223
H       -2.17489199      -1.35951865      -0.99203078
H        0.42863470      -1.58040665       0.62237002
H        3.64711531      -0.67861737      -0.49063172
H       -0.84469923       1.14252316       1.79295705
H        0.25163273       1.76658562       0.42294848
14
Frame=6 idx=007757 GeodesicLength=0.63641747322234 rxn_smarts="[C:1]([C:2]1=[C:3]([H:11])/[C:4](=[N:5]/[H:12])[O:6][C:7]1([H:13])[H:14])([H:8])([H:9])[H:10]>>[C:1]([C:2]1=[C:3]([H:11])[C:7]1([H:13])[H:14])([H:8])([H:9])[H:10].[C:4](=[N:5][H:12])=[O:6]"
C       -2.13347096      -0.30179210      -0.71007430
C       -0.84093050      -0.00542528      -0.08232142
C        0.31257101      -0.55630895       0.31596038
C        1.99599458       0.06190310      -0.03879150
N        2.71739070      -0.92587238      -0.34538378
O        2.07111682       1.21170139       0.41387023
C       -0.27528578       0.92624762       0.84819460
H       -2.96643822      -0.02194650      -0.06340672
H       -2.21194751       0.30424873      -1.61832027
H       -2.20898460      -1.35104171      -0.99233183
H        0.42660978      -1.60608225       0.55682834
H        3.69708057      -0.67081955      -0.41581509
H       -0.80156049       1.15018683       1.77358935
H        0.21785459       1.78500105       0.35800200
14
Frame=7 idx=007757 GeodesicLength=0.741828742276419 rxn_smarts="[C:1]([C:2]1=[C:3]([H:11])/[C:4](=[N:5]/[H:12])[O:6][C:7]1([H:13])[H:14])([H:8])([H:9])[H:10]>>[C:1]([C:2]1=[C:3]([H:11])[C:7]1([H:13])[H:14])([H:8])([H:9])[H:10].[C:4](=[N:5][H:12])=[O:6]"
C       -2.15891424      -0.29789077      -0.69295222
C       -0.84868788      -0.01500693      -0.09402615
C        0.30599548      -0.57587507       0.27233416
C        2.02107176       0.05887690      -0.03246665
N        2.76174735      -0.91623832      -0.32108949
O        2.06239885       1.20013812       0.45194906
C       -0.25734821       0.93180011       0.81327602
H       -2.97359531      -0.03300924      -0.01709296
H       -2.26474609       0.32531597      -1.58643714
H       -2.24298239      -1.34199960      -0.99156799
H        0.42529108      -1.63080885       0.48661954
H        3.74403810      -0.66396564      -0.33859650
H       -0.75822180       1.15660020       1.75291164
H        0.18395330       1.80206313       0.29713868
14
Frame=8 idx=007757 GeodesicLength=0.8470098024787263 rxn_smarts="[C:1]([C:2]1=[C:3]([H:11])/[C:4](=[N:5]/[H:12])[O:6][C:7]1([H:13])[H:14])([H:8])([H:9])[H:10]>>[C:1]([C:2]1=[C:3]([H:11])[C:7]1([H:13])[H:14])([H:8])([H:9])[H:10].[C:4](=[N:5][H:12])=[O:6]"
C       -2.18348890      -0.29394430      -0.67484783
C       -0.85612078      -0.02411740      -0.10594954
C        0.29976280      -0.59440177       0.22640034
C        2.04645062       0.05571042      -0.02503743
N        2.80563764      -0.90728343      -0.29279711
O        2.05210621       1.18957198       0.48426909
C       -0.23953802       0.93753109       0.77730266
H       -2.97868589      -0.04465890       0.02978107
H       -2.31663587       0.34627057      -1.55225733
H       -2.27668801      -1.33257345      -0.98960402
H        0.42480960      -1.65422609       0.41118085
H        3.78784712      -0.65833815      -0.25887790
H       -0.71481847       1.16205824       1.73070308
H        0.14936195       1.81840118       0.23973407
14
Frame=9 idx=007757 GeodesicLength=0.9519551142636207 rxn_smarts="[C:1]([C:2]1=[C:3]([H:11])/[C:4](=[N:5]/[H:12])[O:6][C:7]1([H:13])[H:14])([H:8])([H:9])[H:10]>>[C:1]([C:2]1=[C:3]([H:11])[C:7]1([H:13])[H:14])([H:8])([H:9])[H:10].[C:4](=[N:5][H:12])=[O:6]"
C       -2.20709677      -0.29011775      -0.65562194
C       -0.86316118      -0.03272461      -0.11808512
C        0.29388341      -0.61169473       0.17801885
C        2.07207418       0.05227855      -0.01639166
N        2.84866944      -0.89930629      -0.26033747
O        2.04085179       1.17972703       0.51194752
C       -0.22184216       0.94364573       0.74014929
H       -2.98154699      -0.05703446       0.07732697
H       -2.36758764       0.36682645      -1.51566057
H       -2.30996240      -1.32296276      -0.98616873
H        0.42524700      -1.67595843       0.32981983
H        3.82835633      -0.65401352      -0.17708804
H       -0.67152752       1.16688340       1.70673526
H        0.11364251       1.83445140       0.18535582
14
Frame=10 idx=007757 GeodesicLength=1.0566560284921653 rxn_smarts="[C:1]([C:2]1=[C:3]([H:11])/[C:4](=[N:5]/[H:12])[O:6][C:7]1([H:13])[H:14])([H:8])([H:9])[H:10]>>[C:1]([C:2]1=[C:3]([H:11])[C:7]1([H:13])[H:14])([H:8])([H:9])[H:10].[C:4](=[N:5][H:12])=[O:6]"
C       -2.22961936      -0.28660133      -0.63507955
C       -0.86972653      -0.04078101      -0.13040294
C        0.28839353      -0.62750324       0.12697651
C        2.09786181       0.04854200      -0.00659069
N        2.89037342      -0.89244805      -0.22410588
O        2.02906575       1.17041107       0.53569183
C       -0.20420032       0.95039868       0.70162211
H       -2.98195718      -0.07052349       0.12580642
H       -2.41767057       0.38680176      -1.47633573
H       -2.34256102      -1.31335889      -0.98109034
H        0.42680184      -1.69546761       0.24172314
H        3.86532126      -0.65152334      -0.09262632
H       -0.62845471       1.17144494       1.68074397
H        0.07637208       1.85060852       0.13366746
14
Frame=11 idx=007757 GeodesicLength=1.1611195939029837 rxn_smarts="[C:1]([C:2]1=[C:3]([H:11])/[C:4](=[N:5]/[H:12])[O:6][C:7]1([H:13])[H:14])([H:8])([H:9])[H:10]>>[C:1]([C:2]1=[C:3]([H:11])[C:7]1([H:13])[H:14])([H:8])([H:9])[H:10].[C:4](=[N:5][H:12])=[O:6]"
C       -2.25088546      -0.28352711      -0.61312120
C       -0.87572936      -0.04828439      -0.14281614
C        0.28325449      -0.64166350       0.07320767
C        2.12372400       0.04414399       0.00493313
N        2.93031985      -0.88740325      -0.18282370
O        2.01700532       1.16141877       0.55611453
C       -0.18659069       0.95801912       0.66156846
H       -2.97968748      -0.08518942       0.17522989
H       -2.46669946       0.40594899      -1.43418301
H       -2.37429631      -1.30392879      -0.97416879
H        0.42949129      -1.71219261       0.14613000
H        3.89874643      -0.65055672      -0.00697594
H       -0.58580807       1.17614650       1.65249100
H        0.03715546       1.86706841       0.08441409
14
Frame=12 idx=007757 GeodesicLength=1.265326110529709 rxn_smarts="[C:1]([C:2]1=[C:3]([H:11])/[C:4](=[N:5]/[H:12])[O:6][C:7]1([H:13])[H:14])([H:8])([H:9])[H:10]>>[C:1]([C:2]1=[C:3]([H:11])[C:7]1([H:13])[H:14])([H:8])([H:9])[H:10].[C:4](=[N:5][H:12])=[O:6]"
C       -2.27077635      -0.28114164      -0.58937188
C       -0.88103527      -0.05514807      -0.15538319
C        0.27857136      -0.65378464       0.01607652
C        2.14956793       0.03910137       0.01794004
N        2.96795409      -0.88431919      -0.13693251
O        2.00491162       1.15278799       0.57320569
C       -0.16889264       0.96679764       0.61962512
H       -2.97434217      -0.10142562       0.22612007
H       -2.51489936       0.42395481      -1.38867692
H       -2.40498193      -1.29495005      -0.96497217
H        0.43368547      -1.72515324       0.04146435
H        3.92821275      -0.65209338       0.08182553
H       -0.54349603       1.18124813       1.62167174
H       -0.00447946       1.88412590       0.03740761
14
Frame=13 idx=007757 GeodesicLength=1.369277553159709 rxn_smarts="[C:1]([C:2]1=[C:3]([H:11])/[C:4](=[N:5]/[H:12])[O:6][C:7]1([H:13])[H:14])([H:8])([H:9])[H:10]>>[C:1]([C:2]1=[C:3]([H:11])[C:7]1([H:13])[H:14])([H:8])([H:9])[H:10].[C:4](=[N:5][H:12])=[O:6]"
C       -2.28906309      -0.27966972      -0.56357838
C       -0.88547503      -0.06129638      -0.16816902
C        0.27434118      -0.66351174      -0.04488032
C        2.17523334       0.03293711       0.03315174
N        3.00249328      -0.88419194      -0.08445406
O        1.99293001       1.14443663       0.58712087
C       -0.15105249       0.97707892       0.57537772
H       -2.96542254      -0.11960390       0.27879560
H       -2.56230476       0.44054708      -1.33935197
H       -2.43433039      -1.28665717      -0.95325637
H        0.43951868      -1.73315435      -0.07369269
H        3.95367764      -0.65604131       0.17264736
H       -0.50162742       1.18721096       1.58785333
H       -0.04891841       1.90191583      -0.00756381
14
Frame=14 idx=007757 GeodesicLength=1.4729269643747098 rxn_smarts="[C:1]([C:2]1=[C:3]([H:11])/[C:4](=[N:5]/[H:12])[O:6][C:7]1([H:13])[H:14])([H:8])([H:9])[H:10]>>[C:1]([C:2]1=[C:3]([H:11])[C:7]1([H:13])[H:14])([H:8])([H:9])[H:10].[C:4](=[N:5][H:12])=[O:6]"
C       -2.30540232      -0.27951229      -0.53523649
C       -0.88876594      -0.06659572      -0.18130578
C        0.27074864      -0.67015959      -0.11079493
C        2.20050306       0.02567606       0.05019422
N        3.03293586      -0.88726782      -0.02603386
O        1.98124864       1.13659158       0.59727040
C       -0.13293113       0.98929598       0.52826747
H       -2.95210376      -0.14039966       0.33393422
H       -2.60909039       0.45523502      -1.28535379
H       -2.46189606      -1.27947588      -0.93851212
H        0.44755543      -1.73433965      -0.20084794
H        3.97392218      -0.66404219       0.26831420
H       -0.45994719       1.19430131       1.55062359
H       -0.09677701       1.92069283      -0.05051920
14
Frame=15 idx=007757 GeodesicLength=1.5762209295149685 rxn_smarts="[C:1]([C:2]1=[C:3]([H:11])/[C:4](=[N:5]/[H:12])[O:6][C:7]1([H:13])[H:14])([H:8])([H:9])[H:10]>>[C:1]([C:2]1=[C:3]([H:11])[C:7]1([H:13])[H:14])([H:8])([H:9])[H:10].[C:4](=[N:5][H:12])=[O:6]"
C       -2.31919316      -0.28105099      -0.50417111
C       -0.89052352      -0.07088558      -0.19493913
C        0.26783162      -0.67303702      -0.18241547
C        2.22490288       0.01688504       0.06971011
N        3.05775932      -0.89448061       0.03938512
O        1.96992652       1.12912868       0.60383443
C       -0.11454351       1.00396991       0.47782773
H       -2.93344424      -0.16420880       0.39161728
H       -2.65488609       0.46737790      -1.22630837
H       -2.48696905      -1.27388063      -0.92040118
H        0.45800417      -1.72674127      -0.34000073
H        3.98821098      -0.67661702       0.36765698
H       -0.41862684       1.20301644       1.50953072
H       -0.14844907       1.94052396      -0.09132636
14
Frame=16 idx=007757 GeodesicLength=1.6791474818556689 rxn_smarts="[C:1]([C:2]1=[C:3]([H:11])/[C:4](=[N:5]/[H:12])[O:6][C:7]1([H:13])[H:14])([H:8])([H:9])[H:10]>>[C:1]([C:2]1=[C:3]([H:11])[C:7]1([H:13])[H:14])([H:8])([H:9])[H:10].[C:4](=[N:5][H:12])=[O:6]"
C       -2.32958008      -0.28473937      -0.47021647
C       -0.89017456      -0.07392510      -0.20933210
C        0.26566401      -0.67128879      -0.26046336
C        2.24776909       0.00650266       0.09146229
N        3.07531410      -0.90612921       0.11069767
O        1.95897673       1.12201212       0.60667868
C       -0.09590740       1.02174078       0.42359353
H       -2.90815177      -0.19152726       0.45191242
H       -2.69915893       0.47620703      -1.16177677
H       -2.50852559      -1.27045066      -0.89857856
H        0.47113484      -1.70841040      -0.49002834
H        3.99476607      -0.69526522       0.47147932
H       -0.37772305       1.21381496       1.46419616
H       -0.20440347       1.96145847      -0.12962449
