12
Frame=0 idx=002166 GeodesicLength=0.0 rxn_smarts="[O:1]=[C:2]([C:3]1([H:8])[C:4]([H:9])([H:10])[O:5][C:6]1([H:11])[H:12])[H:7]>>[C:4](=[O:5])([H:9])[H:10].[O:1]=[C:2]([C:3](=[C:6]([H:11])[H:12])[H:8])[H:7]"
O        0.86319024      -0.51394057       1.74802767
C        1.26278014      -0.73799111       0.59571473
C        0.76419369      -0.09295791      -0.55312187
C       -1.49484144      -0.44727890       0.05778311
O       -1.46728347       0.73242110      -0.43665308
C       -0.03784106       1.15179235      -0.39875011
H        1.98660079      -1.55478688       0.42019133
H        1.21887278      -0.30238371      -1.51371339
H       -2.40577227      -1.00336689      -0.16433677
H       -0.86246896      -0.73781047       0.89889162
H        0.12878768       1.64155769       0.56121391
H        0.04378190       1.86474529      -1.21524713
12
Frame=1 idx=002166 GeodesicLength=0.10636660768609142 rxn_smarts="[O:1]=[C:2]([C:3]1([H:8])[C:4]([H:9])([H:10])[O:5][C:6]1([H:11])[H:12])[H:7]>>[C:4](=[O:5])([H:9])[H:10].[O:1]=[C:2]([C:3](=[C:6]([H:11])[H:12])[H:8])[H:7]"
O        0.85608968      -0.57105098       1.75115623
C        1.26863166      -0.74321473       0.59763445
C        0.75052720      -0.10743575      -0.55232878
C       -1.51488786      -0.44201595       0.04887185
O       -1.48465400       0.74992327      -0.42033714
C       -0.02248309       1.15145556      -0.40421636
H        2.08562854      -1.46959104       0.42969020
H        1.19068015      -0.33529547      -1.51577538
H       -2.43434409      -0.98623436      -0.17088107
H       -0.90398664      -0.74573218       0.90139599
H        0.13886816       1.63866220       0.55777248
H        0.06993028       1.86052943      -1.22298248
12
Frame=2 idx=002166 GeodesicLength=0.21180214094677988 rxn_smarts="[O:1]=[C:2]([C:3]1([H:8])[C:4]([H:9])([H:10])[O:5][C:6]1([H:11])[H:12])[H:7]>>[C:4](=[O:5])([H:9])[H:10].[O:1]=[C:2]([C:3](=[C:6]([H:11])[H:12])[H:8])[H:7]"
O        0.85105688      -0.63220530       1.75154884
C        1.27653511      -0.74832004       0.59875613
C        0.73719123      -0.12206561      -0.55152700
C       -1.53413480      -0.43657595       0.04135561
O       -1.50132882       0.76690295      -0.40284947
C       -0.00628371       1.15053443      -0.40993734
H        2.17318805      -1.37754179       0.44059666
H        1.16329740      -0.36786257      -1.51717052
H       -2.46047121      -0.97046215      -0.17829909
H       -0.94526920      -0.75304728       0.90497411
H        0.14969774       1.63549584       0.55389596
H        0.09652132       1.85514748      -1.23134387
12
Frame=3 idx=002166 GeodesicLength=0.3166470658266446 rxn_smarts="[O:1]=[C:2]([C:3]1([H:8])[C:4]([H:9])([H:10])[O:5][C:6]1([H:11])[H:12])[H:7]>>[C:4](=[O:5])([H:9])[H:10].[O:1]=[C:2]([C:3](=[C:6]([H:11])[H:12])[H:8])[H:7]"
O        0.84830526      -0.69752259       1.74874310
C        1.28655686      -0.75262435       0.59914802
C        0.72432684      -0.13654395      -0.55077310
C       -1.55246146      -0.43106439       0.03528236
O       -1.51743488       0.78314804      -0.38457608
C        0.01057319       1.14917520      -0.41613377
H        2.24885722      -1.28108357       0.45322831
H        1.13775371      -0.39918693      -1.51780683
H       -2.48439742      -0.95598734      -0.18579832
H       -0.98620143      -0.75943999       0.90983946
H        0.16081541       1.63231887       0.54936267
H        0.12330670       1.84881101      -1.24051582
12
Frame=4 idx=002166 GeodesicLength=0.421135445407053 rxn_smarts="[O:1]=[C:2]([C:3]1([H:8])[C:4]([H:9])([H:10])[O:5][C:6]1([H:11])[H:12])[H:7]>>[C:4](=[O:5])([H:9])[H:10].[O:1]=[C:2]([C:3](=[C:6]([H:11])[H:12])[H:8])[H:7]"
O        0.84847420      -0.76671135       1.74267433
C        1.29834335      -0.75552977       0.59921030
C        0.71178582      -0.15056246      -0.54983345
C       -1.56996756      -0.42511686       0.03153444
O       -1.53326675       0.79868216      -0.36586946
C        0.02781587       1.14766856      -0.42291521
H        2.31215031      -1.18328094       0.46680762
H        1.11455065      -0.42872649      -1.51738928
H       -2.50504301      -0.94378811      -0.19443325
H       -1.02670668      -0.76395649       0.91699551
H        0.17177954       1.62967015       0.54396600
H        0.15008427       1.84165159      -1.25074755
12
Frame=5 idx=002166 GeodesicLength=0.5251234132897127 rxn_smarts="[O:1]=[C:2]([C:3]1([H:8])[C:4]([H:9])([H:10])[O:5][C:6]1([H:11])[H:12])[H:7]>>[C:4](=[O:5])([H:9])[H:10].[O:1]=[C:2]([C:3](=[C:6]([H:11])[H:12])[H:8])[H:7]"
O        0.85031386      -0.84167001       1.73110422
C        1.31147694      -0.75792900       0.59806917
C        0.70005156      -0.16429432      -0.54939829
C       -1.58644182      -0.41947751       0.02848211
O       -1.54856163       0.81329336      -0.34704070
C        0.04569966       1.14565211      -0.43058044
H        2.36615894      -1.08117845       0.48509571
H        1.09427501      -0.45630894      -1.51671413
H       -2.52555671      -0.93131360      -0.19978547
H       -1.06715285      -0.76746524       0.92506082
H        0.18268324       1.62685153       0.53754193
H        0.17705381       1.83384008      -1.26183493
12
Frame=6 idx=002166 GeodesicLength=0.6291361973054866 rxn_smarts="[O:1]=[C:2]([C:3]1([H:8])[C:4]([H:9])([H:10])[O:5][C:6]1([H:11])[H:12])[H:7]>>[C:4](=[O:5])([H:9])[H:10].[O:1]=[C:2]([C:3](=[C:6]([H:11])[H:12])[H:8])[H:7]"
O        0.85520148      -0.92181998       1.71443550
C        1.32571704      -0.75841463       0.59688220
C        0.68887789      -0.17709452      -0.54880892
C       -1.60197735      -0.41342609       0.02782080
O       -1.56387355       0.82721534      -0.32829870
C        0.06378059       1.14380065      -0.43913839
H        2.40905005      -0.97960097       0.50592661
H        1.07672028      -0.48186286      -1.51514864
H       -2.54314052      -0.92090657      -0.20512599
H       -1.10716888      -0.76841528       0.93584039
H        0.19288521       1.62502426       0.52990697
H        0.20392775       1.82550065      -1.27429184
12
Frame=7 idx=002166 GeodesicLength=0.7330455723566031 rxn_smarts="[O:1]=[C:2]([C:3]1([H:8])[C:4]([H:9])([H:10])[O:5][C:6]1([H:11])[H:12])[H:7]>>[C:4](=[O:5])([H:9])[H:10].[O:1]=[C:2]([C:3](=[C:6]([H:11])[H:12])[H:8])[H:7]"
O        0.86302000      -1.00737744       1.69116715
C        1.34043928      -0.75723894       0.59562086
C        0.67859460      -0.18872312      -0.54831014
C       -1.61642344      -0.40724233       0.02921350
O       -1.57928392       0.84031156      -0.30998359
C        0.08200542       1.14218808      -0.44883152
H        2.44166539      -0.87921018       0.53103522
H        1.06255496      -0.50495825      -1.51293515
H       -2.55868415      -0.91199242      -0.20858801
H       -1.14658413      -0.76692112       0.94904115
H        0.20214819       1.62429438       0.52079223
H        0.23054779       1.81686978      -1.28822171
12
Frame=8 idx=002166 GeodesicLength=0.8368539707207261 rxn_smarts="[O:1]=[C:2]([C:3]1([H:8])[C:4]([H:9])([H:10])[O:5][C:6]1([H:11])[H:12])[H:7]>>[C:4](=[O:5])([H:9])[H:10].[O:1]=[C:2]([C:3](=[C:6]([H:11])[H:12])[H:8])[H:7]"
O        0.87420688      -1.09783086       1.66029731
C        1.35478468      -0.75486091       0.59447130
C        0.66915711      -0.19907978      -0.54796774
C       -1.62979252      -0.40078402       0.03309069
O       -1.59494027       0.85272312      -0.29207685
C        0.10031880       1.14093447      -0.45976509
H        2.46411906      -0.78075964       0.56119999
H        1.05179805      -0.52557935      -1.51015335
H       -2.57185115      -0.90483155      -0.21028726
H       -1.18516498      -0.76285984       0.96494104
H        0.21045119       1.62490046       0.50998883
H        0.25691314       1.80802790      -1.30373887
12
Frame=9 idx=002166 GeodesicLength=0.9405069508752277 rxn_smarts="[O:1]=[C:2]([C:3]1([H:8])[C:4]([H:9])([H:10])[O:5][C:6]1([H:11])[H:12])[H:7]>>[C:4](=[O:5])([H:9])[H:10].[O:1]=[C:2]([C:3](=[C:6]([H:11])[H:12])[H:8])[H:7]"
O        0.88912344      -1.19146416       1.62117413
C        1.36805016      -0.75172430       0.59360851
C        0.66072489      -0.20792708      -0.54792562
C       -1.64196736      -0.39416770       0.03947531
O       -1.61095186       0.86449731      -0.27431099
C        0.11866321       1.14020609      -0.47204326
H        2.47640568      -0.68596344       0.59726149
H        1.04457036      -0.54354978      -1.50699396
H       -2.58261368      -0.89949990      -0.20993142
H       -1.22259604      -0.75667910       0.98334683
H        0.21778199       1.62711327       0.49729890
H        0.28280923       1.79915878      -1.32095993
12
Frame=10 idx=002166 GeodesicLength=1.044386372217888 rxn_smarts="[O:1]=[C:2]([C:3]1([H:8])[C:4]([H:9])([H:10])[O:5][C:6]1([H:11])[H:12])[H:7]>>[C:4](=[O:5])([H:9])[H:10].[O:1]=[C:2]([C:3](=[C:6]([H:11])[H:12])[H:8])[H:7]"
O        0.90852813      -1.28674938       1.57371179
C        1.37956195      -0.74874434       0.59305325
C        0.65306078      -0.21546737      -0.54835345
C       -1.65310459      -0.38722413       0.04866759
O       -1.62735165       0.87592628      -0.25620131
C        0.13715255       1.13996274      -0.48567259
H        2.47826778      -0.59462513       0.63971880
H        1.04034937      -0.55925018      -1.50370939
H       -2.59079905      -0.89597189      -0.20816662
H       -1.25871682      -0.74895885       1.00417492
H        0.22452865       1.63088095       0.48267158
H        0.30852290       1.79022128      -1.33989457
12
Frame=11 idx=002166 GeodesicLength=1.14769035335664 rxn_smarts="[O:1]=[C:2]([C:3]1([H:8])[C:4]([H:9])([H:10])[O:5][C:6]1([H:11])[H:12])[H:7]>>[C:4](=[O:5])([H:9])[H:10].[O:1]=[C:2]([C:3](=[C:6]([H:11])[H:12])[H:8])[H:7]"
O        0.93110638      -1.38281396       1.51557215
C        1.38943067      -0.74513827       0.59301139
C        0.64730742      -0.22078942      -0.54959881
C       -1.66230561      -0.38078410       0.05962673
O       -1.64401253       0.88637367      -0.23803724
C        0.15566966       1.14061965      -0.50109597
H        2.47023840      -0.51035919       0.69131463
H        1.04019163      -0.57188777      -1.50057717
H       -2.59726812      -0.89397793      -0.20150724
H       -1.29324671      -0.73951052       1.02695036
H        0.23009387       1.63674404       0.46552324
H        0.33279493       1.78152380      -1.36118208
12
Frame=12 idx=002166 GeodesicLength=1.2510491644124109 rxn_smarts="[O:1]=[C:2]([C:3]1([H:8])[C:4]([H:9])([H:10])[O:5][C:6]1([H:11])[H:12])[H:7]>>[C:4](=[O:5])([H:9])[H:10].[O:1]=[C:2]([C:3](=[C:6]([H:11])[H:12])[H:8])[H:7]"
O        0.96021286      -1.47392676       1.45191794
C        1.39694102      -0.74361534       0.59259364
C        0.64145996      -0.22569699      -0.55154550
C       -1.67059456      -0.37381004       0.07331006
O       -1.66069082       0.89716816      -0.21746892
C        0.17464196       1.14133576      -0.51738238
H        2.45051442      -0.42986080       0.74802749
H        1.04098228      -0.58354363      -1.49783461
H       -2.60062123      -0.89314609      -0.19618249
H       -1.32659811      -0.73090236       1.05100228
H        0.23601066       1.64347544       0.44688424
H        0.35774155       1.77252267      -1.38332177
12
Frame=13 idx=002166 GeodesicLength=1.3544774456935278 rxn_smarts="[O:1]=[C:2]([C:3]1([H:8])[C:4]([H:9])([H:10])[O:5][C:6]1([H:11])[H:12])[H:7]>>[C:4](=[O:5])([H:9])[H:10].[O:1]=[C:2]([C:3](=[C:6]([H:11])[H:12])[H:8])[H:7]"
O        0.99391960      -1.56025444       1.38101958
C        1.40295920      -0.74274326       0.59217383
C        0.63682896      -0.22902766      -0.55445213
C       -1.67731793      -0.36713074       0.08880952
O       -1.67759052       0.90743194      -0.19586867
C        0.19401558       1.14276521      -0.53505439
H        2.42070797      -0.35776939       0.81201953
H        1.04405331      -0.59301235      -1.49578313
H       -2.60172993      -0.89392814      -0.18857918
H       -1.35912127      -0.72178462       1.07674585
H        0.24130021       1.65170242       0.42628413
H        0.38197482       1.76375102      -1.40731494
12
Frame=14 idx=002166 GeodesicLength=1.4579328501190927 rxn_smarts="[O:1]=[C:2]([C:3]1([H:8])[C:4]([H:9])([H:10])[O:5][C:6]1([H:11])[H:12])[H:7]>>[C:4](=[O:5])([H:9])[H:10].[O:1]=[C:2]([C:3](=[C:6]([H:11])[H:12])[H:8])[H:7]"
O        1.03484596      -1.63764736       1.30860297
C        1.40766461      -0.74329101       0.59137406
C        0.63194901      -0.23207424      -0.55778741
C       -1.68328491      -0.36031784       0.10585652
O       -1.69457061       0.91792056      -0.17188196
C        0.21398757       1.14423761      -0.55308905
H        2.38081374      -0.29254853       0.87763081
H        1.04661733      -0.60219442      -1.49416932
H       -2.60033240      -0.89536461      -0.18305367
H       -1.39170621      -0.71413822       1.10291274
H        0.24643663       1.66036189       0.40488252
H        0.40757929       1.75505618      -1.43127821
12
Frame=15 idx=002166 GeodesicLength=1.5610437143608942 rxn_smarts="[O:1]=[C:2]([C:3]1([H:8])[C:4]([H:9])([H:10])[O:5][C:6]1([H:11])[H:12])[H:7]>>[C:4](=[O:5])([H:9])[H:10].[O:1]=[C:2]([C:3](=[C:6]([H:11])[H:12])[H:8])[H:7]"
O        1.08022631      -1.70916223       1.22887576
C        1.41158022      -0.74457570       0.58967951
C        0.62825578      -0.23377105      -0.56238656
C       -1.68717115      -0.35355690       0.12505154
O       -1.71151256       0.92775628      -0.14740722
C        0.23475597       1.14625971      -0.57248200
H        2.32938028      -0.23632346       0.95135479
H        1.05066965      -0.60963020      -1.49374550
H       -2.59555714      -0.89868804      -0.17490632
H       -1.42400073      -0.70460874       1.13153100
H        0.25072635       1.67005276       0.38151604
H        0.43264701       1.74624758      -1.45708103
12
Frame=16 idx=002166 GeodesicLength=1.6646979337652927 rxn_smarts="[O:1]=[C:2]([C:3]1([H:8])[C:4]([H:9])([H:10])[O:5][C:6]1([H:11])[H:12])[H:7]>>[C:4](=[O:5])([H:9])[H:10].[O:1]=[C:2]([C:3](=[C:6]([H:11])[H:12])[H:8])[H:7]"
O        1.13368225      -1.77234989       1.14703227
C        1.41518594      -0.74698729       0.58681602
C        0.62431031      -0.23548459      -0.56790149
C       -1.68991702      -0.34648731       0.14612478
O       -1.72824402       0.93788266      -0.12050080
C        0.25656687       1.14812488      -0.59259184
H        2.26499870      -0.18669770       1.02832032
H        1.05370537      -0.61710508      -1.49450589
H       -2.58805281      -0.90223210      -0.16769189
H       -1.45692097      -0.69583536       1.16120318
H        0.25512176       1.67986955       0.35693080
H        0.45956362       1.73730223      -1.48323545
