9
Frame=0 idx=004604 GeodesicLength=0.0 rxn_smarts="[O:1]([c:2]1[c:3]([H:8])[n:4]([H:9])[n:5][n:6]1)[H:7]>>[N:4](=[N+:5]=[N-:6])[H:9].[O:1]([C:2]#[C:3][H:8])[H:7]"
O        2.24232034       0.24093748      -0.24871006
C        0.96361803       0.49737659      -0.07473924
C       -0.01510373       1.22659811       0.05657660
N       -1.64008784      -0.25883734       0.31344780
N       -0.89634076      -1.23393250       0.10079040
N        0.23051655      -1.43591795      -0.01047327
H        2.36776226      -0.71348922      -0.28072226
H       -0.66842776       2.05479875       0.18442715
H       -2.58425708      -0.37753396      -0.04059713
9
Frame=1 idx=004604 GeodesicLength=0.03790021962542842 rxn_smarts="[O:1]([c:2]1[c:3]([H:8])[n:4]([H:9])[n:5][n:6]1)[H:7]>>[N:4](=[N+:5]=[N-:6])[H:9].[O:1]([C:2]#[C:3][H:8])[H:7]"
O        2.23594487       0.24633250      -0.23853303
C        0.94897463       0.48892357      -0.10932551
C       -0.03046315       1.21727009       0.05104302
N       -1.63211158      -0.26839803       0.33887605
N       -0.89693080      -1.24772575       0.10706621
N        0.23312459      -1.43963871      -0.02403794
H        2.37022964      -0.70741369      -0.26450313
H       -0.66369649       2.05928210       0.19209595
H       -2.56507171      -0.34863207      -0.05268162
9
Frame=2 idx=004604 GeodesicLength=0.07563658120323914 rxn_smarts="[O:1]([c:2]1[c:3]([H:8])[n:4]([H:9])[n:5][n:6]1)[H:7]>>[N:4](=[N+:5]=[N-:6])[H:9].[O:1]([C:2]#[C:3][H:8])[H:7]"
O        2.22828603       0.25170700      -0.23087712
C        0.93568090       0.48031233      -0.13270938
C       -0.04521201       1.20807786       0.04676473
N       -1.62498354      -0.27713680       0.35880082
N       -0.89739502      -1.26101419       0.11419079
N        0.23598806      -1.44319684      -0.03162058
H        2.37088418      -0.70095603      -0.25624588
H       -0.65806353       2.06378909       0.19784819
H       -2.54518507      -0.32158243      -0.06615157
9
Frame=3 idx=004604 GeodesicLength=0.1133166256779908 rxn_smarts="[O:1]([c:2]1[c:3]([H:8])[n:4]([H:9])[n:5][n:6]1)[H:7]>>[N:4](=[N+:5]=[N-:6])[H:9].[O:1]([C:2]#[C:3][H:8])[H:7]"
O        2.22046955       0.25703625      -0.22207691
C        0.92339273       0.47178249      -0.15105168
C       -0.05909667       1.19896993       0.04511514
N       -1.61778337      -0.28563077       0.37685478
N       -0.89799197      -1.27380895       0.11884058
N        0.23846027      -1.44650944      -0.04162045
H        2.37116427      -0.69451360      -0.24921264
H       -0.65272994       2.06835320       0.19777068
H       -2.52588487      -0.29567912      -0.07461950
9
Frame=4 idx=004604 GeodesicLength=0.15100039247493227 rxn_smarts="[O:1]([c:2]1[c:3]([H:8])[n:4]([H:9])[n:5][n:6]1)[H:7]>>[N:4](=[N+:5]=[N-:6])[H:9].[O:1]([C:2]#[C:3][H:8])[H:7]"
O        2.21277077       0.26221335      -0.21210812
C        0.91200737       0.46360101      -0.16658481
C       -0.07225298       1.18990730       0.04513337
N       -1.60965094      -0.29429628       0.39491150
N       -0.89866897      -1.28619114       0.11958988
N        0.24010880      -1.44946023      -0.05865343
H        2.37144438      -0.68829406      -0.23830625
H       -0.64814742       2.07296585       0.19109796
H       -2.50761100      -0.27044581      -0.07508011
9
Frame=5 idx=004604 GeodesicLength=0.18882813182131036 rxn_smarts="[O:1]([c:2]1[c:3]([H:8])[n:4]([H:9])[n:5][n:6]1)[H:7]>>[N:4](=[N+:5]=[N-:6])[H:9].[O:1]([C:2]#[C:3][H:8])[H:7]"
O        2.20450827       0.26734272      -0.20909927
C        0.90095099       0.45537746      -0.17769659
C       -0.08411036       1.18105103       0.05233485
N       -1.60311515      -0.30243916       0.40901620
N       -0.89946616      -1.29824459       0.12177029
N        0.24238850      -1.45234470      -0.06783418
H        2.37103859      -0.68211103      -0.23149339
H       -0.64377586       2.07753047       0.18409136
H       -2.48841882      -0.24616219      -0.08108929
9
Frame=6 idx=004604 GeodesicLength=0.2265289427496999 rxn_smarts="[O:1]([c:2]1[c:3]([H:8])[n:4]([H:9])[n:5][n:6]1)[H:7]>>[N:4](=[N+:5]=[N-:6])[H:9].[O:1]([C:2]#[C:3][H:8])[H:7]"
O        2.19672054       0.27220804      -0.20101361
C        0.89070839       0.44786051      -0.19059239
C       -0.09624512       1.17271221       0.05348766
N       -1.59380035      -0.31113654       0.42590291
N       -0.90017265      -1.30972958       0.11796160
N        0.24292534      -1.45428143      -0.09205062
H        2.37065761      -0.67627932      -0.21320025
H       -0.63936346       2.08136873       0.17181420
H       -2.47143031      -0.22272261      -0.07230949
9
Frame=7 idx=004604 GeodesicLength=0.2642050639067146 rxn_smarts="[O:1]([c:2]1[c:3]([H:8])[n:4]([H:9])[n:5][n:6]1)[H:7]>>[N:4](=[N+:5]=[N-:6])[H:9].[O:1]([C:2]#[C:3][H:8])[H:7]"
O        2.18866815       0.27704555      -0.19809529
C        0.88060457       0.44038281      -0.19952395
C       -0.10695792       1.16442624       0.06258067
N       -1.58652811      -0.31927196       0.43881191
N       -0.90115055      -1.32087206       0.11603177
N        0.24438775      -1.45619454      -0.10628607
H        2.36965298      -0.67038547      -0.20219676
H       -0.63517639       2.08494591       0.15943870
H       -2.45350047      -0.20007648      -0.07076098
9
Frame=8 idx=004604 GeodesicLength=0.30180681431597955 rxn_smarts="[O:1]([c:2]1[c:3]([H:8])[n:4]([H:9])[n:5][n:6]1)[H:7]>>[N:4](=[N+:5]=[N-:6])[H:9].[O:1]([C:2]#[C:3][H:8])[H:7]"
O        2.18069484       0.28177203      -0.19546387
C        0.87084982       0.43321315      -0.20737671
C       -0.11712630       1.15640815       0.07249336
N       -1.57932748      -0.32718978       0.45078986
N       -0.90222214      -1.33156210       0.11325873
N        0.24568577      -1.45769917      -0.12092000
H        2.36834142      -0.66455288      -0.19089281
H       -0.63089146       2.08789307       0.14573557
H       -2.43600446      -0.17828246      -0.06762413
9
Frame=9 idx=004604 GeodesicLength=0.33942521529580105 rxn_smarts="[O:1]([c:2]1[c:3]([H:8])[n:4]([H:9])[n:5][n:6]1)[H:7]>>[N:4](=[N+:5]=[N-:6])[H:9].[O:1]([C:2]#[C:3][H:8])[H:7]"
O        2.17296439       0.28610175      -0.18967685
C        0.86171123       0.42666149      -0.21618628
C       -0.12750120       1.14889289       0.07833486
N       -1.57033732      -0.33522930       0.46396139
N       -0.90303229      -1.34168909       0.10773696
N        0.24599201      -1.45832482      -0.14317009
H        2.36639149      -0.65913203      -0.17396802
H       -0.62650070       2.09025730       0.12961288
H       -2.41968762      -0.15753819      -0.05664485
9
Frame=10 idx=004604 GeodesicLength=0.3770096416990244 rxn_smarts="[O:1]([c:2]1[c:3]([H:8])[n:4]([H:9])[n:5][n:6]1)[H:7]>>[N:4](=[N+:5]=[N-:6])[H:9].[O:1]([C:2]#[C:3][H:8])[H:7]"
O        2.16531074       0.29012743      -0.18334983
C        0.85298324       0.42050789      -0.22495158
C       -0.13765850       1.14177822       0.08305349
N       -1.56082022      -0.34312020       0.47673227
N       -0.90371781      -1.35132927       0.10135515
N        0.24599623      -1.45832023      -0.16702546
H        2.36376730      -0.65398158      -0.15554777
H       -0.62198265       2.09220644       0.11298402
H       -2.40387833      -0.13786871      -0.04325029
9
Frame=11 idx=004604 GeodesicLength=0.41458028933537167 rxn_smarts="[O:1]([c:2]1[c:3]([H:8])[n:4]([H:9])[n:5][n:6]1)[H:7]>>[N:4](=[N+:5]=[N-:6])[H:9].[O:1]([C:2]#[C:3][H:8])[H:7]"
O        2.15759141       0.29419161      -0.17866350
C        0.84431990       0.41435948      -0.23251667
C       -0.14750991       1.13487189       0.08886603
N       -1.55236351      -0.35046343       0.48731561
N       -0.90460080      -1.36062936       0.09595198
N        0.24645110      -1.45826596      -0.18587691
H        2.36094585      -0.64870678      -0.14045878
H       -0.61684228       2.09381324       0.09839062
H       -2.38799176      -0.11917069      -0.03300840
9
Frame=12 idx=004604 GeodesicLength=0.45215974030702094 rxn_smarts="[O:1]([c:2]1[c:3]([H:8])[n:4]([H:9])[n:5][n:6]1)[H:7]>>[N:4](=[N+:5]=[N-:6])[H:9].[O:1]([C:2]#[C:3][H:8])[H:7]"
O        2.14991334       0.29809907      -0.17363626
C        0.83592736       0.40841994      -0.23987383
C       -0.15728729       1.12827544       0.09372719
N       -1.54385518      -0.35750964       0.49715755
N       -0.90545819      -1.36954478       0.09038459
N        0.24684647      -1.45787232      -0.20441716
H        2.35773528      -0.64356952      -0.12553982
H       -0.61134870       2.09517228       0.08426987
H       -2.37247310      -0.10147048      -0.02207213
9
Frame=13 idx=004604 GeodesicLength=0.4897486807448822 rxn_smarts="[O:1]([c:2]1[c:3]([H:8])[n:4]([H:9])[n:5][n:6]1)[H:7]>>[N:4](=[N+:5]=[N-:6])[H:9].[O:1]([C:2]#[C:3][H:8])[H:7]"
O        2.14231116       0.30168412      -0.16728251
C        0.82794021       0.40284893      -0.24736954
C       -0.16703174       1.12207113       0.09705704
N       -1.53466414      -0.36443088       0.50699888
N       -0.90613680      -1.37802929       0.08409340
N        0.24691804      -1.45688993      -0.22488114
H        2.35389483      -0.63879915      -0.10945821
H       -0.60582252       2.09630026       0.06949360
H       -2.35740905      -0.08475519      -0.00865153
9
Frame=14 idx=004604 GeodesicLength=0.5273775504135964 rxn_smarts="[O:1]([c:2]1[c:3]([H:8])[n:4]([H:9])[n:5][n:6]1)[H:7]>>[N:4](=[N+:5]=[N-:6])[H:9].[O:1]([C:2]#[C:3][H:8])[H:7]"
O        2.13474126       0.30478093      -0.15905130
C        0.82043430       0.39779717      -0.25536480
C       -0.17678304       1.11634222       0.09842457
N       -1.52427785      -0.37134198       0.51730765
N       -0.90644675      -1.38605045       0.07686630
N        0.24646382      -1.45506334      -0.24874840
H        2.34907592      -0.63461235      -0.09120868
H       -0.60047669       2.09723960       0.05345713
H       -2.34273097      -0.06909180       0.00831752
9
Frame=15 idx=004604 GeodesicLength=0.5651380559964548 rxn_smarts="[O:1]([c:2]1[c:3]([H:8])[n:4]([H:9])[n:5][n:6]1)[H:7]>>[N:4](=[N+:5]=[N-:6])[H:9].[O:1]([C:2]#[C:3][H:8])[H:7]"
O        2.12716084       0.30714984      -0.14781294
C        0.81357808       0.39349825      -0.26391069
C       -0.18653636       1.11119959       0.09769072
N       -1.51202493      -0.37843509       0.52863587
N       -0.90621009      -1.39347415       0.06809238
N        0.24528063      -1.45197811      -0.27755632
H        2.34284471      -0.63138284      -0.07024468
H       -0.59580305       2.09789031       0.03477356
H       -2.32828983      -0.05446780       0.03033209
9
Frame=16 idx=004604 GeodesicLength=0.6030321791053138 rxn_smarts="[O:1]([c:2]1[c:3]([H:8])[n:4]([H:9])[n:5][n:6]1)[H:7]>>[N:4](=[N+:5]=[N-:6])[H:9].[O:1]([C:2]#[C:3][H:8])[H:7]"
O        2.11941166       0.30894999      -0.13496067
C        0.80715364       0.38978413      -0.27277398
C       -0.19626567       1.10655758       0.09567158
N       -1.49863868      -0.38548143       0.54009966
N       -0.90547518      -1.40042662       0.05889506
N        0.24367524      -1.44789053      -0.30844933
H        2.33534800      -0.62892889      -0.04825649
H       -0.59145467       2.09837097       0.01515307
H       -2.31375435      -0.04093522       0.05462110
