14
Frame=0 idx=000865 GeodesicLength=0.0 rxn_smarts="[C:1]([C:2]1([C:5]#[C:6][H:14])[C:3]([H:10])([H:11])[C:4]1([H:12])[H:13])([H:7])([H:8])[H:9]>>[C:1]([C:3]([C:4]([C-:2]=[C:5]=[C+:6][H:14])([H:12])[H:13])([H:10])[H:11])([H:7])([H:8])[H:9]"
C       -0.36045151       1.23834197      -0.77473239
C        0.03098405       0.28579678       0.84989793
C       -0.89974344      -0.50944251      -0.52713174
C       -0.91511748      -0.85503467       0.91595428
C        1.39650910      -0.08517923       0.70739093
C        2.57593482      -0.33081937       0.66493667
H       -1.18930145       1.88052301      -0.49609582
H       -0.38485615       1.05352197      -1.85681001
H        0.57857616       1.75292198      -0.60061347
H       -0.26279484      -1.12338935      -1.14983265
H       -1.86402265      -0.27239663      -0.95808501
H       -1.84801308      -0.67512160       1.44318882
H       -0.47707337      -1.82269593       1.13818828
H        3.61936986      -0.53702647       0.64374412
14
Frame=1 idx=000865 GeodesicLength=0.05727934945123346 rxn_smarts="[C:1]([C:2]1([C:5]#[C:6][H:14])[C:3]([H:10])([H:11])[C:4]1([H:12])[H:13])([H:7])([H:8])[H:9]>>[C:1]([C:3]([C:4]([C-:2]=[C:5]=[C+:6][H:14])([H:12])[H:13])([H:10])[H:11])([H:7])([H:8])[H:9]"
C       -0.36759362       1.24146994      -0.77044434
C        0.04687969       0.27214253       0.84480584
C       -0.89513616      -0.51611652      -0.53240364
C       -0.91975485      -0.84896110       0.91484253
C        1.40955904      -0.08967680       0.71935135
C        2.58820791      -0.33746101       0.61536981
H       -1.20859905       1.86779060      -0.49037673
H       -0.37827615       1.07374917      -1.85524830
H        0.55947838       1.77547672      -0.58782259
H       -0.25867351      -1.13737349      -1.14869812
H       -1.86078308      -0.29486314      -0.96933006
H       -1.84874657      -0.64187767       1.43916528
H       -0.49806969      -1.82088402       1.14995754
H        3.63150766      -0.54341522       0.67083144
14
Frame=2 idx=000865 GeodesicLength=0.11509199726176914 rxn_smarts="[C:1]([C:2]1([C:5]#[C:6][H:14])[C:3]([H:10])([H:11])[C:4]1([H:12])[H:13])([H:7])([H:8])[H:9]>>[C:1]([C:3]([C:4]([C-:2]=[C:5]=[C+:6][H:14])([H:12])[H:13])([H:10])[H:11])([H:7])([H:8])[H:9]"
C       -0.37528651       1.24444329      -0.76735337
C        0.06651493       0.25622458       0.83569319
C       -0.89320700      -0.52221479      -0.53857701
C       -0.92248280      -0.84265890       0.91271308
C        1.42540800      -0.09865916       0.72290884
C        2.60208550      -0.35348732       0.57846678
H       -1.22633687       1.85586055      -0.48295251
H       -0.37621855       1.09526190      -1.85463683
H        0.54051259       1.79631084      -0.57809325
H       -0.26066696      -1.15179135      -1.15085077
H       -1.86123334      -0.31482748      -0.97771444
H       -1.84460597      -0.60695949       1.43724371
H       -0.51852040      -1.81942160       1.15884009
H        3.64403738      -0.53808106       0.70431252
14
Frame=3 idx=000865 GeodesicLength=0.17332474348945098 rxn_smarts="[C:1]([C:2]1([C:5]#[C:6][H:14])[C:3]([H:10])([H:11])[C:4]1([H:12])[H:13])([H:7])([H:8])[H:9]>>[C:1]([C:3]([C:4]([C-:2]=[C:5]=[C+:6][H:14])([H:12])[H:13])([H:10])[H:11])([H:7])([H:8])[H:9]"
C       -0.38415488       1.24763408      -0.76474930
C        0.08633806       0.24099082       0.82541226
C       -0.89075476      -0.52855317      -0.54521517
C       -0.92365964      -0.83599708       0.91018248
C        1.44185569      -0.10558609       0.72591702
C        2.61860905      -0.35878235       0.55064149
H       -1.24571169       1.84311826      -0.47641870
H       -0.37523337       1.11744073      -1.85415574
H        0.51902447       1.81834754      -0.56800603
H       -0.26193170      -1.16626162      -1.15330437
H       -1.86141433      -0.33601521      -0.98598821
H       -1.83829927      -0.57262715       1.43483059
H       -0.53700260      -1.81691159       1.16751739
H        3.65233495      -0.54679717       0.73333630
14
Frame=4 idx=000865 GeodesicLength=0.23262467207687776 rxn_smarts="[C:1]([C:2]1([C:5]#[C:6][H:14])[C:3]([H:10])([H:11])[C:4]1([H:12])[H:13])([H:7])([H:8])[H:9]>>[C:1]([C:3]([C:4]([C-:2]=[C:5]=[C+:6][H:14])([H:12])[H:13])([H:10])[H:11])([H:7])([H:8])[H:9]"
C       -0.39359268       1.25073140      -0.76280074
C        0.10769783       0.22452857       0.81246514
C       -0.88999834      -0.53463804      -0.55255750
C       -0.92386888      -0.82901475       0.90693569
C        1.45944741      -0.11465088       0.72475542
C        2.63726130      -0.36771367       0.53077709
H       -1.26462421       1.83061536      -0.46938828
H       -0.37661663       1.14050727      -1.85403444
H        0.49686165       1.83953985      -0.55874033
H       -0.26674093      -1.18114686      -1.15751417
H       -1.86386849      -0.35602242      -0.99280972
H       -1.82910356      -0.53743569       1.43315279
H       -0.55529543      -1.81412264       1.17475057
H        3.66244096      -0.55117750       0.76500846
14
Frame=5 idx=000865 GeodesicLength=0.2931261539239588 rxn_smarts="[C:1]([C:2]1([C:5]#[C:6][H:14])[C:3]([H:10])([H:11])[C:4]1([H:12])[H:13])([H:7])([H:8])[H:9]>>[C:1]([C:3]([C:4]([C-:2]=[C:5]=[C+:6][H:14])([H:12])[H:13])([H:10])[H:11])([H:7])([H:8])[H:9]"
C       -0.40387957       1.25391487      -0.76148069
C        0.13042546       0.20724540       0.79678998
C       -0.89061767      -0.54048457      -0.56058212
C       -0.92278680      -0.82160682       0.90302306
C        1.47819950      -0.12487349       0.71966747
C        2.65795179      -0.38049707       0.51676887
H       -1.28365890       1.81821136      -0.46203365
H       -0.38036230       1.16458552      -1.85422192
H        0.47349868       1.86039858      -0.55000949
H       -0.27446185      -1.19626390      -1.16329149
H       -1.86832784      -0.37527671      -0.99826180
H       -1.81677539      -0.50160990       1.43212086
H       -0.57270905      -1.81073354       1.18082286
H        3.67350395      -0.55300975       0.80068806
14
Frame=6 idx=000865 GeodesicLength=0.35392810448787065 rxn_smarts="[C:1]([C:2]1([C:5]#[C:6][H:14])[C:3]([H:10])([H:11])[C:4]1([H:12])[H:13])([H:7])([H:8])[H:9]>>[C:1]([C:3]([C:4]([C-:2]=[C:5]=[C+:6][H:14])([H:12])[H:13])([H:10])[H:11])([H:7])([H:8])[H:9]"
C       -0.41441534       1.25696909      -0.76035733
C        0.15329393       0.18965961       0.77976074
C       -0.89160138      -0.54644497      -0.56897612
C       -0.92104340      -0.81383809       0.89876333
C        1.49719418      -0.13509293       0.71408908
C        2.68011051      -0.39019766       0.50569734
H       -1.30281926       1.80545796      -0.45525352
H       -0.38439032       1.18911685      -1.85420145
H        0.44907169       1.88100117      -0.54035868
H       -0.28302791      -1.21184316      -1.16932613
H       -1.87332389      -0.39465027      -1.00324537
H       -1.80279626      -0.46567392       1.43077737
H       -0.58970358      -1.80653633       1.18677224
H        3.68345106      -0.55792733       0.83585850
14
Frame=7 idx=000865 GeodesicLength=0.4153890133615659 rxn_smarts="[C:1]([C:2]1([C:5]#[C:6][H:14])[C:3]([H:10])([H:11])[C:4]1([H:12])[H:13])([H:7])([H:8])[H:9]>>[C:1]([C:3]([C:4]([C-:2]=[C:5]=[C+:6][H:14])([H:12])[H:13])([H:10])[H:11])([H:7])([H:8])[H:9]"
C       -0.42485742       1.25978859      -0.75943246
C        0.17675975       0.17088486       0.76072523
C       -0.89378664      -0.55234023      -0.57786961
C       -0.91882284      -0.80577429       0.89397784
C        1.51661981      -0.14704912       0.70665021
C        2.70335945      -0.40273042       0.49785104
H       -1.32125446       1.79279632      -0.44851783
H       -0.38893226       1.21424589      -1.85397113
H        0.42444894       1.90053884      -0.53001123
H       -0.29409380      -1.22801206      -1.17618825
H       -1.87983701      -0.41320017      -1.00729011
H       -1.78674555      -0.42915549       1.42951363
H       -0.60694231      -1.80182540       1.19211048
H        3.69408433      -0.55816734       0.87245222
14
Frame=8 idx=000865 GeodesicLength=0.4776066782428418 rxn_smarts="[C:1]([C:2]1([C:5]#[C:6][H:14])[C:3]([H:10])([H:11])[C:4]1([H:12])[H:13])([H:7])([H:8])[H:9]>>[C:1]([C:3]([C:4]([C-:2]=[C:5]=[C+:6][H:14])([H:12])[H:13])([H:10])[H:11])([H:7])([H:8])[H:9]"
C       -0.43606539       1.26263775      -0.75904960
C        0.20100561       0.15168910       0.73913836
C       -0.89690744      -0.55818394      -0.58728374
C       -0.91508931      -0.79735706       0.88864601
C        1.53686280      -0.15905458       0.69657601
C        2.72898982      -0.41246342       0.49286292
H       -1.34009332       1.77996608      -0.44199325
H       -0.39506211       1.24015251      -1.85383961
H        0.39845155       1.91976128      -0.51951218
H       -0.30720604      -1.24444928      -1.18401115
H       -1.88785864      -0.43159831      -1.01002137
H       -1.76761979      -0.39260820       1.42854013
H       -0.62267070      -1.79628598       1.19683714
H        3.70326296      -0.56220596       0.91311034
14
Frame=9 idx=000865 GeodesicLength=0.5404256070107165 rxn_smarts="[C:1]([C:2]1([C:5]#[C:6][H:14])[C:3]([H:10])([H:11])[C:4]1([H:12])[H:13])([H:7])([H:8])[H:9]>>[C:1]([C:3]([C:4]([C-:2]=[C:5]=[C+:6][H:14])([H:12])[H:13])([H:10])[H:11])([H:7])([H:8])[H:9]"
C       -0.44769927       1.26545712      -0.75904218
C        0.22581361       0.13193018       0.71516986
C       -0.90089080      -0.56399303      -0.59717798
C       -0.91013619      -0.78855947       0.88277127
C        1.55771597      -0.17128092       0.68450808
C        2.75609896      -0.42175662       0.49054999
H       -1.35906942       1.76697192      -0.43583770
H       -0.40205663       1.26678919      -1.85358830
H        0.37139011       1.93845672      -0.50831410
H       -0.32221379      -1.26123449      -1.19253826
H       -1.89717703      -0.44979864      -1.01161546
H       -1.74575841      -0.35591481       1.42761243
H       -0.63727451      -1.78986443       1.20114158
H        3.71125740      -0.56720272       0.95636077
14
Frame=10 idx=000865 GeodesicLength=0.6036012859624447 rxn_smarts="[C:1]([C:2]1([C:5]#[C:6][H:14])[C:3]([H:10])([H:11])[C:4]1([H:12])[H:13])([H:7])([H:8])[H:9]>>[C:1]([C:3]([C:4]([C-:2]=[C:5]=[C+:6][H:14])([H:12])[H:13])([H:10])[H:11])([H:7])([H:8])[H:9]"
C       -0.45939572       1.26816884      -0.75923408
C        0.25091939       0.11147856       0.68909629
C       -0.90562323      -0.56981093      -0.60748165
C       -0.90425538      -0.77938357       0.87638392
C        1.57892100      -0.18386270       0.67122295
C        2.78393367      -0.43160712       0.49036075
H       -1.37794129       1.75378791      -0.43028994
H       -0.40905168       1.29404240      -1.85297330
H        0.34354529       1.95642047      -0.49581803
H       -0.33890299      -1.27846962      -1.20145786
H       -1.90753080      -0.46780153      -1.01225513
H       -1.72155890      -0.31904449       1.42645392
H       -0.65114165      -1.78251947       1.20524426
H        3.71808229      -0.57139876       1.00074792
14
Frame=11 idx=000865 GeodesicLength=0.6669954986344147 rxn_smarts="[C:1]([C:2]1([C:5]#[C:6][H:14])[C:3]([H:10])([H:11])[C:4]1([H:12])[H:13])([H:7])([H:8])[H:9]>>[C:1]([C:3]([C:4]([C-:2]=[C:5]=[C+:6][H:14])([H:12])[H:13])([H:10])[H:11])([H:7])([H:8])[H:9]"
C       -0.47186957       1.27093178      -0.75990034
C        0.27627004       0.09139729       0.66092531
C       -0.91046922      -0.57577823      -0.61805583
C       -0.89667798      -0.76966746       0.86961437
C        1.60065350      -0.19458964       0.65698181
C        2.81344253      -0.43477297       0.49160141
H       -1.39784536       1.73995947      -0.42591143
H       -0.41654127       1.32189004      -1.85221498
H        0.31363614       1.97434035      -0.48225952
H       -0.35605871      -1.29598609      -1.21038507
H       -1.91831383      -0.48660075      -1.01182900
H       -1.69469786      -0.28243589       1.42496844
H       -0.66277378      -1.77380691       1.20954860
H        3.72124537      -0.58488100       1.04691622
14
Frame=12 idx=000865 GeodesicLength=0.7302787243418292 rxn_smarts="[C:1]([C:2]1([C:5]#[C:6][H:14])[C:3]([H:10])([H:11])[C:4]1([H:12])[H:13])([H:7])([H:8])[H:9]>>[C:1]([C:3]([C:4]([C-:2]=[C:5]=[C+:6][H:14])([H:12])[H:13])([H:10])[H:11])([H:7])([H:8])[H:9]"
C       -0.48410182       1.27350576      -0.76061870
C        0.30143562       0.07085057       0.63126943
C       -0.91563157      -0.58187979      -0.62886713
C       -0.88842785      -0.75955538       0.86242421
C        1.62230377      -0.20490820       0.64311142
C        2.84285676      -0.43690798       0.49421614
H       -1.41763649       1.72577706      -0.42273092
H       -0.42293066       1.35019948      -1.85080712
H        0.28296966       1.99128618      -0.46672341
H       -0.37400689      -1.31402084      -1.21905637
H       -1.92944882      -0.50555086      -1.01072570
H       -1.66619764      -0.24584268       1.42276877
H       -0.67379071      -1.76400175       1.21405608
H        3.72260665      -0.59895156       1.09168330
14
Frame=13 idx=000865 GeodesicLength=0.7935779541550018 rxn_smarts="[C:1]([C:2]1([C:5]#[C:6][H:14])[C:3]([H:10])([H:11])[C:4]1([H:12])[H:13])([H:7])([H:8])[H:9]>>[C:1]([C:3]([C:4]([C-:2]=[C:5]=[C+:6][H:14])([H:12])[H:13])([H:10])[H:11])([H:7])([H:8])[H:9]"
C       -0.49573589       1.27570269      -0.76144914
C        0.32653247       0.04903636       0.59961725
C       -0.92181179      -0.58806841      -0.63998062
C       -0.87958079      -0.74931734       0.85465276
C        1.64380342      -0.21612355       0.62890564
C        2.87261112      -0.43688210       0.49868853
H       -1.43651660       1.71160473      -0.42028724
H       -0.42837249       1.37890321      -1.84876665
H        0.25255832       2.00638317      -0.44961940
H       -0.39410055      -1.33268078      -1.22786910
H       -1.94176437      -0.52397848      -1.00846626
H       -1.63566589      -0.20932831       1.42008621
H       -0.68455792      -1.75351393       1.21831164
H        3.72260096      -0.61173724       1.13617637
14
Frame=14 idx=000865 GeodesicLength=0.8570465394335136 rxn_smarts="[C:1]([C:2]1([C:5]#[C:6][H:14])[C:3]([H:10])([H:11])[C:4]1([H:12])[H:13])([H:7])([H:8])[H:9]>>[C:1]([C:3]([C:4]([C-:2]=[C:5]=[C+:6][H:14])([H:12])[H:13])([H:10])[H:11])([H:7])([H:8])[H:9]"
C       -0.50664940       1.27738462      -0.76251186
C        0.35174288       0.02541903       0.56536804
C       -0.92947250      -0.59436334      -0.65140166
C       -0.86989359      -0.73913988       0.84619505
C        1.66525044      -0.22892451       0.61330455
C        2.90340351      -0.43146449       0.50555545
H       -1.45411526       1.69760745      -0.41829631
H       -0.43303351       1.40792016      -1.84615651
H        0.22293743       2.01911697      -0.43129105
H       -0.41731953      -1.35206571      -1.23706106
H       -1.95584250      -0.54155139      -1.00454844
H       -1.60244361      -0.17298766       1.41712230
H       -0.69494055      -1.74255766       1.22209845
H        3.72037622      -0.62439359       1.18162307
14
Frame=15 idx=000865 GeodesicLength=0.9205312202320468 rxn_smarts="[C:1]([C:2]1([C:5]#[C:6][H:14])[C:3]([H:10])([H:11])[C:4]1([H:12])[H:13])([H:7])([H:8])[H:9]>>[C:1]([C:3]([C:4]([C-:2]=[C:5]=[C+:6][H:14])([H:12])[H:13])([H:10])[H:11])([H:7])([H:8])[H:9]"
C       -0.51589222       1.27837582      -0.76344124
C        0.37686663      -0.00139786       0.52834751
C       -0.93930499      -0.60061428      -0.66322806
C       -0.85996293      -0.72942494       0.83681771
C        1.68626574      -0.24546620       0.59616016
C        2.93364613      -0.42727192       0.51411173
H       -1.46912758       1.68435162      -0.41615252
H       -0.43589815       1.43733153      -1.84249629
H        0.19584540       2.02848083      -0.41125092
H       -0.44505700      -1.37218461      -1.24694395
H       -1.97233128      -0.55717318      -0.99889757
H       -1.56651083      -0.13689795       1.41383845
H       -0.70613916      -1.73169258       1.22493063
H        3.71760024      -0.62641628       1.22820436
14
Frame=16 idx=000865 GeodesicLength=0.9838022847564939 rxn_smarts="[C:1]([C:2]1([C:5]#[C:6][H:14])[C:3]([H:10])([H:11])[C:4]1([H:12])[H:13])([H:7])([H:8])[H:9]>>[C:1]([C:3]([C:4]([C-:2]=[C:5]=[C+:6][H:14])([H:12])[H:13])([H:10])[H:11])([H:7])([H:8])[H:9]"
C       -0.52328036       1.27845873      -0.76432913
C        0.40144406      -0.03128980       0.48909660
C       -0.95095546      -0.60706280      -0.67522909
C       -0.84989888      -0.72021015       0.82671925
C        1.70641900      -0.26512624       0.57867326
C        2.96357110      -0.41540101       0.52470033
H       -1.48163622       1.67159485      -0.41443301
H       -0.43614063       1.46661385      -1.83777828
H        0.17129353       2.03437475      -0.38947001
H       -0.47665302      -1.39321070      -1.25686005
H       -1.99070942      -0.57131547      -0.99166426
H       -1.52831521      -0.10131216       1.40989426
H       -0.71820047      -1.72074985       1.22733284
H        3.71306198      -0.62536401       1.27334731
