15
Frame=0 idx=006424 GeodesicLength=0.0 rxn_smarts="[C:1]([O:2][C:3](=[O:4])[C@@:5]([C:6]([H:12])([H:13])[H:14])([O:7][H:15])[H:11])([H:8])([H:9])[H:10]>>[C:1]([O:2][C@:3]1([O:4][H:15])[C@:5]([C:6]([H:12])([H:13])[H:14])([H:11])[O:7]1)([H:8])([H:9])[H:10]"
C        2.42491085      -0.14666965       0.91430431
O        1.18551178       0.54705138       0.66638077
C        0.22576503      -0.08777618       0.09126160
O        0.49272127      -1.23769235      -0.46093691
C       -1.18407472       0.36067940       0.16566606
C       -1.89250067       0.62049863      -1.15603403
O       -1.52149177      -0.79933389       0.81495684
H        2.22469794      -1.06469903       1.46350962
H        3.01971463       0.53833040       1.50998313
H        2.92183126      -0.37149814      -0.02702531
H       -1.22713292       1.26592897       0.79413458
H       -1.54218956       1.53579402      -1.64019934
H       -2.95875795       0.71846786      -0.94753033
H       -1.76116414      -0.21918938      -1.84194878
H       -0.40784099      -1.65989204      -0.34652222
15
Frame=1 idx=006424 GeodesicLength=0.0818836678134053 rxn_smarts="[C:1]([O:2][C:3](=[O:4])[C@@:5]([C:6]([H:12])([H:13])[H:14])([O:7][H:15])[H:11])([H:8])([H:9])[H:10]>>[C:1]([O:2][C@:3]1([O:4][H:15])[C@:5]([C:6]([H:12])([H:13])[H:14])([H:11])[O:7]1)([H:8])([H:9])[H:10]"
C        2.42162433      -0.14145679       0.91460400
O        1.18798130       0.55254687       0.64583064
C        0.22526747      -0.09678791       0.08568783
O        0.49270907      -1.24695999      -0.46535028
C       -1.18169705       0.35917619       0.16402196
C       -1.89058618       0.62761031      -1.15431347
O       -1.50616351      -0.81476499       0.80089237
H        2.21625345      -1.04502126       1.48587911
H        3.01950748       0.55428344       1.49478007
H        2.92040759      -0.39210589      -0.01942244
H       -1.22838460       1.25348341       0.80618706
H       -1.54047219       1.54811650      -1.62836491
H       -2.95728628       0.72050316      -0.94579292
H       -1.75660956      -0.20475843      -1.84844846
H       -0.42255130      -1.67386462      -0.33619056
15
Frame=2 idx=006424 GeodesicLength=0.16375721430776272 rxn_smarts="[C:1]([O:2][C:3](=[O:4])[C@@:5]([C:6]([H:12])([H:13])[H:14])([O:7][H:15])[H:11])([H:8])([H:9])[H:10]>>[C:1]([O:2][C@:3]1([O:4][H:15])[C@:5]([C:6]([H:12])([H:13])[H:14])([H:11])[O:7]1)([H:8])([H:9])[H:10]"
C        2.41825251      -0.13611492       0.91489246
O        1.19026821       0.55743196       0.62548064
C        0.22476862      -0.10605973       0.08026733
O        0.49291122      -1.25621024      -0.47003760
C       -1.17922057       0.35758739       0.16248043
C       -1.88856743       0.63458515      -1.15245071
O       -1.49120156      -0.82960113       0.78720817
H        2.20791909      -1.02486662       1.50761207
H        3.01913660       0.56991436       1.47956486
H        2.91883331      -0.41203861      -0.01124811
H       -1.22930248       1.24095276       0.81790518
H       -1.53836553       1.55996100      -1.61657577
H       -2.95565775       0.72280826      -0.94395673
H       -1.75224943      -0.19057741      -1.85454661
H       -0.43752479      -1.68777221      -0.32659562
15
Frame=3 idx=006424 GeodesicLength=0.24562620253116313 rxn_smarts="[C:1]([O:2][C:3](=[O:4])[C@@:5]([C:6]([H:12])([H:13])[H:14])([O:7][H:15])[H:11])([H:8])([H:9])[H:10]>>[C:1]([O:2][C@:3]1([O:4][H:15])[C@:5]([C:6]([H:12])([H:13])[H:14])([H:11])[O:7]1)([H:8])([H:9])[H:10]"
C        2.41480129      -0.13064762       0.91517076
O        1.19238619       0.56174347       0.60532963
C        0.22427583      -0.11557225       0.07498721
O        0.49333496      -1.26544044      -0.47499643
C       -1.17664532       0.35591814       0.16104006
C       -1.88644518       0.64143108      -1.15045276
O       -1.47658550      -0.84389694       0.77389809
H        2.19967218      -1.00424365       1.52874793
H        3.01862324       0.58524269       1.46432493
H        2.91711950      -0.43133893      -0.00252450
H       -1.22990696       1.22835028       0.82931436
H       -1.53589169       1.57136597      -1.60482742
H       -2.95388382       0.72535560      -0.94201876
H       -1.74805611      -0.17663237      -1.86027707
H       -0.45279861      -1.70163505      -0.31771603
15
Frame=4 idx=006424 GeodesicLength=0.32748059229391224 rxn_smarts="[C:1]([O:2][C:3](=[O:4])[C@@:5]([C:6]([H:12])([H:13])[H:14])([O:7][H:15])[H:11])([H:8])([H:9])[H:10]>>[C:1]([O:2][C@:3]1([O:4][H:15])[C@:5]([C:6]([H:12])([H:13])[H:14])([H:11])[O:7]1)([H:8])([H:9])[H:10]"
C        2.41127660      -0.12505457       0.91542560
O        1.19432658       0.56548713       0.58543404
C        0.22378484      -0.12532014       0.06986369
O        0.49396159      -1.27464325      -0.48018907
C       -1.17397127       0.35417044       0.15969538
C       -1.88420452       0.64814983      -1.14833215
O       -1.46231232      -0.85768726       0.76094916
H        2.19154609      -0.98318582       1.54925443
H        3.01797889       0.60026555       1.44906438
H        2.91524870      -0.44996338       0.00669570
H       -1.23021471       1.21567972       0.84041753
H       -1.53303881       1.58234285      -1.59312251
H       -2.95195393       0.72813116      -0.94000351
H       -1.74399899      -0.16291562      -1.86565783
H       -0.46842873      -1.71545665      -0.30949483
15
Frame=5 idx=006424 GeodesicLength=0.40932423253495953 rxn_smarts="[C:1]([O:2][C:3](=[O:4])[C@@:5]([C:6]([H:12])([H:13])[H:14])([O:7][H:15])[H:11])([H:8])([H:9])[H:10]>>[C:1]([O:2][C@:3]1([O:4][H:15])[C@:5]([C:6]([H:12])([H:13])[H:14])([H:11])[O:7]1)([H:8])([H:9])[H:10]"
C        2.40768674      -0.11936173       0.91565998
O        1.19609003       0.56868107       0.56587188
C        0.22330475      -0.13525526       0.06487923
O        0.49480143      -1.28376619      -0.48562914
C       -1.17119779       0.35237786       0.15842384
C       -1.88185361       0.65472342      -1.14609403
O       -1.44834543      -0.87094243       0.74835770
H        2.18354979      -0.96180627       1.56904242
H        3.01720134       0.61491330       1.43387174
H        2.91324528      -0.46783154       0.01636364
H       -1.23025880       1.20298762       0.85116732
H       -1.52983836       1.59285360      -1.58149753
H       -2.94988066       0.73110501      -0.93790692
H       -1.74007516      -0.14946217      -1.87066372
H       -0.48442957      -1.72921629      -0.30184641
15
Frame=6 idx=006424 GeodesicLength=0.49115791815285126 rxn_smarts="[C:1]([O:2][C:3](=[O:4])[C@@:5]([C:6]([H:12])([H:13])[H:14])([O:7][H:15])[H:11])([H:8])([H:9])[H:10]>>[C:1]([O:2][C@:3]1([O:4][H:15])[C@:5]([C:6]([H:12])([H:13])[H:14])([H:11])[O:7]1)([H:8])([H:9])[H:10]"
C        2.40401375      -0.11356652       0.91589591
O        1.19773193       0.57140368       0.54648503
C        0.22286723      -0.14535425       0.05995627
O        0.49588398      -1.29282352      -0.49136470
C       -1.16829657       0.35052396       0.15723412
C       -1.87941346       0.66117142      -1.14372826
O       -1.43460277      -0.88378185       0.73612853
H        2.17554188      -0.94000326       1.58830387
H        3.01629241       0.62926334       1.41868608
H        2.91113660      -0.48516067       0.02655020
H       -1.23000162       1.19026704       0.86163635
H       -1.52635867       1.60299399      -1.56991954
H       -2.94768429       0.73423386      -0.93566600
H       -1.73628966      -0.13623219      -1.87535404
H       -0.50082075      -1.74293503      -0.29484381
15
Frame=7 idx=006424 GeodesicLength=0.5729891796493404 rxn_smarts="[C:1]([O:2][C:3](=[O:4])[C@@:5]([C:6]([H:12])([H:13])[H:14])([O:7][H:15])[H:11])([H:8])([H:9])[H:10]>>[C:1]([O:2][C@:3]1([O:4][H:15])[C@:5]([C:6]([H:12])([H:13])[H:14])([H:11])[O:7]1)([H:8])([H:9])[H:10]"
C        2.40027594      -0.10768299       0.91611906
O        1.19922727       0.57365786       0.52742688
C        0.22246031      -0.15558896       0.05513364
O        0.49719415      -1.30177090      -0.49736494
C       -1.16528038       0.34863733       0.15611564
C       -1.87687188       0.66747570      -1.14125925
O       -1.42109471      -0.89617540       0.72426349
H        2.16761553      -0.91792987       1.60689820
H        3.01526508       0.64324850       1.40359859
H        2.90890243      -0.50178573       0.03713913
H       -1.22948945       1.17756264       0.87179367
H       -1.52257823       1.61271631      -1.55844705
H       -2.94535541       0.73751154      -0.93332276
H       -1.73262665      -0.12326981      -1.87972144
H       -0.51764398      -1.75660624      -0.28837284
15
Frame=8 idx=006424 GeodesicLength=0.6548080839086472 rxn_smarts="[C:1]([O:2][C:3](=[O:4])[C@@:5]([C:6]([H:12])([H:13])[H:14])([O:7][H:15])[H:11])([H:8])([H:9])[H:10]>>[C:1]([O:2][C@:3]1([O:4][H:15])[C@:5]([C:6]([H:12])([H:13])[H:14])([H:11])[O:7]1)([H:8])([H:9])[H:10]"
C        2.39645427      -0.10170996       0.91635305
O        1.20063320       0.57548762       0.50853065
C        0.22211638      -0.16595888       0.05031668
O        0.49876059      -1.31062921      -0.50367750
C       -1.16211858       0.34669766       0.15505690
C       -1.87425110       0.67365497      -1.13866140
O       -1.40773623      -0.90819594       0.71272981
H        2.15962055      -0.89545318       1.62498838
H        3.01412034       0.65693333       1.38854269
H        2.90657570      -0.51790874       0.04824301
H       -1.22867952       1.16483348       0.88166849
H       -1.51857569       1.62209131      -1.54701003
H       -2.94291578       0.74089960      -0.93081151
H       -1.72908733      -0.11051361      -1.88378823
H       -0.53491679      -1.77022845      -0.28248099
15
Frame=9 idx=006424 GeodesicLength=0.7366374623816914 rxn_smarts="[C:1]([O:2][C:3](=[O:4])[C@@:5]([C:6]([H:12])([H:13])[H:14])([O:7][H:15])[H:11])([H:8])([H:9])[H:10]>>[C:1]([O:2][C@:3]1([O:4][H:15])[C@:5]([C:6]([H:12])([H:13])[H:14])([H:11])[O:7]1)([H:8])([H:9])[H:10]"
C        2.39258125      -0.09564660       0.91655520
O        1.20188537       0.57690383       0.49001244
C        0.22179829      -0.17646508       0.04561493
O        0.50055647      -1.31939995      -0.51022043
C       -1.15885322       0.34472561       0.15407369
C       -1.87150914       0.67970630      -1.13598310
O       -1.39460683      -0.91984951       0.70155696
H        2.15173558      -0.87277029       1.64242318
H        3.01287300       0.67029748       1.37358662
H        2.90412929      -0.53331485       0.05963617
H       -1.22766862       1.15213311       0.89127308
H       -1.51426395       1.63110729      -1.53568135
H       -2.94033751       0.74441639      -0.92822961
H       -1.72560338      -0.09800615      -1.88758641
H       -0.55271660      -1.78383757      -0.27703137
15
Frame=10 idx=006424 GeodesicLength=0.8184564233147874 rxn_smarts="[C:1]([O:2][C:3](=[O:4])[C@@:5]([C:6]([H:12])([H:13])[H:14])([O:7][H:15])[H:11])([H:8])([H:9])[H:10]>>[C:1]([O:2][C@:3]1([O:4][H:15])[C@:5]([C:6]([H:12])([H:13])[H:14])([H:11])[O:7]1)([H:8])([H:9])[H:10]"
C        2.38861786      -0.08950602       0.91677947
O        1.20309278       0.57792952       0.47161481
C        0.22156506      -0.18705804       0.04086600
O        0.50262593      -1.32800897      -0.51709561
C       -1.15541994       0.34269603       0.15312760
C       -1.86869668       0.68561739      -1.13316106
O       -1.38154842      -0.93116912       0.69066130
H        2.14369893      -0.84964783       1.65937522
H        3.01153539       0.68332846       1.35865568
H        2.90158128      -0.54828610       0.07159992
H       -1.22634535       1.13938900       0.90058976
H       -1.50977294       1.63976546      -1.52435511
H       -2.93765396       0.74798177      -0.92544934
H       -1.72224565      -0.08569066      -1.89107696
H       -0.57103427      -1.79734089      -0.27213170
15
Frame=11 idx=006424 GeodesicLength=0.9002783989210842 rxn_smarts="[C:1]([O:2][C:3](=[O:4])[C@@:5]([C:6]([H:12])([H:13])[H:14])([O:7][H:15])[H:11])([H:8])([H:9])[H:10]>>[C:1]([O:2][C@:3]1([O:4][H:15])[C@:5]([C:6]([H:12])([H:13])[H:14])([H:11])[O:7]1)([H:8])([H:9])[H:10]"
C        2.38457569      -0.08328231       0.91701117
O        1.20423145       0.57860724       0.45340863
C        0.22140912      -0.19775304       0.03609579
O        0.50497467      -1.33650822      -0.52428941
C       -1.15183455       0.34061963       0.15223642
C       -1.86579870       0.69140821      -1.13022709
O       -1.36857645      -0.94220337       0.68007970
H        2.13557091      -0.82618321       1.67583507
H        3.01010661       0.69607140       1.34377922
H        2.89893057      -0.56276779       0.08400653
H       -1.22475681       1.12663991       0.90966476
H       -1.50508526       1.64812109      -1.51307780
H       -2.93486002       0.75161438      -0.92250141
H       -1.71897113      -0.07357537      -1.89431601
H       -0.58991610      -1.81080854      -0.26770557
15
Frame=12 idx=006424 GeodesicLength=0.9821067610073807 rxn_smarts="[C:1]([O:2][C:3](=[O:4])[C@@:5]([C:6]([H:12])([H:13])[H:14])([O:7][H:15])[H:11])([H:8])([H:9])[H:10]>>[C:1]([O:2][C@:3]1([O:4][H:15])[C@:5]([C:6]([H:12])([H:13])[H:14])([H:11])[O:7]1)([H:8])([H:9])[H:10]"
C        2.38045433      -0.07697914       0.91725093
O        1.20531598       0.57895351       0.43539536
C        0.22133821      -0.20853459       0.03128535
O        0.50760859      -1.34487589      -0.53180639
C       -1.14808938       0.33849576       0.15139102
C       -1.86281467       0.69707252      -1.12717963
O       -1.35566386      -0.95296892       0.66979279
H        2.12732982      -0.80238597       1.69179218
H        3.00859426       0.70851538       1.32897337
H        2.89617540      -0.57675877       0.09685284
H       -1.22290123       1.11388150       0.91849593
H       -1.50020993       1.65617107      -1.50184451
H       -2.93195501       0.75529263      -0.91937912
H       -1.71577703      -0.06165976      -1.89730373
H       -0.60940547      -1.82421935      -0.26371641
15
Frame=13 idx=006424 GeodesicLength=1.063939845562859 rxn_smarts="[C:1]([O:2][C:3](=[O:4])[C@@:5]([C:6]([H:12])([H:13])[H:14])([O:7][H:15])[H:11])([H:8])([H:9])[H:10]>>[C:1]([O:2][C@:3]1([O:4][H:15])[C@:5]([C:6]([H:12])([H:13])[H:14])([H:11])[O:7]1)([H:8])([H:9])[H:10]"
C        2.37625268      -0.07060166       0.91750463
O        1.20636251       0.57899338       0.41756091
C        0.22136482      -0.21938850       0.02640599
O        0.51054601      -1.35310415      -0.53966573
C       -1.14417556       0.33632655       0.15058635
C       -1.85975291       0.70261216      -1.12402138
O       -1.34276964      -0.96349314       0.65979322
H        2.11894810      -0.77826344       1.70726217
H        3.00700274       0.72065917       1.31425357
H        2.89331853      -0.59028218       0.11014057
H       -1.22077572       1.10111891       0.92709402
H       -1.49517486       1.66393226      -1.49066136
H       -2.92894625       0.75900165      -0.91606886
H       -1.71266762      -0.04994164      -1.90005439
H       -0.62953282      -1.83756936      -0.26012972
15
Frame=14 idx=006424 GeodesicLength=1.1457786613200007 rxn_smarts="[C:1]([O:2][C:3](=[O:4])[C@@:5]([C:6]([H:12])([H:13])[H:14])([O:7][H:15])[H:11])([H:8])([H:9])[H:10]>>[C:1]([O:2][C@:3]1([O:4][H:15])[C@:5]([C:6]([H:12])([H:13])[H:14])([H:11])[O:7]1)([H:8])([H:9])[H:10]"
C        2.37197751      -0.06414777       0.91775697
O        1.20736287       0.57872136       0.39996814
C        0.22148104      -0.23031508       0.02148087
O        0.51376867      -1.36116027      -0.54782157
C       -1.14009579       0.33410300       0.14980931
C       -1.85658974       0.70800999      -1.12075332
O       -1.32991000      -0.97376658       0.65004376
H        2.11046736      -0.75386106       1.72216388
H        3.00533959       0.73248125       1.29964470
H        2.89034078      -0.60324955       0.12381859
H       -1.21839453       1.08832427       0.93543386
H       -1.48994071       1.67136460      -1.47951353
H       -2.92581246       0.76272395      -0.91260095
H       -1.70961558      -0.03842232      -1.90254915
H       -0.65037900      -1.85080578      -0.25688157
15
Frame=15 idx=006424 GeodesicLength=1.2276347074596843 rxn_smarts="[C:1]([O:2][C:3](=[O:4])[C@@:5]([C:6]([H:12])([H:13])[H:14])([O:7][H:15])[H:11])([H:8])([H:9])[H:10]>>[C:1]([O:2][C@:3]1([O:4][H:15])[C@:5]([C:6]([H:12])([H:13])[H:14])([H:11])[O:7]1)([H:8])([H:9])[H:10]"
C        2.36760170      -0.05761134       0.91803601
O        1.20837884       0.57818345       0.38243458
C        0.22172693      -0.24130838       0.01640176
O        0.51733610      -1.36908000      -0.55637119
C       -1.13581616       0.33181026       0.14906435
C       -1.85335470       0.71329353      -1.11735488
O       -1.31698339      -0.98387790       0.64053411
H        2.10171650      -0.72901854       1.73667136
H        3.00361238       0.74403761       1.28507188
H        2.88724453      -0.61588354       0.13803060
H       -1.21569818       1.07548206       0.94357905
H       -1.48459384       1.67856014      -1.46835948
H       -2.92257863       0.76643610      -0.90889215
H       -1.70664150      -0.02705354      -1.90483214
H       -0.67195058      -1.86396990      -0.25401387
15
Frame=16 idx=006424 GeodesicLength=1.3094970351346227 rxn_smarts="[C:1]([O:2][C:3](=[O:4])[C@@:5]([C:6]([H:12])([H:13])[H:14])([O:7][H:15])[H:11])([H:8])([H:9])[H:10]>>[C:1]([O:2][C@:3]1([O:4][H:15])[C@:5]([C:6]([H:12])([H:13])[H:14])([H:11])[O:7]1)([H:8])([H:9])[H:10]"
C        2.36315072      -0.05100691       0.91832256
O        1.20937787       0.57738975       0.36512260
C        0.22208674      -0.25234702       0.01122351
O        0.52123182      -1.37681624      -0.56526634
C       -1.13135634       0.32946576       0.14834261
C       -1.85003116       0.71843978      -1.11385562
O       -1.30401631      -0.99380058       0.63126385
H        2.09281505      -0.70392614       1.75063557
H        3.00181963       0.75527709       1.27065107
H        2.88403336      -0.62799567       0.15261652
H       -1.21274245       1.06262320       0.95149616
H       -1.47909257       1.68546559      -1.45726218
H       -2.91923171       0.77013460      -0.90500134
H       -1.70372965      -0.01588532      -1.90689514
H       -0.69431500      -1.87701789      -0.25139383
