11
Frame=0 idx=009096 GeodesicLength=0.0 rxn_smarts="[O:1]=[C:2]1[C:3]([H:8])([H:9])[C:4]([H:10])=[C:5]([H:11])[C:6]1=[O:7]>>[O:1]=[C:2]([C:3]([C:4](=[O:7])[H:10])([H:8])[H:9])[C:6]#[C:5][H:11]"
O       -0.47779116       2.42042766      -0.58067525
C       -0.27294926       1.28999897      -0.29081423
C       -1.14756846       0.03997980      -0.17146928
C        0.06929871      -0.78727031       0.24654832
C        1.36162661      -0.51761466      -0.70461527
C        0.96979145       0.51305970       0.18725282
O        0.75417175       0.16807478       1.45789528
H       -1.93372884       0.11853223       0.57810125
H       -1.55237585      -0.28724512      -1.12763429
H        0.12364104      -1.78568121       0.64704976
H        2.10588399      -1.17226179      -0.24163906
11
Frame=1 idx=009096 GeodesicLength=0.14410112504118544 rxn_smarts="[O:1]=[C:2]1[C:3]([H:8])([H:9])[C:4]([H:10])=[C:5]([H:11])[C:6]1=[O:7]>>[O:1]=[C:2]([C:3]([C:4](=[O:7])[H:10])([H:8])[H:9])[C:6]#[C:5][H:11]"
O       -0.48441865       2.41982616      -0.57405773
C       -0.27029736       1.28554998      -0.30506295
C       -1.14873518       0.03986508      -0.17034650
C        0.05631035      -0.79463089       0.26476799
C        1.36813733      -0.51567829      -0.69788757
C        0.98049369       0.52448250       0.17766250
O        0.75409923       0.17481529       1.47681740
H       -1.93771694       0.13460418       0.57423080
H       -1.55267453      -0.29401574      -1.12476050
H        0.11078034      -1.80443140       0.63633426
H        2.12402172      -1.17038687      -0.25769769
11
Frame=2 idx=009096 GeodesicLength=0.28819729965310154 rxn_smarts="[O:1]=[C:2]1[C:3]([H:8])([H:9])[C:4]([H:10])=[C:5]([H:11])[C:6]1=[O:7]>>[O:1]=[C:2]([C:3]([C:4](=[O:7])[H:10])([H:8])[H:9])[C:6]#[C:5][H:11]"
O       -0.49075680       2.41856338      -0.56787966
C       -0.26765861       1.28094119      -0.31906524
C       -1.14978127       0.03969923      -0.16891494
C        0.04294217      -0.80191945       0.28392090
C        1.37481396      -0.51384256      -0.69066527
C        0.99145839       0.53624269       0.16764397
O        0.75385334       0.18191075       1.49648686
H       -1.94164832       0.15061016       0.57021577
H       -1.55278550      -0.30102336      -1.12149589
H        0.09699620      -1.82302494       0.62429646
H        2.14256643      -1.16815708      -0.27454297
11
Frame=3 idx=009096 GeodesicLength=0.43228672377676447 rxn_smarts="[O:1]=[C:2]1[C:3]([H:8])([H:9])[C:4]([H:10])=[C:5]([H:11])[C:6]1=[O:7]>>[O:1]=[C:2]([C:3]([C:4](=[O:7])[H:10])([H:8])[H:9])[C:6]#[C:5][H:11]"
O       -0.49677417       2.41663212      -0.56223939
C       -0.26503041       1.27615040      -0.33274847
C       -1.15069411       0.03945645      -0.16715076
C        0.02916603      -0.80916725       0.30404616
C        1.38168101      -0.51210791      -0.68289265
C        1.00269697       0.54832577       0.15719067
O        0.75339362       0.18933840       1.51696579
H       -1.94552904       0.16650902       0.56605288
H       -1.55268442      -0.30826793      -1.11782692
H        0.08224963      -1.84132296       0.61089969
H        2.16152490      -1.16554610      -0.29229701
11
Frame=4 idx=009096 GeodesicLength=0.5763692242289917 rxn_smarts="[O:1]=[C:2]1[C:3]([H:8])([H:9])[C:4]([H:10])=[C:5]([H:11])[C:6]1=[O:7]>>[O:1]=[C:2]([C:3]([C:4](=[O:7])[H:10])([H:8])[H:9])[C:6]#[C:5][H:11]"
O       -0.50244782       2.41403548      -0.55719606
C       -0.26240191       1.27114947      -0.34605708
C       -1.15145992       0.03910863      -0.16504013
C        0.01494689      -0.81641383       0.32517085
C        1.38876925      -0.51048298      -0.67450937
C        1.01422379       0.56071190       0.14628812
O        0.75266642       0.19707123       1.53831334
H       -1.94936494       0.18226049       0.56172692
H       -1.55234568      -0.31575064      -1.11375152
H        0.06651709      -1.85915871       0.59616021
H        2.18089683      -1.16253105      -0.31110528
11
Frame=5 idx=009096 GeodesicLength=0.7204371924546719 rxn_smarts="[O:1]=[C:2]1[C:3]([H:8])([H:9])[C:4]([H:10])=[C:5]([H:11])[C:6]1=[O:7]>>[O:1]=[C:2]([C:3]([C:4](=[O:7])[H:10])([H:8])[H:9])[C:6]#[C:5][H:11]"
O       -0.50775961       2.41078152      -0.55277226
C       -0.25975465       1.26590583      -0.35894844
C       -1.15206362       0.03862762      -0.16258165
C        0.00024153      -0.82370675       0.34730185
C        1.39611653      -0.50898000      -0.66544863
C        1.02605494       0.57337609       0.13491667
O        0.75159795       0.20507041       1.56058458
H       -1.95315992       0.19782461       0.55720845
H       -1.55174151      -0.32346834      -1.10928165
H        0.04979683      -1.87634155       0.58016873
H        2.20067154      -1.15908942      -0.33114764
11
Frame=6 idx=009096 GeodesicLength=0.8644905317171945 rxn_smarts="[O:1]=[C:2]1[C:3]([H:8])([H:9])[C:4]([H:10])=[C:5]([H:11])[C:6]1=[O:7]>>[O:1]=[C:2]([C:3]([C:4](=[O:7])[H:10])([H:8])[H:9])[C:6]#[C:5][H:11]"
O       -0.51269128       2.40688396      -0.54895453
C       -0.25706186       1.26038662      -0.37138982
C       -1.15249018       0.03798606      -0.15978796
C       -0.01500611      -0.83109950       0.37042944
C        1.40376667      -0.50761464      -0.65563646
C        1.03820977       0.58629072       0.12305061
O        0.75009672       0.21328810       1.58383442
H       -1.95692141       0.21315954       0.55245056
H       -1.55084005      -0.33141362      -1.10444846
H        0.03211848      -1.89266947       0.56309599
H        2.22081925      -1.15519777      -0.35264379
11
Frame=7 idx=009096 GeodesicLength=1.0085245454184961 rxn_smarts="[O:1]=[C:2]1[C:3]([H:8])([H:9])[C:4]([H:10])=[C:5]([H:11])[C:6]1=[O:7]>>[O:1]=[C:2]([C:3]([C:4](=[O:7])[H:10])([H:8])[H:9])[C:6]#[C:5][H:11]"
O       -0.51722317       2.40236062      -0.54570302
C       -0.25428980       1.25456196      -0.38335297
C       -1.15272401       0.03716023      -0.15668781
C       -0.03086400      -0.83865031       0.39452137
C        1.41177124      -0.50640028      -0.64498489
C        1.05071102       0.59942791       0.11066434
O        0.74804738       0.22165986       1.60811893
H       -1.96065709       0.22822347       0.54738652
H       -1.54960383      -0.33957025      -1.09930427
H        0.01354633      -1.90794438       0.54521066
H        2.24128592      -1.15082882      -0.37586886
11
Frame=8 idx=009096 GeodesicLength=1.152553896988933 rxn_smarts="[O:1]=[C:2]1[C:3]([H:8])([H:9])[C:4]([H:10])=[C:5]([H:11])[C:6]1=[O:7]>>[O:1]=[C:2]([C:3]([C:4](=[O:7])[H:10])([H:8])[H:9])[C:6]#[C:5][H:11]"
O       -0.52132466       2.39723710      -0.54296513
C       -0.25139380       1.24840907      -0.39481108
C       -1.15275316       0.03613092      -0.15332179
C       -0.04741979      -0.84641763       0.41953730
C        1.42019222      -0.50535167      -0.63338287
C        1.06358924       0.61276197       0.09773402
O        0.74531150       0.23011576       1.63350339
H       -1.96438790       0.24298179       0.54192983
H       -1.54798935      -0.34791863      -1.09391882
H       -0.00581204      -1.92200802       0.52685740
H        2.26198775      -1.14594066      -0.40116227
11
Frame=9 idx=009096 GeodesicLength=1.2965413949290003 rxn_smarts="[O:1]=[C:2]1[C:3]([H:8])([H:9])[C:4]([H:10])=[C:5]([H:11])[C:6]1=[O:7]>>[O:1]=[C:2]([C:3]([C:4](=[O:7])[H:10])([H:8])[H:9])[C:6]#[C:5][H:11]"
O       -0.52497145       2.39152251      -0.54065600
C       -0.24832397       1.24190346      -0.40573701
C       -1.15254132       0.03487897      -0.14974890
C       -0.06475968      -0.85444522       0.44542976
C        1.42909456      -0.50446289      -0.62069139
C        1.07687140       0.62627982       0.08423638
O        0.74173020       0.23858448       1.66006431
H       -1.96810414       0.25737976       0.53596792
H       -1.54590752      -0.35644004      -1.08839060
H       -0.02582535      -1.93468890       0.50845578
H        2.28273728      -1.14051194      -0.42893026
11
Frame=10 idx=009096 GeodesicLength=1.440514582325729 rxn_smarts="[O:1]=[C:2]1[C:3]([H:8])([H:9])[C:4]([H:10])=[C:5]([H:11])[C:6]1=[O:7]>>[O:1]=[C:2]([C:3]([C:4](=[O:7])[H:10])([H:8])[H:9])[C:6]#[C:5][H:11]"
O       -0.52810484       2.38525051      -0.53872650
C       -0.24500860       1.23503638      -0.41609764
C       -1.15207240       0.03339285      -0.14602768
C       -0.08300466      -0.86277710       0.47216893
C        1.43857493      -0.50374460      -0.60670736
C        1.09061078       0.63996797       0.07016659
O        0.73711037       0.24700566       1.68790169
H       -1.97184422       0.27140003       0.52936668
H       -1.54327726      -0.36512193      -1.08281507
H       -0.04631632      -1.94595279       0.49046281
H        2.30333224      -1.13445699      -0.45969245
11
Frame=11 idx=009096 GeodesicLength=1.5844563359922041 rxn_smarts="[O:1]=[C:2]1[C:3]([H:8])([H:9])[C:4]([H:10])=[C:5]([H:11])[C:6]1=[O:7]>>[O:1]=[C:2]([C:3]([C:4](=[O:7])[H:10])([H:8])[H:9])[C:6]#[C:5][H:11]"
O       -0.53067099       2.37843136      -0.53711302
C       -0.24136277       1.22779304      -0.42585616
C       -1.15129549       0.03165489      -0.14222970
C       -0.10226738      -0.87143165       0.49974914
C        1.44875799      -0.50318179      -0.59115352
C        1.10486888       0.65383211       0.05553854
O        0.73122789       0.25534719       1.71715173
H       -1.97561476       0.28500383       0.52195684
H       -1.53994622      -0.37397441      -1.07731154
H       -0.06710311      -1.95576441       0.47336320
H        2.32340596      -1.12771017      -0.49409551
11
Frame=12 idx=009096 GeodesicLength=1.7284206980261851 rxn_smarts="[O:1]=[C:2]1[C:3]([H:8])([H:9])[C:4]([H:10])=[C:5]([H:11])[C:6]1=[O:7]>>[O:1]=[C:2]([C:3]([C:4](=[O:7])[H:10])([H:8])[H:9])[C:6]#[C:5][H:11]"
O       -0.53260368       2.37109616      -0.53576343
C       -0.23727591       1.22017054      -0.43496512
C       -1.15015415       0.02963670      -0.13842964
C       -0.12266804      -0.88041517       0.52820680
C        1.45985009      -0.50275690      -0.57364480
C        1.11975070       0.66790576       0.04039995
O        0.72382524       0.26364953       1.74800803
H       -1.97945366       0.29815626       0.51353323
H       -1.53572217      -0.38306190      -1.07201240
H       -0.08797951      -1.96416408       0.45761813
H        2.34243109      -1.12021691      -0.53295075
11
Frame=13 idx=009096 GeodesicLength=1.8722434003639852 rxn_smarts="[O:1]=[C:2]1[C:3]([H:8])([H:9])[C:4]([H:10])=[C:5]([H:11])[C:6]1=[O:7]>>[O:1]=[C:2]([C:3]([C:4](=[O:7])[H:10])([H:8])[H:9])[C:6]#[C:5][H:11]"
O       -0.53372901       2.36316164      -0.53471579
C       -0.23256010       1.21210614      -0.44337887
C       -1.14847838       0.02728941      -0.13469099
C       -0.14433775      -0.88970318       0.55766304
C        1.47203510      -0.50240816      -0.55359760
C        1.13532081       0.68217708       0.02484322
O        0.71451738       0.27191771       1.78070411
H       -1.98326900       0.31078118       0.50382271
H       -1.53021650      -0.39244503      -1.06701551
H       -0.10869738      -1.97118296       0.44369815
H        2.35941483      -1.11169384      -0.57733247
11
Frame=14 idx=009096 GeodesicLength=2.0160308387847703 rxn_smarts="[O:1]=[C:2]1[C:3]([H:8])([H:9])[C:4]([H:10])=[C:5]([H:11])[C:6]1=[O:7]>>[O:1]=[C:2]([C:3]([C:4](=[O:7])[H:10])([H:8])[H:9])[C:6]#[C:5][H:11]"
O       -0.53393359       2.35464765      -0.53398480
C       -0.22699865       1.20358975      -0.45100125
C       -1.14611567       0.02453455      -0.13112631
C       -0.16736581      -0.89926815       0.58827244
C        1.48580890      -0.50205462      -0.53018420
C        1.15180397       0.69673530       0.00911534
O        0.70285272       0.28035660       1.81564426
H       -1.98710367       0.32279060       0.49244039
H       -1.52297792      -0.40232901      -1.06252836
H       -0.12894658      -1.97692578       0.43213133
H        2.37297629      -1.10207689      -0.62877885
11
Frame=15 idx=009096 GeodesicLength=2.159587767390748 rxn_smarts="[O:1]=[C:2]1[C:3]([H:8])([H:9])[C:4]([H:10])=[C:5]([H:11])[C:6]1=[O:7]>>[O:1]=[C:2]([C:3]([C:4](=[O:7])[H:10])([H:8])[H:9])[C:6]#[C:5][H:11]"
O       -0.53291797       2.34535535      -0.53369674
C       -0.22020339       1.19448750      -0.45770938
C       -1.14270119       0.02122853      -0.12789087
C       -0.19180437      -0.90901782       0.62029394
C        1.50180359      -0.50151819      -0.50212211
C        1.16944524       0.71161287      -0.00632959
O        0.68814987       0.28920242       1.85339147
H       -1.99079594       0.33398802       0.47879502
H       -1.51317666      -0.41298482      -1.05880706
H       -0.14826792      -1.98141021       0.42355007
H        2.38046874      -1.09094364      -0.68947474
11
Frame=16 idx=009096 GeodesicLength=2.302921756786497 rxn_smarts="[O:1]=[C:2]1[C:3]([H:8])([H:9])[C:4]([H:10])=[C:5]([H:11])[C:6]1=[O:7]>>[O:1]=[C:2]([C:3]([C:4](=[O:7])[H:10])([H:8])[H:9])[C:6]#[C:5][H:11]"
O       -0.53040741       2.33524915      -0.53392566
C       -0.21169619       1.18477410      -0.46338415
C       -1.13774482       0.01713977      -0.12515658
C       -0.21748752      -0.91894357       0.65375949
C        1.52111683      -0.50033896      -0.46828828
C        1.18868351       0.72704275      -0.02116044
O        0.66972515       0.29880826       1.89436347
H       -1.99404422       0.34398184       0.46239652
H       -1.49984032      -0.42481483      -1.05608669
H       -0.16589136      -1.98481459       0.41825600
H        2.37758636      -1.07808392      -0.76077368
