10
Frame=0 idx=001262 GeodesicLength=0.0 rxn_smarts="[n:1]1([H:6])[c:2]([H:7])[c:3]([H:8])[c:4]([H:9])[c:5]1[H:10]>>[N:1]1=[C:5]([H:10])[C:4]([H:9])=[C:3]([H:8])[C:2]1([H:6])[H:7]"
N        0.04934430       1.33356115       0.01946684
C        1.07523655       0.33913476       0.21729617
C        0.49305294      -0.93129211       0.23461254
C       -0.86505136      -0.74562033       0.02131750
C       -1.07921512       0.62072678      -0.13856789
H        0.88865496       0.98275812      -0.86853183
H        2.04349334       0.66066614       0.57146622
H        1.01140970      -1.86580641       0.38519909
H       -1.61662155      -1.51856444      -0.04784410
H       -2.00030377       1.12443633      -0.39441455
10
Frame=1 idx=001262 GeodesicLength=0.03869207960271749 rxn_smarts="[n:1]1([H:6])[c:2]([H:7])[c:3]([H:8])[c:4]([H:9])[c:5]1[H:10]>>[N:1]1=[C:5]([H:10])[C:4]([H:9])=[C:3]([H:8])[C:2]1([H:6])[H:7]"
N        0.04966979       1.32885136       0.01579426
C        1.07620189       0.33821757       0.21022348
C        0.49262548      -0.93339260       0.22971076
C       -0.86597154      -0.74813142       0.02316927
C       -1.07993524       0.61964474      -0.13794408
H        0.89944385       1.00012684      -0.87723090
H        2.03709362       0.65841519       0.58552330
H        1.01097649      -1.86771912       0.38166985
H       -1.61976193      -1.51973350      -0.03505184
H       -2.00034242       1.12372094      -0.39586411
10
Frame=2 idx=001262 GeodesicLength=0.07733364960204371 rxn_smarts="[n:1]1([H:6])[c:2]([H:7])[c:3]([H:8])[c:4]([H:9])[c:5]1[H:10]>>[N:1]1=[C:5]([H:10])[C:4]([H:9])=[C:3]([H:8])[C:2]1([H:6])[H:7]"
N        0.05017667       1.32413498       0.01149234
C        1.07726327       0.33727791       0.20282992
C        0.49201359      -0.93538019       0.22598286
C       -0.86714278      -0.75042770       0.02708503
C       -1.08070973       0.61867337      -0.13642804
H        0.91000746       1.01721325      -0.88620634
H        2.03071013       0.65606847       0.59826876
H        1.01032678      -1.86951602       0.37941544
H       -1.62218534      -1.52110379      -0.02604493
H       -2.00046005       1.12305973      -0.39639504
10
Frame=3 idx=001262 GeodesicLength=0.1159763881665026 rxn_smarts="[n:1]1([H:6])[c:2]([H:7])[c:3]([H:8])[c:4]([H:9])[c:5]1[H:10]>>[N:1]1=[C:5]([H:10])[C:4]([H:9])=[C:3]([H:8])[C:2]1([H:6])[H:7]"
N        0.05082880       1.31939987       0.00664972
C        1.07841707       0.33629677       0.19516012
C        0.49124879      -0.93728206       0.22327145
C       -0.86855518      -0.75251056       0.03297169
C       -1.08155360       0.61780803      -0.13408503
H        0.92040561       1.03413283      -0.89539015
H        2.02437781       0.65363100       0.60983214
H        1.00951683      -1.87122712       0.37821762
H       -1.62403718      -1.52266962      -0.02036832
H       -2.00064896       1.12242088      -0.39625923
10
Frame=4 idx=001262 GeodesicLength=0.15463464101332955 rxn_smarts="[n:1]1([H:6])[c:2]([H:7])[c:3]([H:8])[c:4]([H:9])[c:5]1[H:10]>>[N:1]1=[C:5]([H:10])[C:4]([H:9])=[C:3]([H:8])[C:2]1([H:6])[H:7]"
N        0.05147200       1.31458641       0.00163350
C        1.07956799       0.33525936       0.18745881
C        0.49047143      -0.93924646       0.22041547
C       -0.86997207      -0.75460184       0.03910131
C       -1.08238531       0.61689494      -0.13179986
H        0.93112121       1.05172646      -0.90407773
H        2.01770902       0.65096724       0.62128545
H        1.00873490      -1.87301535       0.37662543
H       -1.62597197      -1.52420593      -0.01401769
H       -2.00074720       1.12163517      -0.39662469
10
Frame=5 idx=001262 GeodesicLength=0.1933395999961567 rxn_smarts="[n:1]1([H:6])[c:2]([H:7])[c:3]([H:8])[c:4]([H:9])[c:5]1[H:10]>>[N:1]1=[C:5]([H:10])[C:4]([H:9])=[C:3]([H:8])[C:2]1([H:6])[H:7]"
N        0.05201617       1.30967081      -0.00336628
C        1.08066258       0.33416936       0.17991547
C        0.48975776      -0.94135569       0.21677140
C       -0.87128309      -0.75682039       0.04455370
C       -1.08317022       0.61584675      -0.13012153
H        0.94246705       1.07050013      -0.91177013
H        2.01043130       0.64798037       0.63331193
H        1.00812721      -1.87500708       0.37349410
H       -1.62836945      -1.52556020      -0.00441014
H       -2.00063931       1.12057594      -0.39837853
10
Frame=6 idx=001262 GeodesicLength=0.23199108322251566 rxn_smarts="[n:1]1([H:6])[c:2]([H:7])[c:3]([H:8])[c:4]([H:9])[c:5]1[H:10]>>[N:1]1=[C:5]([H:10])[C:4]([H:9])=[C:3]([H:8])[C:2]1([H:6])[H:7]"
N        0.05244993       1.30465137      -0.00836951
C        1.08168213       0.33305966       0.17256539
C        0.48910823      -0.94361166       0.21216092
C       -0.87247190      -0.75918495       0.04923796
C       -1.08389665       0.61462736      -0.12924442
H        0.95457256       1.09058387      -0.91823088
H        2.00244362       0.64462339       0.64607308
H        1.00772638      -1.87723959       0.36844377
H       -1.63131258      -1.52669127       0.00913970
H       -2.00030173       1.11918182      -0.40177601
10
Frame=7 idx=001262 GeodesicLength=0.2706879231860753 rxn_smarts="[n:1]1([H:6])[c:2]([H:7])[c:3]([H:8])[c:4]([H:9])[c:5]1[H:10]>>[N:1]1=[C:5]([H:10])[C:4]([H:9])=[C:3]([H:8])[C:2]1([H:6])[H:7]"
N        0.05302321       1.29957029      -0.01398135
C        1.08278998       0.33185461       0.16482938
C        0.48830518      -0.94582658       0.20835668
C       -0.87387227      -0.76133731       0.05582818
C       -1.08468836       0.61350603      -0.12751186
H        0.96653211       1.11063266      -0.92483352
H        1.99457590       0.64116134       0.65745179
H        1.00704233      -1.87934546       0.36504142
H       -1.63361206      -1.52801654       0.01900205
H       -2.00009602       1.11780096      -0.40418277
10
Frame=8 idx=001262 GeodesicLength=0.30943650827790325 rxn_smarts="[n:1]1([H:6])[c:2]([H:7])[c:3]([H:8])[c:4]([H:9])[c:5]1[H:10]>>[N:1]1=[C:5]([H:10])[C:4]([H:9])=[C:3]([H:8])[C:2]1([H:6])[H:7]"
N        0.05361940       1.29439719      -0.01997736
C        1.08390163       0.33057133       0.15695011
C        0.48744412      -0.94808996       0.20455312
C       -0.87532013      -0.76341613       0.06318176
C       -1.08548621       0.61236558      -0.12566501
H        0.97877337       1.13128206      -0.93093535
H        1.98647805       0.63748600       0.66835332
H        1.00629607      -1.88149985       0.36175875
H       -1.63582978      -1.52936219       0.02851711
H       -1.99987651       1.11626598      -0.40673644
10
Frame=9 idx=001262 GeodesicLength=0.348254847300075 rxn_smarts="[n:1]1([H:6])[c:2]([H:7])[c:3]([H:8])[c:4]([H:9])[c:5]1[H:10]>>[N:1]1=[C:5]([H:10])[C:4]([H:9])=[C:3]([H:8])[C:2]1([H:6])[H:7]"
N        0.05419243       1.28911876      -0.02629882
C        1.08498624       0.32922659       0.14903601
C        0.48655072      -0.95044778       0.20040924
C       -0.87676456      -0.76549438       0.07084624
C       -1.08627482       0.61114308      -0.12403423
H        0.99150435       1.15279810      -0.93621194
H        1.97798858       0.63355398       0.67915784
H        1.00555454      -1.88377303       0.35788889
H       -1.63814733      -1.53062118       0.03914918
H       -1.99959013       1.11449586      -0.40994241
10
Frame=10 idx=001262 GeodesicLength=0.3869677693248721 rxn_smarts="[n:1]1([H:6])[c:2]([H:7])[c:3]([H:8])[c:4]([H:9])[c:5]1[H:10]>>[N:1]1=[C:5]([H:10])[C:4]([H:9])=[C:3]([H:8])[C:2]1([H:6])[H:7]"
N        0.05471783       1.28377592      -0.03295013
C        1.08603055       0.32784533       0.14115467
C        0.48564413      -0.95294675       0.19562850
C       -0.87818141      -0.76763706       0.07862982
C       -1.08704693       0.60981346      -0.12286410
H        1.00485772       1.17539354      -0.94029708
H        1.96896209       0.62930037       0.69013750
H        1.00487309      -1.88621668       0.35280809
H       -1.64069977      -1.53176229       0.05205752
H       -1.99915729       1.11243418      -0.41430478
10
Frame=11 idx=001262 GeodesicLength=0.4257227452225375 rxn_smarts="[n:1]1([H:6])[c:2]([H:7])[c:3]([H:8])[c:4]([H:9])[c:5]1[H:10]>>[N:1]1=[C:5]([H:10])[C:4]([H:9])=[C:3]([H:8])[C:2]1([H:6])[H:7]"
N        0.05514275       1.27821249      -0.03977383
C        1.08702151       0.32638482       0.13336384
C        0.48474875      -0.95558333       0.18972797
C       -0.87952115      -0.76973548       0.08620189
C       -1.08778935       0.60828504      -0.12254007
H        1.01904413       1.19956539      -0.94270696
H        1.95915918       0.62459207       0.70177821
H        1.00428021      -1.88895813       0.34549004
H       -1.64363874      -1.53245675       0.06917497
H       -1.99844729       1.10969388      -0.42071606
10
Frame=12 idx=001262 GeodesicLength=0.4645416894884353 rxn_smarts="[n:1]1([H:6])[c:2]([H:7])[c:3]([H:8])[c:4]([H:9])[c:5]1[H:10]>>[N:1]1=[C:5]([H:10])[C:4]([H:9])=[C:3]([H:8])[C:2]1([H:6])[H:7]"
N        0.05551720       1.27254183      -0.04708119
C        1.08796183       0.32485877       0.12554939
C        0.48379036      -0.95833463       0.18332559
C       -0.88082435      -0.77180833       0.09417936
C       -1.08853528       0.60666458      -0.12257274
H        1.03384550       1.22477466      -0.94384113
H        1.94883946       0.61954962       0.71338793
H        1.00365684      -1.89188332       0.33710666
H       -1.64660533      -1.53295105       0.08812258
H       -1.99764623       1.10658787      -0.42817645
10
Frame=13 idx=001262 GeodesicLength=0.5033830832203166 rxn_smarts="[n:1]1([H:6])[c:2]([H:7])[c:3]([H:8])[c:4]([H:9])[c:5]1[H:10]>>[N:1]1=[C:5]([H:10])[C:4]([H:9])=[C:3]([H:8])[C:2]1([H:6])[H:7]"
N        0.05586694       1.26674098      -0.05492322
C        1.08886680       0.32326435       0.11767721
C        0.48274310      -0.96119471       0.17643103
C       -0.88209951      -0.77385487       0.10246840
C       -1.08929507       0.60494170      -0.12292227
H        1.04923495       1.25104829      -0.94358070
H        1.93803262       0.61417727       0.72487549
H        1.00296507      -1.89498020       0.32774579
H       -1.64957641      -1.53319582       0.10888899
H       -1.99673848       1.10305301      -0.43666072
10
Frame=14 idx=001262 GeodesicLength=0.5422547414437289 rxn_smarts="[n:1]1([H:6])[c:2]([H:7])[c:3]([H:8])[c:4]([H:9])[c:5]1[H:10]>>[N:1]1=[C:5]([H:10])[C:4]([H:9])=[C:3]([H:8])[C:2]1([H:6])[H:7]"
N        0.05625007       1.26078688      -0.06351249
C        1.08977015       0.32156820       0.10959197
C        0.48155505      -0.96411893       0.16949103
C       -0.88336995      -0.77577716       0.11152031
C       -1.09008225       0.60318542      -0.12321110
H        1.06502747       1.27808054      -0.94221378
H        1.92695414       0.60858858       0.73575721
H        1.00208849      -1.89816650       0.31830420
H       -1.65235989      -1.53331927       0.12969834
H       -1.99583327       1.09917223      -0.44542567
10
Frame=15 idx=001262 GeodesicLength=0.5811387188174145 rxn_smarts="[n:1]1([H:6])[c:2]([H:7])[c:3]([H:8])[c:4]([H:9])[c:5]1[H:10]>>[N:1]1=[C:5]([H:10])[C:4]([H:9])=[C:3]([H:8])[C:2]1([H:6])[H:7]"
N        0.05666526       1.25465293      -0.07293183
C        1.09067313       0.31976456       0.10128834
C        0.48022860      -0.96712183       0.16243877
C       -0.88460004      -0.77761148       0.12101572
C       -1.09089269       0.60137992      -0.12352804
H        1.08127556       1.30593978      -0.93956351
H        1.91555923       0.60279289       0.74609648
H        1.00102640      -1.90145828       0.30870146
H       -1.65499200      -1.53326635       0.15096600
H       -1.99494346       1.09492787      -0.45448339
10
Frame=16 idx=001262 GeodesicLength=0.6200300149130203 rxn_smarts="[n:1]1([H:6])[c:2]([H:7])[c:3]([H:8])[c:4]([H:9])[c:5]1[H:10]>>[N:1]1=[C:5]([H:10])[C:4]([H:9])=[C:3]([H:8])[C:2]1([H:6])[H:7]"
N        0.05713458       1.24830550      -0.08334879
C        1.09158702       0.31783551       0.09271346
C        0.47875202      -0.97019645       0.15541674
C       -0.88577459      -0.77933937       0.13093888
C       -1.09171953       0.59954744      -0.12379765
H        1.09795004       1.33452926      -0.93563906
H        1.90388653       0.59686461       0.75577796
H        0.99974984      -1.90483925       0.29919860
H       -1.65744038      -1.53307151       0.17227025
H       -1.99412553       1.09036426      -0.46353038
