16
Frame=0 idx=006604 GeodesicLength=0.0 rxn_smarts="[C:1]([C@@:2]([O:3][H:12])([C:4]([N:5]([C:6](=[O:7])[H:16])[H:15])([H:13])[H:14])[H:11])([H:8])([H:9])[H:10]>>[C:1]([C@@:2]([O:3][H:12])([C:4]([O:7]/[C:6](=[N:5]/[H:15])[H:16])([H:13])[H:14])[H:11])([H:8])([H:9])[H:10]"
C       -2.07905136      -0.80595227      -0.40387701
C       -0.73810776      -0.09292293      -0.58357591
O       -0.99156599       1.13476513      -1.20645043
C       -0.11266387       0.04726331       0.76247305
N        2.06540437      -0.46745009       0.79989826
C        2.29352183       0.69111586       0.29710833
O        1.32340375       1.46031135       0.06221711
H       -1.94807179      -1.81544580      -0.01333727
H       -2.56767106      -0.86578927      -1.37594389
H       -2.72862647      -0.23965060       0.26584685
H       -0.08500401      -0.72560822      -1.19929410
H       -0.17453145       1.64381720      -1.13031610
H       -0.37884466       0.92046246       1.34280984
H       -0.04474243      -0.86503214       1.33056396
H        2.86166962      -1.06323902       0.99091047
H        3.30488129       1.04335497       0.06096687
16
Frame=1 idx=006604 GeodesicLength=0.04283527456077584 rxn_smarts="[C:1]([C@@:2]([O:3][H:12])([C:4]([N:5]([C:6](=[O:7])[H:16])[H:15])([H:13])[H:14])[H:11])([H:8])([H:9])[H:10]>>[C:1]([C@@:2]([O:3][H:12])([C:4]([O:7]/[C:6](=[N:5]/[H:15])[H:16])([H:13])[H:14])[H:11])([H:8])([H:9])[H:10]"
C       -2.07482992      -0.80602125      -0.40139619
C       -0.73474436      -0.09410135      -0.58402723
O       -0.98993959       1.13375833      -1.20767788
C       -0.09972976       0.05030689       0.75940167
N        2.05309703      -0.47374986       0.78003055
C        2.29083904       0.68975441       0.29047238
O        1.32256827       1.46887637       0.07608869
H       -1.94289703      -1.81496961      -0.00957601
H       -2.56619529      -0.86782586      -1.37196634
H       -2.72257751      -0.23881912       0.26941304
H       -0.08316559      -0.72577118      -1.20253139
H       -0.17279846       1.64329686      -1.13644151
H       -0.38727831       0.91562048       1.34262259
H       -0.04521577      -0.85970343       1.33411313
H        2.84799889      -1.06304997       0.99353475
H        3.30486837       1.04239830       0.06793974
16
Frame=2 idx=006604 GeodesicLength=0.08570520808717945 rxn_smarts="[C:1]([C@@:2]([O:3][H:12])([C:4]([N:5]([C:6](=[O:7])[H:16])[H:15])([H:13])[H:14])[H:11])([H:8])([H:9])[H:10]>>[C:1]([C@@:2]([O:3][H:12])([C:4]([O:7]/[C:6](=[N:5]/[H:15])[H:16])([H:13])[H:14])[H:11])([H:8])([H:9])[H:10]"
C       -2.07063707      -0.80610451      -0.39892070
C       -0.73137701      -0.09533175      -0.58437127
O       -0.98818203       1.13264855      -1.20894711
C       -0.08702756       0.05346613       0.75648979
N        2.04100736      -0.47944087       0.76063998
C        2.28814494       0.68859165       0.28376242
O        1.32180765       1.47712912       0.08998650
H       -1.93780397      -1.81445634      -0.00567691
H       -2.56461174      -0.86996517      -1.36804351
H       -2.71664368      -0.23792147       0.27281476
H       -0.08129692      -0.72607947      -1.20552197
H       -0.17097172       1.64267277      -1.14249407
H       -0.39555124       0.91061985       1.34233896
H       -0.04540103      -0.85420496       1.33751149
H        2.83367544      -1.06310083       0.99515312
H        3.30486859       1.04147729       0.07527853
16
Frame=3 idx=006604 GeodesicLength=0.12863142600002553 rxn_smarts="[C:1]([C@@:2]([O:3][H:12])([C:4]([N:5]([C:6](=[O:7])[H:16])[H:15])([H:13])[H:14])[H:11])([H:8])([H:9])[H:10]>>[C:1]([C@@:2]([O:3][H:12])([C:4]([O:7]/[C:6](=[N:5]/[H:15])[H:16])([H:13])[H:14])[H:11])([H:8])([H:9])[H:10]"
C       -2.06636550      -0.80624290      -0.39652265
C       -0.72789974      -0.09660979      -0.58452077
O       -0.98613992       1.13138145      -1.21030607
C       -0.07467446       0.05687954       0.75392084
N        2.02900855      -0.48431252       0.74230266
C        2.28537903       0.68786840       0.27759890
O        1.32104287       1.48523313       0.10422126
H       -1.93270233      -1.81391096      -0.00161568
H       -2.56265801      -0.87234325      -1.36432096
H       -2.71084851      -0.23697973       0.27583976
H       -0.07915958      -0.72654670      -1.20802508
H       -0.16891732       1.64191666      -1.14845151
H       -0.40393067       0.90564377       1.34202722
H       -0.04548913      -0.84837207       1.34102858
H        2.81875098      -1.06383073       0.99471667
H        3.30460375       1.04022568       0.08210682
16
Frame=4 idx=006604 GeodesicLength=0.17160903572286673 rxn_smarts="[C:1]([C@@:2]([O:3][H:12])([C:4]([N:5]([C:6](=[O:7])[H:16])[H:15])([H:13])[H:14])[H:11])([H:8])([H:9])[H:10]>>[C:1]([C@@:2]([O:3][H:12])([C:4]([O:7]/[C:6](=[N:5]/[H:15])[H:16])([H:13])[H:14])[H:11])([H:8])([H:9])[H:10]"
C       -2.06215628      -0.80638487      -0.39407152
C       -0.72443305      -0.09798172      -0.58457370
O       -0.98394681       1.12991884      -1.21183429
C       -0.06256524       0.06047808       0.75149497
N        2.01715342      -0.48859380       0.72446962
C        2.28263193       0.68742230       0.27157384
O        1.32034805       1.49304550       0.11836837
H       -1.92773898      -1.81328181       0.00273977
H       -2.56063440      -0.87489238      -1.36058917
H       -2.70518740      -0.23588396       0.27871121
H       -0.07701315      -0.72727297      -1.21023419
H       -0.16671029       1.64091964      -1.15454981
H       -0.41218701       0.90065852       1.34153009
H       -0.04536145      -0.84228509       1.34448065
H        2.80349640      -1.06512872       0.99242294
H        3.30430425       1.03926246       0.09006121
16
Frame=5 idx=006604 GeodesicLength=0.21463758862314744 rxn_smarts="[C:1]([C@@:2]([O:3][H:12])([C:4]([N:5]([C:6](=[O:7])[H:16])[H:15])([H:13])[H:14])[H:11])([H:8])([H:9])[H:10]>>[C:1]([C@@:2]([O:3][H:12])([C:4]([O:7]/[C:6](=[N:5]/[H:15])[H:16])([H:13])[H:14])[H:11])([H:8])([H:9])[H:10]"
C       -2.05807978      -0.80652146      -0.39146670
C       -0.72103669      -0.09949614      -0.58456762
O       -0.98165474       1.12816831      -1.21364849
C       -0.05066857       0.06429701       0.74911804
N        2.00542697      -0.49233068       0.70693036
C        2.27993980       0.68725221       0.26556133
O        1.31974697       1.50054689       0.13216115
H       -1.92299222      -1.81252931       0.00756012
H       -2.55867544      -0.87766584      -1.35670789
H       -2.69966666      -0.23455315       0.28152653
H       -0.07497894      -0.72837687      -1.21217945
H       -0.16437209       1.63955218      -1.16100890
H       -0.42024694       0.89576472       1.34072016
H       -0.04498992      -0.83587996       1.34784529
H        2.78805190      -1.06721149       0.98767150
H        3.30419634       1.03898359       0.10048459
16
Frame=6 idx=006604 GeodesicLength=0.25769903861443244 rxn_smarts="[C:1]([C@@:2]([O:3][H:12])([C:4]([N:5]([C:6](=[O:7])[H:16])[H:15])([H:13])[H:14])[H:11])([H:8])([H:9])[H:10]>>[C:1]([C@@:2]([O:3][H:12])([C:4]([O:7]/[C:6](=[N:5]/[H:15])[H:16])([H:13])[H:14])[H:11])([H:8])([H:9])[H:10]"
C       -2.05404960      -0.80664807      -0.38891031
C       -0.71764868      -0.10104061      -0.58446793
O       -0.97923743       1.12635318      -1.21548657
C       -0.03902142       0.06821096       0.74690395
N        1.99382413      -0.49555390       0.68990330
C        2.27724472       0.68738048       0.25990824
O        1.31916536       1.50781288       0.14607738
H       -1.91835023      -1.81172365       0.01244446
H       -2.55662198      -0.88049215      -1.35292967
H       -2.69427874      -0.23315217       0.28415252
H       -0.07291056      -0.72958509      -1.21390325
H       -0.16191088       1.63807517      -1.16741582
H       -0.42822693       0.89071643       1.33985960
H       -0.04443705      -0.82941445       1.35106722
H        2.77253079      -1.06937964       0.98218684
H        3.30392850       1.03844062       0.11061004
16
Frame=7 idx=006604 GeodesicLength=0.3007980972412727 rxn_smarts="[C:1]([C@@:2]([O:3][H:12])([C:4]([N:5]([C:6](=[O:7])[H:16])[H:15])([H:13])[H:14])[H:11])([H:8])([H:9])[H:10]>>[C:1]([C@@:2]([O:3][H:12])([C:4]([O:7]/[C:6](=[N:5]/[H:15])[H:16])([H:13])[H:14])[H:11])([H:8])([H:9])[H:10]"
C       -2.05010089      -0.80676538      -0.38633422
C       -0.71429678      -0.10264905      -0.58429425
O       -0.97671410       1.12440871      -1.21743734
C       -0.02760675       0.07225830       0.74480526
N        1.98233213      -0.49828270       0.67326964
C        2.27457249       0.68782922       0.25455848
O        1.31861345       1.51485496       0.15995794
H       -1.91385436      -1.81084484       0.01752009
H       -2.55454169      -0.88342163      -1.34916711
H       -2.68902733      -0.23162532       0.28664454
H       -0.07086694      -0.73098482      -1.21541136
H       -0.15932606       1.63640149      -1.17392664
H       -0.43609716       0.88560571       1.33886884
H       -0.04369589      -0.82283168       1.35416355
H        2.75699839      -1.07183950       0.97546323
H        3.30361149       1.03788654       0.12131934
16
Frame=8 idx=006604 GeodesicLength=0.34395088933963014 rxn_smarts="[C:1]([C@@:2]([O:3][H:12])([C:4]([N:5]([C:6](=[O:7])[H:16])[H:15])([H:13])[H:14])[H:11])([H:8])([H:9])[H:10]>>[C:1]([C@@:2]([O:3][H:12])([C:4]([O:7]/[C:6](=[N:5]/[H:15])[H:16])([H:13])[H:14])[H:11])([H:8])([H:9])[H:10]"
C       -2.04624863      -0.80685946      -0.38372643
C       -0.71098649      -0.10433329      -0.58405198
O       -0.97407033       1.12231564      -1.21951072
C       -0.01641089       0.07642652       0.74280177
N        1.97094372      -0.50054163       0.65696210
C        2.27195481       0.68860730       0.24962401
O        1.31808744       1.52167867       0.17380532
H       -1.90953594      -1.80986608       0.02281740
H       -2.55245464      -0.88645210      -1.34540010
H       -2.68391007      -0.22993992       0.28900475
H       -0.06887134      -0.73259990      -1.21670612
H       -0.15657877       1.63447657      -1.18058987
H       -0.44384560       0.88041695       1.33774141
H       -0.04276477      -0.81615204       1.35711743
H        2.74148162      -1.07457305       0.96744282
H        3.30320990       1.03739584       0.13266822
16
Frame=9 idx=006604 GeodesicLength=0.38714762297821864 rxn_smarts="[C:1]([C@@:2]([O:3][H:12])([C:4]([N:5]([C:6](=[O:7])[H:16])[H:15])([H:13])[H:14])[H:11])([H:8])([H:9])[H:10]>>[C:1]([C@@:2]([O:3][H:12])([C:4]([O:7]/[C:6](=[N:5]/[H:15])[H:16])([H:13])[H:14])[H:11])([H:8])([H:9])[H:10]"
C       -2.04249766      -0.80692861      -0.38109051
C       -0.70773026      -0.10608053      -0.58375908
O       -0.97134016       1.12010999      -1.22169775
C       -0.00541855       0.08070080       0.74087766
N        1.95966903      -0.50236587       0.64088865
C        2.26940380       0.68972782       0.24510262
O        1.31757151       1.52831393       0.18761647
H       -1.90537940      -1.80879938       0.02831354
H       -2.55038391      -0.88956263      -1.34163292
H       -2.67892521      -0.22810635       0.29126210
H       -0.06694177      -0.73440658      -1.21784159
H       -0.15369658       1.63232632      -1.18741188
H       -0.45146508       0.87513721       1.33649823
H       -0.04162324      -0.80941875       1.35991400
H        2.72605197      -1.07752090       0.95838391
H        3.30270552       1.03687353       0.14457655
16
Frame=10 idx=006604 GeodesicLength=0.4304172120895312 rxn_smarts="[C:1]([C@@:2]([O:3][H:12])([C:4]([N:5]([C:6](=[O:7])[H:16])[H:15])([H:13])[H:14])[H:11])([H:8])([H:9])[H:10]>>[C:1]([C@@:2]([O:3][H:12])([C:4]([O:7]/[C:6](=[N:5]/[H:15])[H:16])([H:13])[H:14])[H:11])([H:8])([H:9])[H:10]"
C       -2.03889039      -0.80696347      -0.37835016
C       -0.70456497      -0.10792579      -0.58344066
O       -0.96854382       1.11772545      -1.22404274
C        0.00541446       0.08508035       0.73893641
N        1.94850578      -0.50377621       0.62482683
C        2.26695280       0.69120096       0.24091875
O        1.31708871       1.53474284       0.20121041
H       -1.90144037      -1.80760831       0.03411198
H       -2.54843022      -0.89276872      -1.33773840
H       -2.67404931      -0.22608051       0.29349431
H       -0.06518014      -0.73646961      -1.21884699
H       -0.15066917       1.62984037      -1.19452225
H       -0.45887118       0.86978118       1.33504195
H       -0.04022287      -0.80261406       1.36248608
H        2.71067003      -1.08071305       0.94798708
H        3.30223066       1.03654857       0.15792739
16
Frame=11 idx=006604 GeodesicLength=0.4737295593294756 rxn_smarts="[C:1]([C@@:2]([O:3][H:12])([C:4]([N:5]([C:6](=[O:7])[H:16])[H:15])([H:13])[H:14])[H:11])([H:8])([H:9])[H:10]>>[C:1]([C@@:2]([O:3][H:12])([C:4]([O:7]/[C:6](=[N:5]/[H:15])[H:16])([H:13])[H:14])[H:11])([H:8])([H:9])[H:10]"
C       -2.03540210      -0.80696462      -0.37557179
C       -0.70147440      -0.10983161      -0.58309394
O       -0.96569696       1.11524281      -1.22648619
C        0.01607651       0.08953433       0.73702493
N        1.93746558      -0.50479204       0.60889472
C        2.26459194       0.69296536       0.23709577
O        1.31661571       1.54099137       0.21472076
H       -1.89767321      -1.80632642       0.04008967
H       -2.54655026      -0.89601846      -1.33381231
H       -2.66929365      -0.22390972       0.29566699
H       -0.06352842      -0.73871065      -1.21974766
H       -0.14753152       1.62712340      -1.20181134
H       -0.46609634       0.86430625       1.33347252
H       -0.03859156      -0.79581665       1.36485274
H        2.69540688      -1.08398744       0.93677826
H        3.30168178       1.03619409       0.17192688
16
Frame=12 idx=006604 GeodesicLength=0.51708492029664 rxn_smarts="[C:1]([C@@:2]([O:3][H:12])([C:4]([N:5]([C:6](=[O:7])[H:16])[H:15])([H:13])[H:14])[H:11])([H:8])([H:9])[H:10]>>[C:1]([C@@:2]([O:3][H:12])([C:4]([O:7]/[C:6](=[N:5]/[H:15])[H:16])([H:13])[H:14])[H:11])([H:8])([H:9])[H:10]"
C       -2.03200953      -0.80693862      -0.37279313
C       -0.69844324      -0.11177555      -0.58270715
O       -0.96279481       1.11269757      -1.22897246
C        0.02656089       0.09404765       0.73516481
N        1.92653761      -0.50541962       0.59316823
C        2.26229162       0.69498699       0.23360633
O        1.31614882       1.54706823       0.22822206
H       -1.89404979      -1.80497196       0.04616445
H       -2.54470629      -0.89928733      -1.32989762
H       -2.66465073      -0.22164173       0.29775310
H       -0.06195153      -0.74107026      -1.22053880
H       -0.14429558       1.62423300      -1.20918331
H       -0.47315269       0.85869068       1.33182711
H       -0.03676469      -0.78906291       1.36701919
H        2.68025092      -1.08721498       0.92504506
H        3.30102901       1.03565886       0.18612213
16
Frame=13 idx=006604 GeodesicLength=0.5604739028833707 rxn_smarts="[C:1]([C@@:2]([O:3][H:12])([C:4]([N:5]([C:6](=[O:7])[H:16])[H:15])([H:13])[H:14])[H:11])([H:8])([H:9])[H:10]>>[C:1]([C@@:2]([O:3][H:12])([C:4]([O:7]/[C:6](=[N:5]/[H:15])[H:16])([H:13])[H:14])[H:11])([H:8])([H:9])[H:10]"
C       -2.02869532      -0.80689067      -0.37004690
C       -0.69546025      -0.11373856      -0.58227261
O       -0.95983980       1.11012250      -1.23146132
C        0.03686072       0.09860877       0.73337862
N        1.91571525      -0.50567441       0.57772153
C        2.26002793       0.69722297       0.23041894
O        1.31568582       1.55297693       0.24177354
H       -1.89054627      -1.80356309       0.05226805
H       -2.54286932      -0.90255439      -1.32603595
H       -2.66011937      -0.21931353       0.29973168
H       -0.06041762      -0.74350146      -1.22121977
H       -0.14097872       1.62122269      -1.21656526
H       -0.48005208       0.85292539       1.33014064
H       -0.03477710      -0.78238195       1.36900086
H        2.66521038      -1.09031151       0.91302739
H        3.30025576       1.03485033       0.20014055
16
Frame=14 idx=006604 GeodesicLength=0.6038882175375528 rxn_smarts="[C:1]([C@@:2]([O:3][H:12])([C:4]([N:5]([C:6](=[O:7])[H:16])[H:15])([H:13])[H:14])[H:11])([H:8])([H:9])[H:10]>>[C:1]([C@@:2]([O:3][H:12])([C:4]([O:7]/[C:6](=[N:5]/[H:15])[H:16])([H:13])[H:14])[H:11])([H:8])([H:9])[H:10]"
C       -2.02544866      -0.80682422      -0.36735499
C       -0.69251744      -0.11570911      -0.58178432
O       -0.95683239       1.10753689      -1.23392805
C        0.04697068       0.10321068       0.73168352
N        1.90499181      -0.50557206       0.56261389
C        2.25778255       0.69963792       0.22751139
O        1.31522573       1.55871820       0.25541499
H       -1.88714988      -1.80211153       0.05835671
H       -2.54101899      -0.90580740      -1.32225621
H       -2.65570062      -0.21694797       0.30158622
H       -0.05890310      -0.74597541      -1.22178635
H       -0.13759152       1.61812662      -1.22391143
H       -0.48680387       0.84701063       1.32843592
H       -0.03266086      -0.77579132       1.37081540
H        2.65029621      -1.09323073       0.90086393
H        3.29936033       1.03372881       0.21373937
16
Frame=15 idx=006604 GeodesicLength=0.6473193189533586 rxn_smarts="[C:1]([C@@:2]([O:3][H:12])([C:4]([N:5]([C:6](=[O:7])[H:16])[H:15])([H:13])[H:14])[H:11])([H:8])([H:9])[H:10]>>[C:1]([C@@:2]([O:3][H:12])([C:4]([O:7]/[C:6](=[N:5]/[H:15])[H:16])([H:13])[H:14])[H:11])([H:8])([H:9])[H:10]"
C       -2.02225817      -0.80674341      -0.36473980
C       -0.68960623      -0.11767560      -0.58123552
O       -0.95377238       1.10495994      -1.23634782
C        0.05688418       0.10784717       0.73009914
N        1.89435935      -0.50513252       0.54790683
C        2.25553418       0.70219556       0.22485490
O        1.31476959       1.56428975       0.26918744
H       -1.88384764      -1.80062996       0.06438644
H       -2.53913324      -0.90903533      -1.31858877
H       -2.65139591      -0.21456866       0.30329933
H       -0.05738289      -0.74846304      -1.22223296
H       -0.13414462       1.61498066      -1.23117434
H       -0.49341944       0.84094947       1.32673451
H       -0.03045126      -0.76930538       1.37248408
H        2.63551795      -1.09593310       0.88869120
H        3.29834653       1.03226444       0.22667535
16
Frame=16 idx=006604 GeodesicLength=0.6907588810413736 rxn_smarts="[C:1]([C@@:2]([O:3][H:12])([C:4]([N:5]([C:6](=[O:7])[H:16])[H:15])([H:13])[H:14])[H:11])([H:8])([H:9])[H:10]>>[C:1]([C@@:2]([O:3][H:12])([C:4]([O:7]/[C:6](=[N:5]/[H:15])[H:16])([H:13])[H:14])[H:11])([H:8])([H:9])[H:10]"
C       -2.01911572      -0.80665128      -0.36221926
C       -0.68671991      -0.11962936      -0.58062094
O       -0.95065972       1.10240649      -1.23870096
C        0.06659647       0.11251199       0.72864171
N        1.88381118      -0.50437851       0.53365048
C        2.25326397       0.70486309       0.22242100
O        1.31431989       1.56968642       0.28312309
H       -1.88063158      -1.79912879       0.07032175
H       -2.53719553      -0.91222864      -1.31505821
H       -2.64720693      -0.21219369       0.30485723
H       -0.05583686      -0.75094191      -1.22255506
H       -0.13064663       1.61181371      -1.23831699
H       -0.49990753       0.83474667       1.32505280
H       -0.02818064      -0.76293572       1.37402666
H        2.62088536      -1.09839074       0.87661934
H        3.29722418       1.03045028       0.23875736
