14
Frame=0 idx=006187 GeodesicLength=0.0 rxn_smarts="[O:1]([C@:2]12[C:3]([H:8])([H:9])[C@@:4]1([H:10])[C:5]([H:11])([H:12])[C:6]2([H:13])[H:14])[H:7]>>[O:1]([C:2]1([C:3]([C:4][H:10])([H:8])[H:9])[C:5]([H:11])([H:12])[C:6]1([H:13])[H:14])[H:7]"
O        0.41678960       0.69623237       1.46152047
C        0.29786071       0.08610445       0.21805220
C        0.73032873       0.88774386      -0.96312249
C       -0.74243419       1.09599913      -1.00176512
C       -1.15766599      -0.69362049       0.11631555
C        0.14651112      -1.39780079       0.24479516
H        1.33433077       0.62502625       1.73704480
H        1.36810233       1.70857578      -0.63944561
H        1.16790733       0.33143998      -1.79085907
H       -0.97990141       1.85374368      -0.24217587
H       -1.70331349      -0.51217570       1.03250715
H       -1.75933098      -0.88791280      -0.75099001
H        0.38480344      -1.84814721       1.19949647
H        0.49601200      -1.94520850      -0.62137363
14
Frame=1 idx=006187 GeodesicLength=0.04725283469129501 rxn_smarts="[O:1]([C@:2]12[C:3]([H:8])([H:9])[C@@:4]1([H:10])[C:5]([H:11])([H:12])[C:6]2([H:13])[H:14])[H:7]>>[O:1]([C:2]1([C:3]([C:4][H:10])([H:8])[H:9])[C:5]([H:11])([H:12])[C:6]1([H:13])[H:14])[H:7]"
O        0.43069230       0.69854150       1.46948577
C        0.29967981       0.09070675       0.22642220
C        0.72794121       0.88548252      -0.96243366
C       -0.74416667       1.09589685      -0.98279643
C       -1.16095520      -0.69262811       0.10649937
C        0.14599862      -1.39374751       0.24619144
H        1.35208614       0.63263772       1.73308537
H        1.36986337       1.70638537      -0.64750796
H        1.15307690       0.32303692      -1.79240738
H       -0.98031569       1.86658330      -0.23681703
H       -1.71864218      -0.52479841       1.01834068
H       -1.75260505      -0.89741652      -0.76622162
H        0.37057103      -1.84787698       1.20268152
H        0.50677542      -1.94280340      -0.61452223
14
Frame=2 idx=006187 GeodesicLength=0.09448466895563457 rxn_smarts="[O:1]([C@:2]12[C:3]([H:8])([H:9])[C@@:4]1([H:10])[C:5]([H:11])([H:12])[C:6]2([H:13])[H:14])[H:7]>>[O:1]([C:2]1([C:3]([C:4][H:10])([H:8])[H:9])[C:5]([H:11])([H:12])[C:6]1([H:13])[H:14])[H:7]"
O        0.44509808       0.70083611       1.47740995
C        0.30142420       0.09530105       0.23492231
C        0.72538714       0.88318691      -0.96161824
C       -0.74584070       1.09586683      -0.96365340
C       -1.16422674      -0.69165199       0.09660017
C        0.14538874      -1.38967643       0.24776142
H        1.37021913       0.64011495       1.72877748
H        1.37136430       1.70416991      -0.65557416
H        1.13808849       0.31473406      -1.79367978
H       -0.98092721       1.87930434      -0.23163254
H       -1.73410952      -0.53771431       1.00365490
H       -1.74552783      -0.90659309      -0.78158130
H        0.35620892      -1.84745747       1.20589804
H        0.51745299      -1.94042087      -0.60728485
14
Frame=3 idx=006187 GeodesicLength=0.14168065752135803 rxn_smarts="[O:1]([C@:2]12[C:3]([H:8])([H:9])[C@@:4]1([H:10])[C:5]([H:11])([H:12])[C:6]2([H:13])[H:14])[H:7]>>[O:1]([C:2]1([C:3]([C:4][H:10])([H:8])[H:9])[C:5]([H:11])([H:12])[C:6]1([H:13])[H:14])[H:7]"
O        0.46001609       0.70311771       1.48527901
C        0.30309954       0.09988672       0.24355614
C        0.72267148       0.88086294      -0.96066766
C       -0.74745351       1.09588502      -0.94434876
C       -1.16747921      -0.69068541       0.08663120
C        0.14467485      -1.38558784       0.24950180
H        1.38872573       0.64743232       1.72411694
H        1.37258703       1.70194863      -0.66362864
H        1.12298331       0.30654083      -1.79465681
H       -0.98175967       1.89188728      -0.22665644
H       -1.74969419      -0.55091204       0.98844799
H       -1.73811720      -0.91543016      -0.79704289
H        0.34173296      -1.84688573       1.20913987
H        0.52801279      -1.93806027      -0.59967175
14
Frame=4 idx=006187 GeodesicLength=0.18882607144702998 rxn_smarts="[O:1]([C@:2]12[C:3]([H:8])([H:9])[C@@:4]1([H:10])[C:5]([H:11])([H:12])[C:6]2([H:13])[H:14])[H:7]>>[O:1]([C:2]1([C:3]([C:4][H:10])([H:8])[H:9])[C:5]([H:11])([H:12])[C:6]1([H:13])[H:14])[H:7]"
O        0.47545162       0.70538828       1.49307891
C        0.30471287       0.10446287       0.25232694
C        0.71980014       0.87851643      -0.95957369
C       -0.74900186       1.09592809      -0.92489456
C       -1.17071108      -0.68972084       0.07660696
C        0.14385120      -1.38148211       0.25140839
H        1.40759839       0.65456470       1.71910230
H        1.37351558       1.69973942      -0.67165534
H        1.10780211       0.29846668      -1.79532206
H       -0.98283696       1.90431125      -0.22192378
H       -1.76537275      -0.56437822       0.97271988
H       -1.73039281      -0.92391567      -0.81257880
H        0.32716036      -1.84615954       1.21240054
H        0.53842318      -1.93572135      -0.59169570
14
Frame=5 idx=006187 GeodesicLength=0.2359083347967791 rxn_smarts="[O:1]([C@:2]12[C:3]([H:8])([H:9])[C@@:4]1([H:10])[C:5]([H:11])([H:12])[C:6]2([H:13])[H:14])[H:7]>>[O:1]([C:2]1([C:3]([C:4][H:10])([H:8])[H:9])[C:5]([H:11])([H:12])[C:6]1([H:13])[H:14])[H:7]"
O        0.49140700       0.70765303       1.50079568
C        0.30627308       0.10902852       0.26123785
C        0.71678003       0.87615319      -0.95832823
C       -0.75048188       1.09597532      -0.90530181
C       -1.17392155      -0.68875064       0.06654307
C        0.14291328      -1.37736100       0.25347628
H        1.42682832       0.66148999       1.71373495
H        1.37413627       1.69755785      -0.67963735
H        1.09258429       0.29052168      -1.79566209
H       -0.98418303       1.91655316      -0.21746969
H       -1.78112050      -0.57809876       0.95647029
H       -1.72237811      -0.93203744      -0.82816081
H        0.31250872      -1.84527873       1.21567360
H        0.54865409      -1.93340615      -0.58337174
14
Frame=6 idx=006187 GeodesicLength=0.2829198184344304 rxn_smarts="[O:1]([C@:2]12[C:3]([H:8])([H:9])[C@@:4]1([H:10])[C:5]([H:11])([H:12])[C:6]2([H:13])[H:14])[H:7]>>[O:1]([C:2]1([C:3]([C:4][H:10])([H:8])[H:9])[C:5]([H:11])([H:12])[C:6]1([H:13])[H:14])[H:7]"
O        0.50787916       0.70990312       1.50841867
C        0.30779597       0.11358278       0.27029148
C        0.71362423       0.87377898      -0.95692910
C       -0.75188874       1.09600141      -0.88558150
C       -1.17710787      -0.68776246       0.05645640
C        0.14185622      -1.37322037       0.25570022
H        1.44639247       0.66818057       1.70803456
H        1.37444227       1.69543314      -0.68757284
H        1.07737001       0.28270426      -1.79567374
H       -0.98582501       1.92859384      -0.21333225
H       -1.79691284      -0.59206314       0.93971163
H       -1.71409240      -0.93978529      -0.84375656
H        0.29779767      -1.84424537       1.21895332
H        0.55866886      -1.93110146      -0.57472029
14
Frame=7 idx=006187 GeodesicLength=0.32980227584638216 rxn_smarts="[O:1]([C@:2]12[C:3]([H:8])([H:9])[C@@:4]1([H:10])[C:5]([H:11])([H:12])[C:6]2([H:13])[H:14])[H:7]>>[O:1]([C:2]1([C:3]([C:4][H:10])([H:8])[H:9])[C:5]([H:11])([H:12])[C:6]1([H:13])[H:14])[H:7]"
O        0.52486122       0.71211346       1.51591564
C        0.30925094       0.11813471       0.27949277
C        0.71032005       0.87140955      -0.95535463
C       -0.75324390       1.09600597      -0.86574800
C       -1.18027559      -0.68676287       0.04634008
C        0.14067486      -1.36905049       0.25806934
H        1.46628945       0.67459882       1.70195123
H        1.37443208       1.69334436      -0.69539394
H        1.06217623       0.27504241      -1.79532392
H       -0.98775263       1.94044130      -0.20956599
H       -1.81269350      -0.60620870       0.92248545
H       -1.70553869      -0.94722063      -0.85935391
H        0.28302451      -1.84304457       1.22224383
H        0.56847498      -1.92880331      -0.56575794
14
Frame=8 idx=006187 GeodesicLength=0.37661115509196497 rxn_smarts="[O:1]([C@:2]12[C:3]([H:8])([H:9])[C@@:4]1([H:10])[C:5]([H:11])([H:12])[C:6]2([H:13])[H:14])[H:7]>>[O:1]([C:2]1([C:3]([C:4][H:10])([H:8])[H:9])[C:5]([H:11])([H:12])[C:6]1([H:13])[H:14])[H:7]"
O        0.54237023       0.71431417       1.52328727
C        0.31068242       0.12267694       0.28884404
C        0.70688103       0.86904044      -0.95360879
C       -0.75452726       1.09597709      -0.84577902
C       -1.18341771      -0.68573547       0.03621359
C        0.13937045      -1.36486371       0.26059787
H        1.48652755       0.68075460       1.69550570
H        1.37408531       1.69131712      -0.70313065
H        1.04701827       0.26753455      -1.79464046
H       -0.99000448       1.95204487      -0.20615140
H       -1.82848811      -0.62056520       0.90473235
H       -1.69673144      -0.95428003      -0.87494917
H        0.26818298      -1.84168885       1.22554706
H        0.57805076      -1.92652653      -0.55646840
14
Frame=9 idx=006187 GeodesicLength=0.42335659875696185 rxn_smarts="[O:1]([C@:2]12[C:3]([H:8])([H:9])[C@@:4]1([H:10])[C:5]([H:11])([H:12])[C:6]2([H:13])[H:14])[H:7]>>[O:1]([C:2]1([C:3]([C:4][H:10])([H:8])[H:9])[C:5]([H:11])([H:12])[C:6]1([H:13])[H:14])[H:7]"
O        0.56042467       0.71646836       1.53053440
C        0.31208875       0.12720606       0.29835781
C        0.70330121       0.86667879      -0.95168268
C       -0.75575107       1.09591167      -0.82565595
C       -1.18653157      -0.68467851       0.02606727
C        0.13793355      -1.36065498       0.26329000
H        1.50711722       0.68663627       1.68866720
H        1.37340290       1.68937258      -0.71078581
H        1.03188745       0.26017175      -1.79361100
H       -0.99259819       1.96342256      -0.20310443
H       -1.84427224      -0.63512409       0.88642897
H       -1.68764748      -0.96097804      -0.89054687
H        0.25324745      -1.84017007       1.22888539
H        0.58739734      -1.92426236      -0.54684429
14
Frame=10 idx=006187 GeodesicLength=0.47003892762506677 rxn_smarts="[O:1]([C@:2]12[C:3]([H:8])([H:9])[C@@:4]1([H:10])[C:5]([H:11])([H:12])[C:6]2([H:13])[H:14])[H:7]>>[O:1]([C:2]1([C:3]([C:4][H:10])([H:8])[H:9])[C:5]([H:11])([H:12])[C:6]1([H:13])[H:14])[H:7]"
O        0.57904493       0.71856869       1.53763309
C        0.31347449       0.13172383       0.30803909
C        0.69957405       0.86433024      -0.94956774
C       -0.75692562       1.09581468      -0.80535921
C       -1.18961072      -0.68358745       0.01589921
C        0.13635888      -1.35642365       0.26615896
H        1.52807582       0.69222415       1.68140078
H        1.37237878       1.68750875      -0.71834398
H        1.01678403       0.25295938      -1.79224587
H       -0.99556283       1.97456192      -0.20041703
H       -1.86004090      -0.64987472       0.86753938
H       -1.67826544      -0.96731307      -0.90615475
H        0.23819161      -1.83848096       1.23227416
H        0.59652293      -1.92201180      -0.53685610
14
Frame=11 idx=006187 GeodesicLength=0.5166857119024605 rxn_smarts="[O:1]([C@:2]12[C:3]([H:8])([H:9])[C@@:4]1([H:10])[C:5]([H:11])([H:12])[C:6]2([H:13])[H:14])[H:7]>>[O:1]([C:2]1([C:3]([C:4][H:10])([H:8])[H:9])[C:5]([H:11])([H:12])[C:6]1([H:13])[H:14])[H:7]"
O        0.59824788       0.72059977       1.54457548
C        0.31484580       0.13623265       0.31789995
C        0.69569276       0.86200266      -0.94725353
C       -0.75804911       1.09568532      -0.78486915
C       -1.19265766      -0.68245809       0.00570374
C        0.13464235      -1.35216708       0.26921150
H        1.54941408       0.69750634       1.67368053
H        1.37099791       1.68573285      -0.72580347
H        1.00169671       0.24591034      -1.79053314
H       -0.99889669       1.98544642      -0.19810805
H       -1.87578376      -0.66481068       0.84804383
H       -1.66857849      -0.97329123      -0.92178272
H        0.22299485      -1.83661200       1.23573189
H        0.60543337      -1.91977728      -0.52649686
14
Frame=12 idx=006187 GeodesicLength=0.5633101273451435 rxn_smarts="[O:1]([C@:2]12[C:3]([H:8])([H:9])[C@@:4]1([H:10])[C:5]([H:11])([H:12])[C:6]2([H:13])[H:14])[H:7]>>[O:1]([C:2]1([C:3]([C:4][H:10])([H:8])[H:9])[C:5]([H:11])([H:12])[C:6]1([H:13])[H:14])[H:7]"
O        0.61805563       0.72254332       1.55134560
C        0.31620926       0.14073191       0.32794947
C        0.69165432       0.85970234      -0.94473088
C       -0.75913148       1.09552191      -0.76416377
C       -1.19566743      -0.68128389      -0.00452198
C        0.13277640      -1.34788336       0.27245789
H        1.57114664       0.70247083       1.66547252
H        1.36925716       1.68405533      -0.73315524
H        0.98662811       0.23902424      -1.78847658
H       -1.00263231       1.99606479      -0.19618160
H       -1.89148814      -0.67992564       0.82790999
H       -1.65856580      -0.97890820      -0.93743397
H        0.20762873      -1.83455661       1.23927259
H        0.61412890      -1.91755697      -0.51574404
14
Frame=13 idx=006187 GeodesicLength=0.6098913677449365 rxn_smarts="[O:1]([C@:2]12[C:3]([H:8])([H:9])[C@@:4]1([H:10])[C:5]([H:11])([H:12])[C:6]2([H:13])[H:14])[H:7]>>[O:1]([C:2]1([C:3]([C:4][H:10])([H:8])[H:9])[C:5]([H:11])([H:12])[C:6]1([H:13])[H:14])[H:7]"
O        0.63844758       0.72438963       1.55792835
C        0.31757998       0.14521902       0.33818636
C        0.68747072       0.85743736      -0.94199350
C       -0.76016661       1.09530812      -0.74325458
C       -1.19863794      -0.68005466      -0.01475826
C        0.13075997      -1.34357167       0.27588607
H        1.59323927       0.70709384       1.65679107
H        1.36714935       1.68249266      -0.74037690
H        0.97161761       0.23231190      -1.78606903
H       -1.00679050       2.00638543      -0.19469410
H       -1.90710876      -0.69518015       0.80716936
H       -1.64825480      -0.98416434      -0.95306802
H        0.19211589      -1.83231923       1.24288086
H        0.62257821      -1.91534790      -0.50462769
14
Frame=14 idx=006187 GeodesicLength=0.6564506842010925 rxn_smarts="[O:1]([C@:2]12[C:3]([H:8])([H:9])[C@@:4]1([H:10])[C:5]([H:11])([H:12])[C:6]2([H:13])[H:14])[H:7]>>[O:1]([C:2]1([C:3]([C:4][H:10])([H:8])[H:9])[C:5]([H:11])([H:12])[C:6]1([H:13])[H:14])[H:7]"
O        0.65944652       0.72612108       1.56430714
C        0.31896727       0.14969291       0.34862133
C        0.68314069       0.85521710      -0.93903172
C       -0.76115878       1.09504240      -0.72211961
C       -1.20156676      -0.67876148      -0.02500679
C        0.12858675      -1.33923245       0.27950851
H        1.61570696       0.71135727       1.64760258
H        1.36466680       1.68106072      -0.74746124
H        0.95666836       0.22578199      -1.78331081
H       -1.01140529       2.01638707      -0.19366222
H       -1.92263226      -0.71056651       0.78579112
H       -1.63763156      -0.98905064      -0.96868647
H        0.17642934      -1.82989648       1.24657592
H        0.63078195      -1.91315299      -0.49312775
14
Frame=15 idx=006187 GeodesicLength=0.7030043689481664 rxn_smarts="[O:1]([C@:2]12[C:3]([H:8])([H:9])[C@@:4]1([H:10])[C:5]([H:11])([H:12])[C:6]2([H:13])[H:14])[H:7]>>[O:1]([C:2]1([C:3]([C:4][H:10])([H:8])[H:9])[C:5]([H:11])([H:12])[C:6]1([H:13])[H:14])[H:7]"
O        0.68107435       0.72772073       1.57046697
C        0.32038035       0.15415810       0.35926271
C        0.67865467       0.85304884      -0.93583436
C       -0.76210875       1.09471991      -0.70073820
C       -1.20444513      -0.67739929      -0.03526969
C        0.12624972      -1.33485562       0.28333195
H        1.63855561       0.71523059       1.63788499
H        1.36179119       1.67976738      -0.75439388
H        0.94177400       0.21944311      -1.78019847
H       -1.01649281       2.02603818      -0.19310601
H       -1.93803742      -0.72606415       0.76374726
H       -1.62667328      -0.99357566      -0.98429058
H        0.16055114      -1.82726222       1.25036682
H        0.63872636      -1.91096988      -0.48122952
14
Frame=16 idx=006187 GeodesicLength=0.7495331888334196 rxn_smarts="[O:1]([C@:2]12[C:3]([H:8])([H:9])[C@@:4]1([H:10])[C:5]([H:11])([H:12])[C:6]2([H:13])[H:14])[H:7]>>[O:1]([C:2]1([C:3]([C:4][H:10])([H:8])[H:9])[C:5]([H:11])([H:12])[C:6]1([H:13])[H:14])[H:7]"
O        0.70329956       0.72917231       1.57638466
C        0.32183715       0.15860716       0.37011047
C        0.67403329       0.85094101      -0.93239029
C       -0.76301106       1.09432713      -0.67911643
C       -1.20727520      -0.67595031      -0.04552151
C        0.12375274      -1.33044466       0.28734156
H        1.66174364       0.71869729       1.62764224
H        1.35852419       1.67863113      -0.76115115
H        0.92698916       0.21330146      -1.77671709
H       -1.02209412       2.03530449      -0.19309866
H       -1.95327568      -0.74163195       0.74108229
H       -1.61541755      -0.99772179      -0.99982818
H        0.14450577      -1.82443510       1.25423315
H        0.64638813      -1.90879815      -0.46897106
