16
Frame=0 idx=011372 GeodesicLength=0.0 rxn_smarts="[C:1]([C:2]([C:3]([H:11])([H:12])[H:13])([C:4]([O:5][H:16])([H:14])[H:15])[C:6]#[N:7])([H:8])([H:9])[H:10]>>[C:1]([C:2](=[C:3]([H:11])[H:13])[C:4]([O:5][H:16])([H:14])[H:15])([C:6]#[N:7])([H:9])[H:10].[H:8][H:12]"
C       -0.91020563      -0.82719628       0.66060077
C       -0.20433607       0.25301733      -0.04912296
C       -0.46889872       0.38513185      -1.42926914
C        1.21438978       0.53650788       0.42827581
O        2.02169769      -0.55467544       0.05321275
C       -1.20342267       0.98427173       0.93037445
N       -1.77697312       1.79733636       1.52062503
H       -0.35635066      -1.88841346      -0.75836546
H       -0.53971338      -1.18769485       1.61120670
H       -1.91540242      -1.08707848       0.36042782
H       -1.46019265       0.15706979      -1.80183456
H       -0.17971272      -1.38266734      -1.39551345
H        0.11001926       1.08888485      -2.01446979
H        1.55246989       1.47032804      -0.03440547
H        1.21332223       0.67545140       1.51530651
H        2.90330925      -0.42027331       0.40295104
16
Frame=1 idx=011372 GeodesicLength=0.07828612682869104 rxn_smarts="[C:1]([C:2]([C:3]([H:11])([H:12])[H:13])([C:4]([O:5][H:16])([H:14])[H:15])[C:6]#[N:7])([H:8])([H:9])[H:10]>>[C:1]([C:2](=[C:3]([H:11])[H:13])[C:4]([O:5][H:16])([H:14])[H:15])([C:6]#[N:7])([H:9])[H:10].[H:8][H:12]"
C       -0.90843175      -0.82622137       0.65479164
C       -0.20452151       0.25977017      -0.05424303
C       -0.46839851       0.38071715      -1.43655412
C        1.21500754       0.54389174       0.41858251
O        2.01835647      -0.55676631       0.06219010
C       -1.20697860       0.98096252       0.95024680
N       -1.77609939       1.79161475       1.54717158
H       -0.35501416      -1.89560260      -0.75378623
H       -0.53329127      -1.19768567       1.59934183
H       -1.91522892      -1.08433506       0.35660471
H       -1.46471550       0.16320029      -1.80294285
H       -0.17248083      -1.38487558      -1.40704420
H        0.10326990       1.09127948      -2.02098788
H        1.55939663       1.46747967      -0.05945584
H        1.22005016       0.70533970       1.50238588
H        2.88907974      -0.43876887       0.44369909
16
Frame=2 idx=011372 GeodesicLength=0.15658723102054 rxn_smarts="[C:1]([C:2]([C:3]([H:11])([H:12])[H:13])([C:4]([O:5][H:16])([H:14])[H:15])[C:6]#[N:7])([H:8])([H:9])[H:10]>>[C:1]([C:2](=[C:3]([H:11])[H:13])[C:4]([O:5][H:16])([H:14])[H:15])([C:6]#[N:7])([H:9])[H:10].[H:8][H:12]"
C       -0.90671792      -0.82514113       0.64889949
C       -0.20477584       0.26663461      -0.05945779
C       -0.46777126       0.37620591      -1.44393735
C        1.21559667       0.55126993       0.40878087
O        2.01495455      -0.55859920       0.07144211
C       -1.21011879       0.97734434       0.97061414
N       -1.77457222       1.78555155       1.57436654
H       -0.35364672      -1.90297536      -0.74884951
H       -0.52706025      -1.20768162       1.58721675
H       -1.91514156      -1.08134483       0.35268815
H       -1.46897200       0.16937694      -1.80417077
H       -0.16483070      -1.38703679      -1.41876393
H        0.09670224       1.09338610      -2.02763316
H        1.56636809       1.46419472      -0.08460266
H        1.22680430       0.73538925       1.48881628
H        2.87318142      -0.45657442       0.48459083
16
Frame=3 idx=011372 GeodesicLength=0.23490653750527452 rxn_smarts="[C:1]([C:2]([C:3]([H:11])([H:12])[H:13])([C:4]([O:5][H:16])([H:14])[H:15])[C:6]#[N:7])([H:8])([H:9])[H:10]>>[C:1]([C:2](=[C:3]([H:11])[H:13])[C:4]([O:5][H:16])([H:14])[H:15])([C:6]#[N:7])([H:9])[H:10].[H:8][H:12]"
C       -0.90507164      -0.82395153       0.64292712
C       -0.20510440       0.27361021      -0.06476951
C       -0.46701798       0.37160066      -1.45141902
C        1.21614927       0.55863820       0.39887101
O        2.01148537      -0.56016397       0.08097950
C       -1.21281822       0.97339549       0.99148776
N       -1.77235516       1.77911888       1.60222487
H       -0.35226169      -1.91053282      -0.74353036
H       -0.52104107      -1.21768303       1.57483387
H       -1.91514979      -1.07808885       0.34868436
H       -1.47295305       0.17559669      -1.80553216
H       -0.15673852      -1.38913272      -1.43068569
H        0.09033704       1.09518923      -2.03441705
H        1.57337520       1.46045863      -0.10983532
H        1.23357133       0.76557483       1.47458630
H        2.85559331      -0.47362991       0.52559431
16
Frame=4 idx=011372 GeodesicLength=0.3133549604420927 rxn_smarts="[C:1]([C:2]([C:3]([H:11])([H:12])[H:13])([C:4]([O:5][H:16])([H:14])[H:15])[C:6]#[N:7])([H:8])([H:9])[H:10]>>[C:1]([C:2](=[C:3]([H:11])[H:13])[C:4]([O:5][H:16])([H:14])[H:15])([C:6]#[N:7])([H:9])[H:10].[H:8][H:12]"
C       -0.90350606      -0.82265095       0.63688887
C       -0.20551837       0.28070370      -0.07018617
C       -0.46616146       0.36691090      -1.45902932
C        1.21668523       0.56600354       0.38885053
O        2.00799287      -0.56144570       0.09080198
C       -1.21507878       0.96910059       1.01289669
N       -1.76945866       1.77229673       1.63079032
H       -0.35085854      -1.91828452      -0.73781481
H       -0.51524075      -1.22769418       1.56222247
H       -1.91529091      -1.07455681       0.34461095
H       -1.47669516       0.18185662      -1.80707408
H       -0.14818038      -1.39114690      -1.44285552
H        0.08417343       1.09668822      -2.04139410
H        1.58044001       1.45627127      -0.13516016
H        1.24036773       0.79588689       1.45970101
H        2.83632980      -0.48993942       0.56675134
16
Frame=5 idx=011372 GeodesicLength=0.3916758703031843 rxn_smarts="[C:1]([C:2]([C:3]([H:11])([H:12])[H:13])([C:4]([O:5][H:16])([H:14])[H:15])[C:6]#[N:7])([H:8])([H:9])[H:10]>>[C:1]([C:2](=[C:3]([H:11])[H:13])[C:4]([O:5][H:16])([H:14])[H:15])([C:6]#[N:7])([H:9])[H:10].[H:8][H:12]"
C       -0.90209200      -0.82123053       0.63075830
C       -0.20602032       0.28788865      -0.07566282
C       -0.46510963       0.36209815      -1.46666673
C        1.21712771       0.57330170       0.37881852
O        2.00430776      -0.56252931       0.10108044
C       -1.21684166       0.96445793       1.03480003
N       -1.76580098       1.76510222       1.65994709
H       -0.34962221      -1.92625911      -0.73164346
H       -0.50981561      -1.23772893       1.54931853
H       -1.91559546      -1.07068005       0.34040699
H       -1.48003935       0.18812400      -1.80875407
H       -0.13905171      -1.39310366      -1.45515536
H        0.07834742       1.09782444      -2.04841724
H        1.58749397       1.45156680      -0.16040327
H        1.24711827       0.82620642       1.44420296
H        2.81559381      -0.50503870       0.60737010
16
Frame=6 idx=011372 GeodesicLength=0.4699808889999847 rxn_smarts="[C:1]([C:2]([C:3]([H:11])([H:12])[H:13])([C:4]([O:5][H:16])([H:14])[H:15])[C:6]#[N:7])([H:8])([H:9])[H:10]>>[C:1]([C:2](=[C:3]([H:11])[H:13])[C:4]([O:5][H:16])([H:14])[H:15])([C:6]#[N:7])([H:9])[H:10].[H:8][H:12]"
C       -0.90063384      -0.81968568       0.62450720
C       -0.20659756       0.29522384      -0.08128675
C       -0.46401413       0.35722291      -1.47439709
C        1.21751710       0.58067997       0.36855736
O        2.00054583      -0.56319977       0.11153039
C       -1.21801263       0.95941181       1.05724197
N       -1.76122397       1.75739131       1.68992173
H       -0.34825372      -1.93441405      -0.72506022
H       -0.50447444      -1.24772301       1.53607686
H       -1.91587311      -1.06654126       0.33614226
H       -1.48315245       0.19437015      -1.81055611
H       -0.12943514      -1.39490230      -1.46778415
H        0.07261453       1.09866443      -2.05560689
H        1.59455169       1.44643123      -0.18584763
H        1.25385255       0.85677420       1.42785724
H        2.79258928      -0.51970379       0.64870386
16
Frame=7 idx=011372 GeodesicLength=0.5484330716661158 rxn_smarts="[C:1]([C:2]([C:3]([H:11])([H:12])[H:13])([C:4]([O:5][H:16])([H:14])[H:15])[C:6]#[N:7])([H:8])([H:9])[H:10]>>[C:1]([C:2](=[C:3]([H:11])[H:13])[C:4]([O:5][H:16])([H:14])[H:15])([C:6]#[N:7])([H:9])[H:10].[H:8][H:12]"
C       -0.89929083      -0.81802273       0.61818697
C       -0.20727924       0.30268347      -0.08702583
C       -0.46281919       0.35227716      -1.48224785
C        1.21786983       0.58805493       0.35818681
O        1.99671795      -0.56357210       0.12237115
C       -1.21866271       0.95395745       1.08022699
N       -1.75581738       1.74917279       1.72068545
H       -0.34696132      -1.94278759      -0.71799730
H       -0.49943492      -1.25772822       1.52260293
H       -1.91632872      -1.06206996       0.33181402
H       -1.48599823       0.20060351      -1.81259364
H       -0.11920791      -1.39655289      -1.48069444
H        0.06712388       1.09919487      -2.06301100
H        1.60166447       1.44079600      -0.21136743
H        1.26057886       0.88742626       1.41080962
H        2.76784546      -0.53343295       0.69005357
16
Frame=8 idx=011372 GeodesicLength=0.6269550215176621 rxn_smarts="[C:1]([C:2]([C:3]([H:11])([H:12])[H:13])([C:4]([O:5][H:16])([H:14])[H:15])[C:6]#[N:7])([H:8])([H:9])[H:10]>>[C:1]([C:2](=[C:3]([H:11])[H:13])[C:4]([O:5][H:16])([H:14])[H:15])([C:6]#[N:7])([H:9])[H:10].[H:8][H:12]"
C       -0.89804266      -0.81622914       0.61178106
C       -0.20806448       0.31026943      -0.09288188
C       -0.46152219       0.34725419      -1.49019112
C        1.21815877       0.59543047       0.34769987
O        1.99277935      -0.56362218       0.13360066
C       -1.21872950       0.94807523       1.10375281
N       -1.74949970       1.74041640       1.75223467
H       -0.34575150      -1.95138532      -0.71042825
H       -0.49469435      -1.26772180       1.50886063
H       -1.91692520      -1.05724312       0.32741863
H       -1.48854827       0.20679193      -1.81484955
H       -0.10832678      -1.39803069      -1.49390299
H        0.06186946       1.09940429      -2.07059066
H        1.60879855       1.43464573      -0.23693632
H        1.26726274       0.91814555       1.39302844
H        2.74123575      -0.54620099       0.73140400
16
Frame=9 idx=011372 GeodesicLength=0.7055676357483072 rxn_smarts="[C:1]([C:2]([C:3]([H:11])([H:12])[H:13])([C:4]([O:5][H:16])([H:14])[H:15])[C:6]#[N:7])([H:8])([H:9])[H:10]>>[C:1]([C:2](=[C:3]([H:11])[H:13])[C:4]([O:5][H:16])([H:14])[H:15])([C:6]#[N:7])([H:9])[H:10].[H:8][H:12]"
C       -0.89689677      -0.81430454       0.60528658
C       -0.20895954       0.31798519      -0.09886051
C       -0.46013365       0.34215638      -1.49822769
C        1.21838369       0.60281099       0.33709960
O        1.98873124      -0.56333768       0.14524548
C       -1.21818466       0.94175018       1.12781428
N       -1.74221705       1.73109563       1.78458575
H       -0.34465628      -1.96023249      -0.70232243
H       -0.49027003      -1.27770223       1.49484871
H       -1.91767815      -1.05204742       0.32295858
H       -1.49081268       0.21291765      -1.81734406
H       -0.09674226      -1.39931785      -1.50743787
H        0.05685152       1.09929782      -2.07834976
H        1.61595399       1.42797618      -0.26253348
H        1.27389726       0.94891035       1.37451092
H        2.71273337      -0.55795816       0.77272588
16
Frame=10 idx=011372 GeodesicLength=0.7842481152952495 rxn_smarts="[C:1]([C:2]([C:3]([H:11])([H:12])[H:13])([C:4]([O:5][H:16])([H:14])[H:15])[C:6]#[N:7])([H:8])([H:9])[H:10]>>[C:1]([C:2](=[C:3]([H:11])[H:13])[C:4]([O:5][H:16])([H:14])[H:15])([C:6]#[N:7])([H:9])[H:10].[H:8][H:12]"
C       -0.89581748      -0.81222783       0.59872387
C       -0.20995765       0.32583602      -0.10496420
C       -0.45864195       0.33699206      -1.50634331
C        1.21852787       0.61020377       0.32636763
O        1.98454807      -0.56265006       0.15723340
C       -1.21696402       0.93494063       1.15242375
N       -1.73395914       1.72115441       1.81767821
H       -0.34365331      -1.96929508      -0.69361722
H       -0.48613945      -1.28762526       1.48058791
H       -1.91853625      -1.04645913       0.31848163
H       -1.49275615       0.21893232      -1.82007178
H       -0.08439200      -1.40033766      -1.52131996
H        0.05206330       1.09888003      -2.08628417
H        1.62310153       1.42079391      -0.28813747
H        1.28045548       0.97965358       1.35523661
H        2.68212116      -0.56879169       0.81400512
16
Frame=11 idx=011372 GeodesicLength=0.863040341021986 rxn_smarts="[C:1]([C:2]([C:3]([H:11])([H:12])[H:13])([C:4]([O:5][H:16])([H:14])[H:15])[C:6]#[N:7])([H:8])([H:9])[H:10]>>[C:1]([C:2](=[C:3]([H:11])[H:13])[C:4]([O:5][H:16])([H:14])[H:15])([C:6]#[N:7])([H:9])[H:10].[H:8][H:12]"
C       -0.89486838      -0.81000655       0.59208450
C       -0.21107723       0.33381322      -0.11119147
C       -0.45705216       0.33175554      -1.51454344
C        1.21859116       0.61758450       0.31554909
O        1.98022662      -0.56160956       0.16968140
C       -1.21507943       0.92765059       1.17755025
N       -1.72466277       1.71059209       1.85154833
H       -0.34284283      -1.97863651      -0.68427707
H       -0.48239765      -1.29750234       1.46608952
H       -1.91958300      -1.04045296       0.31396010
H       -1.49439320       0.22482629      -1.82308337
H       -0.07122143      -1.40109957      -1.53557587
H        0.04754216       1.09814713      -2.09439248
H        1.63025536       1.41307403      -0.31367961
H        1.28692213       1.01031780       1.33526346
H        2.64964064      -0.57845370       0.85501664
16
Frame=12 idx=011372 GeodesicLength=0.9419415865328893 rxn_smarts="[C:1]([C:2]([C:3]([H:11])([H:12])[H:13])([C:4]([O:5][H:16])([H:14])[H:15])[C:6]#[N:7])([H:8])([H:9])[H:10]>>[C:1]([C:2](=[C:3]([H:11])[H:13])[C:4]([O:5][H:16])([H:14])[H:15])([C:6]#[N:7])([H:9])[H:10].[H:8][H:12]"
C       -0.89406076      -0.80762810       0.58537765
C       -0.21232366       0.34191246      -0.11754192
C       -0.45535341       0.32644478      -1.52281873
C        1.21855684       0.62493965       0.30465795
O        1.97573526      -0.56020226       0.18259402
C       -1.21250621       0.91985893       1.20318014
N       -1.71429633       1.69937916       1.88616627
H       -0.34227078      -1.98826293      -0.67424345
H       -0.47908221      -1.30730312       1.45137561
H       -1.92082523      -1.03399744       0.30941038
H       -1.49570143       0.23055782      -1.82639683
H       -0.05715345      -1.40155395      -1.55022924
H        0.04329767       1.09710063      -2.10266344
H        1.63739888       1.40480655      -0.33910462
H        1.29326527       1.04082386       1.31461817
H        2.61531954      -0.58687605       0.89561803
16
Frame=13 idx=011372 GeodesicLength=1.020967040034834 rxn_smarts="[C:1]([C:2]([C:3]([H:11])([H:12])[H:13])([C:4]([O:5][H:16])([H:14])[H:15])[C:6]#[N:7])([H:8])([H:9])[H:10]>>[C:1]([C:2](=[C:3]([H:11])[H:13])[C:4]([O:5][H:16])([H:14])[H:15])([C:6]#[N:7])([H:9])[H:10].[H:8][H:12]"
C       -0.89341595      -0.80508438       0.57860831
C       -0.21370579       0.35012932      -0.12401989
C       -0.45354295       0.32105831      -1.53116876
C        1.21841237       0.63225672       0.29370939
O        1.97104898      -0.55842337       0.19599709
C       -1.20923550       0.91154986       1.22928418
N       -1.70280573       1.68747919       1.92153267
H       -0.34199654      -1.99819403      -0.66345661
H       -0.47624167      -1.31700050       1.43647197
H       -1.92228471      -1.02706695       0.30484028
H       -1.49667419       0.23609140      -1.83004084
H       -0.04211062      -1.40165444      -1.56531565
H        0.03933813       1.09574506      -2.11109472
H        1.64452472       1.39597954      -0.36436532
H        1.29945274       1.07110698       1.29333329
H        2.57923673      -0.59397272       0.93568462
16
Frame=14 idx=011372 GeodesicLength=1.1001291963433295 rxn_smarts="[C:1]([C:2]([C:3]([H:11])([H:12])[H:13])([C:4]([O:5][H:16])([H:14])[H:15])[C:6]#[N:7])([H:8])([H:9])[H:10]>>[C:1]([C:2](=[C:3]([H:11])[H:13])[C:4]([O:5][H:16])([H:14])[H:15])([C:6]#[N:7])([H:9])[H:10].[H:8][H:12]"
C       -0.89295105      -0.80236785       0.57178460
C       -0.21523108       0.35845943      -0.13062849
C       -0.45161880       0.31559543      -1.53958947
C        1.21814627       0.63952416       0.28272235
O        1.96614167      -0.55626536       0.20989651
C       -1.20526085       0.90271228       1.25582961
N       -1.69015758       1.67486837       1.95761825
H       -0.34209068      -2.00845362      -0.65185120
H       -0.47391597      -1.32656297       1.42141080
H       -1.92397843      -1.01963896       0.30026228
H       -1.49730677       0.24138274      -1.83404028
H       -0.02600476      -1.40134772      -1.58087340
H        0.03566313       1.09409256      -2.11967710
H        1.65162093       1.38659500      -0.38940071
H        1.30545777       1.10109174       1.27145376
H        2.54148620      -0.59968523       0.97508250
16
Frame=15 idx=011372 GeodesicLength=1.179454020068687 rxn_smarts="[C:1]([C:2]([C:3]([H:11])([H:12])[H:13])([C:4]([O:5][H:16])([H:14])[H:15])[C:6]#[N:7])([H:8])([H:9])[H:10]>>[C:1]([C:2](=[C:3]([H:11])[H:13])[C:4]([O:5][H:16])([H:14])[H:15])([C:6]#[N:7])([H:9])[H:10].[H:8][H:12]"
C       -0.89268490      -0.79947121       0.56491287
C       -0.21690737       0.36689660      -0.13737518
C       -0.44958184       0.31005364      -1.54808364
C        1.21774942       0.64673041       0.27170928
O        1.96099041      -0.55372203       0.22430357
C       -1.20058688       0.89333527       1.28277654
N       -1.67629610       1.66151132       1.99442195
H       -0.34263018      -2.01906729      -0.63936316
H       -0.47214769      -1.33595256       1.40622901
H       -1.92592614      -1.01169377       0.29568791
H       -1.49760161       0.24638339      -1.83842330
H       -0.00873396      -1.40056960      -1.59695704
H        0.03226359       1.09215809      -2.12840740
H        1.65868263       1.37664714      -0.41416593
H        1.31125031       1.13072025       1.24902006
H        2.50216033      -0.60395964       1.01371444
16
Frame=16 idx=011372 GeodesicLength=1.25894327973113 rxn_smarts="[C:1]([C:2]([C:3]([H:11])([H:12])[H:13])([C:4]([O:5][H:16])([H:14])[H:15])[C:6]#[N:7])([H:8])([H:9])[H:10]>>[C:1]([C:2](=[C:3]([H:11])[H:13])[C:4]([O:5][H:16])([H:14])[H:15])([C:6]#[N:7])([H:9])[H:10].[H:8][H:12]"
C       -0.89262586      -0.79638478       0.55800064
C       -0.21874019       0.37543466      -0.14426990
C       -0.44743136       0.30443318      -1.55664884
C        1.21720467       0.65386212       0.26068133
O        1.95556096      -0.55078490       0.23922063
C       -1.19521932       0.88341111       1.31006303
N       -1.66115709       1.64735974       2.03192509
H       -0.34369184      -2.03005638      -0.62590642
H       -0.47097041      -1.34512216       1.39097158
H       -1.92812825      -1.00321120       0.29113029
H       -1.49755504       0.25104631      -1.84321130
H        0.00981202      -1.39924019      -1.61361883
H        0.02912264       1.08996129      -2.13727536
H        1.66569146       1.36613386      -0.43861219
H        1.31678857       1.15992804       1.22607014
H        2.46133906      -0.60677070       1.05148011
