12
Frame=0 idx=005221 GeodesicLength=0.0 rxn_smarts="[C:1]([C:2]#[C:3][C@@:4]1([H:10])[C:5]([H:11])([H:12])[O:6]1)([H:7])([H:8])[H:9]>>[C+:1]([C:2](=[C-:3][C@@:4]1([H:10])[C:5]([H:11])([H:12])[O:6]1)[H:8])([H:7])[H:9]"
C       -2.64498941      -0.01299055      -0.05465132
C       -1.27829870      -0.15030082      -0.19810093
C       -0.10470952      -0.06530087      -0.71329538
C        1.14129770       0.48845136      -0.24810585
C        2.24038497      -0.42998413       0.10457088
O        2.30362811       0.32748275      -1.06950572
H       -3.19545124      -0.68328196       0.59211991
H       -1.41395813      -0.10654879       0.96207159
H       -3.18251011       0.81725268      -0.50264771
H        1.12469892       1.45384929       0.25591409
H        2.09031748      -1.49715792      -0.03121782
H        2.91958993      -0.14147108       0.90284826
12
Frame=1 idx=005221 GeodesicLength=0.053836913458610976 rxn_smarts="[C:1]([C:2]#[C:3][C@@:4]1([H:10])[C:5]([H:11])([H:12])[O:6]1)([H:7])([H:8])[H:9]>>[C+:1]([C:2](=[C-:3][C@@:4]1([H:10])[C:5]([H:11])([H:12])[O:6]1)[H:8])([H:7])[H:9]"
C       -2.63864625      -0.00308695      -0.04314998
C       -1.27529447      -0.17453750      -0.18366925
C       -0.10546027      -0.07231457      -0.70677582
C        1.13971792       0.48800557      -0.24819437
C        2.24402301      -0.42657697       0.09954525
O        2.29757447       0.32991637      -1.07569060
H       -3.21539050      -0.68289016       0.57009755
H       -1.43429668      -0.11030877       0.98624097
H       -3.15555992       0.82709113      -0.51454423
H        1.12070948       1.45312739       0.25616807
H        2.09604263      -1.49434721      -0.03349125
H        2.92658058      -0.13407834       0.89346365
12
Frame=2 idx=005221 GeodesicLength=0.10765169783907215 rxn_smarts="[C:1]([C:2]#[C:3][C@@:4]1([H:10])[C:5]([H:11])([H:12])[O:6]1)([H:7])([H:8])[H:9]>>[C+:1]([C:2](=[C-:3][C@@:4]1([H:10])[C:5]([H:11])([H:12])[O:6]1)[H:8])([H:7])[H:9]"
C       -2.63217014       0.00582115      -0.03174597
C       -1.27217580      -0.19534119      -0.16838897
C       -0.10637563      -0.07773967      -0.69986864
C        1.13857402       0.48805281      -0.24834662
C        2.24721015      -0.42365019       0.09455080
O        2.29158302       0.33131102      -1.08210124
H       -3.23348872      -0.68386054       0.54611219
H       -1.45536478      -0.11283705       1.01086842
H       -3.12986904       0.83455959      -0.52557583
H        1.11830562       1.45313226       0.25595088
H        2.10022777      -1.49191159      -0.03527807
H        2.93354352      -0.12753660       0.88382305
12
Frame=3 idx=005221 GeodesicLength=0.1614665728855454 rxn_smarts="[C:1]([C:2]#[C:3][C@@:4]1([H:10])[C:5]([H:11])([H:12])[O:6]1)([H:7])([H:8])[H:9]>>[C+:1]([C:2](=[C-:3][C@@:4]1([H:10])[C:5]([H:11])([H:12])[O:6]1)[H:8])([H:7])[H:9]"
C       -2.62569533       0.01371383      -0.02061280
C       -1.26894862      -0.21356317      -0.15242181
C       -0.10739605      -0.08211692      -0.69262288
C        1.13774206       0.48842383      -0.24855627
C        2.25010100      -0.42106283       0.08957428
O        2.28560927       0.33191618      -1.08869656
H       -3.25000822      -0.68563030       0.52043733
H       -1.47733378      -0.11442950       1.03579694
H       -3.10500459       0.84039026      -0.53551221
H        1.11703832       1.45365955       0.25533080
H        2.10337696      -1.48974826      -0.03666651
H        2.94051898      -0.12155268       0.87394969
12
Frame=4 idx=005221 GeodesicLength=0.2152960019321688 rxn_smarts="[C:1]([C:2]#[C:3][C@@:4]1([H:10])[C:5]([H:11])([H:12])[O:6]1)([H:7])([H:8])[H:9]>>[C+:1]([C:2](=[C-:3][C@@:4]1([H:10])[C:5]([H:11])([H:12])[O:6]1)[H:8])([H:7])[H:9]"
C       -2.61929409       0.02057027      -0.00991035
C       -1.26561763      -0.22985327      -0.13592285
C       -0.10847679      -0.08588628      -0.68511189
C        1.13711721       0.48898696      -0.24887258
C        2.25279063      -0.41868591       0.08464544
O        2.27962171       0.33184527      -1.09546392
H       -3.26513154      -0.68783884       0.49321424
H       -1.50033846      -0.11547303       1.06085664
H       -3.08056755       0.84533261      -0.54395288
H        1.11654852       1.45458852       0.25422901
H        2.10584856      -1.48776459      -0.03760119
H        2.94749943      -0.11582171       0.86389032
12
Frame=5 idx=005221 GeodesicLength=0.2691435022222476 rxn_smarts="[C:1]([C:2]#[C:3][C@@:4]1([H:10])[C:5]([H:11])([H:12])[O:6]1)([H:7])([H:8])[H:9]>>[C+:1]([C:2](=[C-:3][C@@:4]1([H:10])[C:5]([H:11])([H:12])[O:6]1)[H:8])([H:7])[H:9]"
C       -2.61304035       0.02633239       0.00026840
C       -1.26216713      -0.24450431      -0.11888265
C       -0.10958751      -0.08917903      -0.67731416
C        1.13667603       0.48968915      -0.24923805
C        2.25535005      -0.41650284       0.07971398
O        2.27360277       0.33125237      -1.10236811
H       -3.27887927      -0.69032305       0.46472083
H       -1.52451913      -0.11578711       1.08598279
H       -3.05650821       0.84950728      -0.55106169
H        1.11671555       1.45580729       0.25280775
H        2.10782559      -1.48594131      -0.03824612
H        2.95453161      -0.11035081       0.85361703
12
Frame=6 idx=005221 GeodesicLength=0.32301572534005335 rxn_smarts="[C:1]([C:2]#[C:3][C@@:4]1([H:10])[C:5]([H:11])([H:12])[O:6]1)([H:7])([H:8])[H:9]>>[C+:1]([C:2](=[C-:3][C@@:4]1([H:10])[C:5]([H:11])([H:12])[O:6]1)[H:8])([H:7])[H:9]"
C       -2.60694670       0.03106539       0.00990353
C       -1.25859800      -0.25783457      -0.10137223
C       -0.11070707      -0.09222194      -0.66927568
C        1.13636367       0.49046634      -0.24970723
C        2.25781806      -0.41443795       0.07481088
O        2.26753516       0.33014922      -1.10941849
H       -3.29132873      -0.69294427       0.43500274
H       -1.54994738      -0.11572825       1.11107321
H       -3.03262135       0.85337692      -0.55661895
H        1.11735834       1.45727841       0.25095394
H        2.10947401      -1.48422357      -0.03850896
H        2.96160000      -0.10494575       0.84315725
12
Frame=7 idx=005221 GeodesicLength=0.3769128089216654 rxn_smarts="[C:1]([C:2]#[C:3][C@@:4]1([H:10])[C:5]([H:11])([H:12])[O:6]1)([H:7])([H:8])[H:9]>>[C+:1]([C:2](=[C-:3][C@@:4]1([H:10])[C:5]([H:11])([H:12])[O:6]1)[H:8])([H:7])[H:9]"
C       -2.60101849       0.03484408       0.01903160
C       -1.25490624      -0.27001630      -0.08340499
C       -0.11182180      -0.09511991      -0.66100855
C        1.13615539       0.49128705      -0.25029893
C        2.26022002      -0.41245674       0.06993975
O        2.26140803       0.32855645      -1.11661705
H       -3.30249364      -0.69562093       0.40412889
H       -1.57668324      -0.11548471       1.13607184
H       -3.00883712       0.85714684      -0.56061831
H        1.11838710       1.45897351       0.24863467
H        2.11088610      -1.48258255      -0.03837119
H        2.96870391      -0.09952679       0.83251226
12
Frame=8 idx=005221 GeodesicLength=0.4308440626168224 rxn_smarts="[C:1]([C:2]#[C:3][C@@:4]1([H:10])[C:5]([H:11])([H:12])[O:6]1)([H:7])([H:8])[H:9]>>[C+:1]([C:2](=[C-:3][C@@:4]1([H:10])[C:5]([H:11])([H:12])[O:6]1)[H:8])([H:7])[H:9]"
C       -2.59524742       0.03776512       0.02771556
C       -1.25108991      -0.28117029      -0.06499921
C       -0.11292128      -0.09795172      -0.65253252
C        1.13603160       0.49212907      -0.25104632
C        2.26256916      -0.41052811       0.06511454
O        2.25521490       0.32646175      -1.12397154
H       -3.31236910      -0.69829529       0.37212193
H       -1.60477402      -0.11529280       1.16093024
H       -2.98510351       0.86100220      -0.56302132
H        1.11973304       1.46088444       0.24577966
H        2.11212214      -1.48099120      -0.03777871
H        2.97583441      -0.09401317       0.82168768
12
Frame=9 idx=005221 GeodesicLength=0.484800755471469 rxn_smarts="[C:1]([C:2]#[C:3][C@@:4]1([H:10])[C:5]([H:11])([H:12])[O:6]1)([H:7])([H:8])[H:9]>>[C+:1]([C:2](=[C-:3][C@@:4]1([H:10])[C:5]([H:11])([H:12])[O:6]1)[H:8])([H:7])[H:9]"
C       -2.58961241       0.03992978       0.03602594
C       -1.24715362      -0.29142337      -0.04616871
C       -0.11400034      -0.10081738      -0.64385701
C        1.13596375       0.49296397      -0.25198064
C        2.26487960      -0.40861661       0.06034758
O        2.24894122       0.32385589      -1.13149205
H       -3.32095662      -0.70084991       0.33899873
H       -1.63425689      -0.11541402       1.18560099
H       -2.96135260       0.86510672      -0.56380087
H        1.12131112       1.46299771       0.24232119
H        2.11325503      -1.47942075      -0.03668143
H        2.98298174      -0.08831203       0.81068629
12
Frame=10 idx=005221 GeodesicLength=0.5387633439777836 rxn_smarts="[C:1]([C:2]#[C:3][C@@:4]1([H:10])[C:5]([H:11])([H:12])[O:6]1)([H:7])([H:8])[H:9]>>[C+:1]([C:2](=[C-:3][C@@:4]1([H:10])[C:5]([H:11])([H:12])[O:6]1)[H:8])([H:7])[H:9]"
C       -2.58414111       0.04134746       0.04399768
C       -1.24307524      -0.30068290      -0.02680874
C       -0.11505492      -0.10358659      -0.63491598
C        1.13598981       0.49382085      -0.25302745
C        2.26716455      -0.40677318       0.05557870
O        2.24258510       0.32081108      -1.13915252
H       -3.32812943      -0.70334633       0.30491643
H       -1.66523203      -0.11556889       1.21005995
H       -2.93776783       0.86918021      -0.56328724
H        1.12321196       1.46528592       0.23843250
H        2.11425487      -1.47789743      -0.03524510
H        2.99019429      -0.08259020       0.79945177
12
Frame=11 idx=005221 GeodesicLength=0.5927605256167441 rxn_smarts="[C:1]([C:2]#[C:3][C@@:4]1([H:10])[C:5]([H:11])([H:12])[O:6]1)([H:7])([H:8])[H:9]>>[C+:1]([C:2](=[C-:3][C@@:4]1([H:10])[C:5]([H:11])([H:12])[O:6]1)[H:8])([H:7])[H:9]"
C       -2.57879681       0.04212857       0.05171578
C       -1.23885639      -0.30903004      -0.00697445
C       -0.11608136      -0.10633116      -0.62576613
C        1.13608814       0.49468601      -0.25427609
C        2.26941150      -0.40495573       0.05086086
O        2.23615201       0.31722775      -1.14698169
H       -3.33386001      -0.70572540       0.26978786
H       -1.69771986      -0.11618789       1.23425095
H       -2.91427412       0.87349429      -0.56125077
H        1.12537381       1.46779037       0.23390779
H        2.11513352      -1.47638793      -0.03329060
H        2.99742957      -0.07670882       0.78801649
12
Frame=12 idx=005221 GeodesicLength=0.6468021347212158 rxn_smarts="[C:1]([C:2]#[C:3][C@@:4]1([H:10])[C:5]([H:11])([H:12])[O:6]1)([H:7])([H:8])[H:9]>>[C+:1]([C:2](=[C-:3][C@@:4]1([H:10])[C:5]([H:11])([H:12])[O:6]1)[H:8])([H:7])[H:9]"
C       -2.57354895       0.04235926       0.05926199
C       -1.23449673      -0.31652209       0.01331175
C       -0.11707841      -0.10910169      -0.61643591
C        1.13624350       0.49554746      -0.25579230
C        2.27161428      -0.40313357       0.04622948
O        2.22964288       0.31302539      -1.15500285
H       -3.33810598      -0.70790210       0.23354415
H       -1.73175451      -0.11760993       1.25812429
H       -2.89083476       0.87822885      -0.55753895
H        1.12775317       1.47053835       0.22859039
H        2.11590296      -1.47486332      -0.03068491
H        3.00466254      -0.07056661       0.77639286
12
Frame=13 idx=005221 GeodesicLength=0.7008956188401944 rxn_smarts="[C:1]([C:2]#[C:3][C@@:4]1([H:10])[C:5]([H:11])([H:12])[O:6]1)([H:7])([H:8])[H:9]>>[C+:1]([C:2](=[C-:3][C@@:4]1([H:10])[C:5]([H:11])([H:12])[O:6]1)[H:8])([H:7])[H:9]"
C       -2.56838401       0.04208743       0.06669227
C       -1.22999240      -0.32316702       0.03406875
C       -0.11804770      -0.11189808      -0.60692672
C        1.13645765       0.49640807      -0.25760442
C        2.27377281      -0.40130081       0.04169441
O        2.22305741       0.30816593      -1.16323450
H       -3.34079785      -0.70981381       0.19618263
H       -1.76739513      -0.12000542       1.28163304
H       -2.86747722       0.88342657      -0.55212263
H        1.13035264       1.47355200       0.22241424
H        2.11655942      -1.47331770      -0.02737556
H        3.01189438      -0.06413714       0.76457846
12
Frame=14 idx=005221 GeodesicLength=0.7552108371612349 rxn_smarts="[C:1]([C:2]#[C:3][C@@:4]1([H:10])[C:5]([H:11])([H:12])[O:6]1)([H:7])([H:8])[H:9]>>[C+:1]([C:2](=[C-:3][C@@:4]1([H:10])[C:5]([H:11])([H:12])[O:6]1)[H:8])([H:7])[H:9]"
C       -2.56321113       0.04150178       0.07421451
C       -1.22540201      -0.32929366       0.05509948
C       -0.11900595      -0.11504030      -0.59745577
C        1.13667184       0.49721654      -0.26003736
C        2.27586207      -0.39930367       0.03745299
O        2.21645213       0.30229468      -1.17185441
H       -3.34209631      -0.71111590       0.15719736
H       -1.80461462      -0.12472524       1.30480714
H       -2.84381508       0.88998801      -0.54409697
H        1.13300597       1.47702248       0.21465216
H        2.11712607      -1.47167422      -0.02270405
H        3.01902702      -0.05687049       0.75272492
12
Frame=15 idx=005221 GeodesicLength=0.8089810846387824 rxn_smarts="[C:1]([C:2]#[C:3][C@@:4]1([H:10])[C:5]([H:11])([H:12])[O:6]1)([H:7])([H:8])[H:9]>>[C+:1]([C:2](=[C-:3][C@@:4]1([H:10])[C:5]([H:11])([H:12])[O:6]1)[H:8])([H:7])[H:9]"
C       -2.55861593       0.03955681       0.08069854
C       -1.22041864      -0.33274751       0.07798570
C       -0.11985748      -0.11655416      -0.58647816
C        1.13735621       0.49832645      -0.26114292
C        2.27814861      -0.39807244       0.03225969
O        2.20946369       0.29744565      -1.17997958
H       -3.34055877      -0.71360799       0.11980926
H       -1.84451830      -0.12422388       1.32689908
H       -2.82240981       0.89241005      -0.53881427
H        1.13697532       1.47992418       0.20960159
H        2.11748321      -1.47041757      -0.02055251
H        3.02695189      -0.05203959       0.73971358
12
Frame=16 idx=005221 GeodesicLength=0.8630853669295716 rxn_smarts="[C:1]([C:2]#[C:3][C@@:4]1([H:10])[C:5]([H:11])([H:12])[O:6]1)([H:7])([H:8])[H:9]>>[C+:1]([C:2](=[C-:3][C@@:4]1([H:10])[C:5]([H:11])([H:12])[O:6]1)[H:8])([H:7])[H:9]"
C       -2.55361858       0.03800857       0.08800621
C       -1.21541826      -0.33658543       0.10042060
C       -0.12072774      -0.11936325      -0.57619760
C        1.13774206       0.49914080      -0.26389861
C        2.28019319      -0.39621162       0.02801645
O        2.20253068       0.29032033      -1.18882718
H       -3.33790714      -0.71424682       0.07919515
H       -1.88554088      -0.13021840       1.34858366
H       -2.79959138       0.89887807      -0.52804185
H        1.14023990       1.48369471       0.20053584
H        2.11785414      -1.46869567      -0.01489367
H        3.03424400      -0.04472129       0.72710099
