20
Frame=0 idx=009126 GeodesicLength=0.0 rxn_smarts="[C:1]([C@@:2]1([H:11])[N:3]([C:4]([H:12])([H:13])[H:14])[C:5]1([C:6]([H:15])([H:16])[H:17])[C:7]([H:18])([H:19])[H:20])([H:8])([H:9])[H:10]>>[C:1]([C@@:2]1([H:11])[N:3]([C:4]([H:12])([H:13])[H:14])[C@:5]1([C:6]([C:7]([H:18])([H:19])[H:20])([H:15])[H:17])[H:16])([H:8])([H:9])[H:10]"
C       -1.32415414       1.74988578       0.66460707
C       -0.74583381       0.38628401       0.90969065
N       -0.83282919      -0.60759380      -0.17587619
C       -1.36795281      -1.95359670      -0.22363109
C        0.36332439      -0.20272607       0.17073526
C        1.69703751      -0.49286890       0.07563183
C        1.52524058       1.01008353      -1.32090120
H       -2.38161679       1.77036439       0.93267955
H       -0.80514987       2.49119294       1.27429159
H       -1.22193656       2.02609852      -0.38446501
H       -0.81458355      -0.01131928       1.92343762
H       -0.98228685      -2.44940691      -1.11349715
H       -1.05027394      -2.51117439       0.66095253
H       -2.45307955      -1.90005548      -0.29002467
H        2.39203243       0.01088364       0.72145590
H        1.23759117      -1.73293493       1.41101382
H        2.03611100      -1.29026018      -0.56218863
H        0.82574727       0.79238376      -2.12601454
H        2.55420754       0.92438947      -1.66668091
H        1.34840517       1.99037061      -0.88121640
20
Frame=1 idx=009126 GeodesicLength=0.09648827917096743 rxn_smarts="[C:1]([C@@:2]1([H:11])[N:3]([C:4]([H:12])([H:13])[H:14])[C:5]1([C:6]([H:15])([H:16])[H:17])[C:7]([H:18])([H:19])[H:20])([H:8])([H:9])[H:10]>>[C:1]([C@@:2]1([H:11])[N:3]([C:4]([H:12])([H:13])[H:14])[C@:5]1([C:6]([C:7]([H:18])([H:19])[H:20])([H:15])[H:17])[H:16])([H:8])([H:9])[H:10]"
C       -1.31638678       1.74845095       0.65945302
C       -0.74746433       0.37997108       0.89961121
N       -0.83123929      -0.60704233      -0.19043832
C       -1.36315768      -1.95451894      -0.21995176
C        0.37047421      -0.20737832       0.17099965
C        1.70950053      -0.49650197       0.07561041
C        1.51200836       1.00436264      -1.30507808
H       -2.37500086       1.77290567       0.92308075
H       -0.79706942       2.48437438       1.27551445
H       -1.21033420       2.03050542      -0.38757477
H       -0.82909375      -0.02243258       1.91047224
H       -0.97484373      -2.46322865      -1.10155590
H       -1.05021516      -2.50172988       0.67327312
H       -2.44841704      -1.90472627      -0.29042210
H        2.40297126       0.00893280       0.72320703
H        1.21111039      -1.69075295       1.38884987
H        2.04524932      -1.29383459      -0.56540177
H        0.79903354       0.81683624      -2.10602473
H        2.52994495       0.91239189      -1.68148866
H        1.36292970       1.98341539      -0.85213567
20
Frame=2 idx=009126 GeodesicLength=0.19294578887958197 rxn_smarts="[C:1]([C@@:2]1([H:11])[N:3]([C:4]([H:12])([H:13])[H:14])[C:5]1([C:6]([H:15])([H:16])[H:17])[C:7]([H:18])([H:19])[H:20])([H:8])([H:9])[H:10]>>[C:1]([C@@:2]1([H:11])[N:3]([C:4]([H:12])([H:13])[H:14])[C@:5]1([C:6]([C:7]([H:18])([H:19])[H:20])([H:15])[H:17])[H:16])([H:8])([H:9])[H:10]"
C       -1.30917083       1.74717227       0.65442419
C       -0.74939188       0.37397809       0.88947624
N       -0.83008923      -0.60637706      -0.20480870
C       -1.35838399      -1.95526604      -0.21616249
C        0.37710093      -0.21138049       0.17083441
C        1.72143187      -0.49996018       0.07564000
C        1.49936668       0.99843474      -1.28957279
H       -2.36902084       1.77533429       0.91317039
H       -0.79003754       2.47765154       1.27726194
H       -1.19865279       2.03536782      -0.39037663
H       -0.84314651      -0.03300942       1.89741595
H       -0.96802230      -2.47622759      -1.08989968
H       -1.04916400      -2.49227731       0.68505133
H       -2.44385019      -1.90966249      -0.28967045
H        2.41328352       0.00697175       0.72523734
H        1.18658303      -1.65054846       1.36612095
H        2.05383689      -1.29738753      -0.56835542
H        0.77380377       0.84079988      -2.08573034
H        2.50571772       0.90049119      -1.69537918
H        1.37780567       1.97589500      -0.82467704
20
Frame=3 idx=009126 GeodesicLength=0.2893600477921794 rxn_smarts="[C:1]([C@@:2]1([H:11])[N:3]([C:4]([H:12])([H:13])[H:14])[C:5]1([C:6]([H:15])([H:16])[H:17])[C:7]([H:18])([H:19])[H:20])([H:8])([H:9])[H:10]>>[C:1]([C@@:2]1([H:11])[N:3]([C:4]([H:12])([H:13])[H:14])[C@:5]1([C:6]([C:7]([H:18])([H:19])[H:20])([H:15])[H:17])[H:16])([H:8])([H:9])[H:10]"
C       -1.30247806       1.74603970       0.64954350
C       -0.75160745       0.36828200       0.87930161
N       -0.82937223      -0.60559788      -0.21899989
C       -1.35361446      -1.95584058      -0.21229466
C        0.38322852      -0.21475030       0.17026617
C        1.73285281      -0.50325010       0.07572286
C        1.48726931       0.99231865      -1.27440188
H       -2.36363419       1.77767202       0.90299569
H       -0.78400169       2.47100203       1.27952348
H       -1.18689658       2.04065517      -0.39283628
H       -0.85675051      -0.04310030       1.88429943
H       -0.96171269      -2.48845264      -1.07852121
H       -1.04719400      -2.48281005       0.69631353
H       -2.43934519      -1.91483878      -0.28790684
H        2.42299337       0.00501273       0.72753024
H        1.16385726      -1.61218763       1.34294198
H        2.06189114      -1.30091668      -0.57106037
H        0.74998012       0.86427694      -2.06518501
H        2.48153247       0.88862534      -1.70843433
H        1.39300204       1.96786037      -0.79879803
20
Frame=4 idx=009126 GeodesicLength=0.38573262668440533 rxn_smarts="[C:1]([C@@:2]1([H:11])[N:3]([C:4]([H:12])([H:13])[H:14])[C:5]1([C:6]([H:15])([H:16])[H:17])[C:7]([H:18])([H:19])[H:20])([H:8])([H:9])[H:10]>>[C:1]([C@@:2]1([H:11])[N:3]([C:4]([H:12])([H:13])[H:14])[C@:5]1([C:6]([C:7]([H:18])([H:19])[H:20])([H:15])[H:17])[H:16])([H:8])([H:9])[H:10]"
C       -1.29628141       1.74504286       0.64482678
C       -0.75410236       0.36286164       0.86910117
N       -0.82908274      -0.60470663      -0.23302299
C       -1.34883686      -1.95624462      -0.20837442
C        0.38887991      -0.21751022       0.16932272
C        1.74378383      -0.50638199       0.07585950
C        1.47567446       0.98603231      -1.25957647
H       -2.35879936       1.77993745       0.89260164
H       -0.77890781       2.46440773       1.28227659
H       -1.17507330       2.04633428      -0.39492841
H       -0.86991797      -0.05274789       1.87115151
H       -0.95582772      -2.49994732      -1.06741411
H       -1.04437028      -2.47332148       0.70708537
H       -2.43487898      -1.92022915      -0.28524489
H        2.43212381       0.00306297       0.73006872
H        1.14280160      -1.57554275       1.31940111
H        2.06943035      -1.30442172      -0.57353281
H        0.72749759       0.88725787      -2.04443695
H        2.45740904       0.87676343      -1.72071079
H        1.40847818       1.95935323      -0.77445326
20
Frame=5 idx=009126 GeodesicLength=0.48205998034733133 rxn_smarts="[C:1]([C@@:2]1([H:11])[N:3]([C:4]([H:12])([H:13])[H:14])[C:5]1([C:6]([H:15])([H:16])[H:17])[C:7]([H:18])([H:19])[H:20])([H:8])([H:9])[H:10]>>[C:1]([C@@:2]1([H:11])[N:3]([C:4]([H:12])([H:13])[H:14])[C@:5]1([C:6]([C:7]([H:18])([H:19])[H:20])([H:15])[H:17])[H:16])([H:8])([H:9])[H:10]"
C       -1.29055558       1.74417244       0.64028925
C       -0.75686673       0.35769752       0.85888877
N       -0.82921212      -0.60370320      -0.24688756
C       -1.34403484      -1.95648061      -0.20442675
C        0.39407757      -0.21967919       0.16803275
C        1.75424409      -0.50936232       0.07605192
C        1.46454251       0.97959120      -1.24510542
H       -2.35447561       1.78215124       0.88202006
H       -0.77471308       2.45785092       1.28550543
H       -1.16318268       2.05237415      -0.39662558
H       -0.88266250      -0.06199426       1.85799787
H       -0.95028149      -2.51075411      -1.05657400
H       -1.04075382      -2.46380586       0.71739004
H       -2.43042642      -1.92580764      -0.28178842
H        2.44069672       0.00113178       0.73283775
H        1.12328762      -1.54050027       1.29557690
H        2.07647052      -1.30790047      -0.57578307
H        0.70628958       0.90973856      -2.02353003
H        2.43334863       0.86486131      -1.73226962
H        1.42420762       1.95041880      -0.75160029
20
Frame=6 idx=009126 GeodesicLength=0.5783364599631026 rxn_smarts="[C:1]([C@@:2]1([H:11])[N:3]([C:4]([H:12])([H:13])[H:14])[C:5]1([C:6]([H:15])([H:16])[H:17])[C:7]([H:18])([H:19])[H:20])([H:8])([H:9])[H:10]>>[C:1]([C@@:2]1([H:11])[N:3]([C:4]([H:12])([H:13])[H:14])[C@:5]1([C:6]([C:7]([H:18])([H:19])[H:20])([H:15])[H:17])[H:16])([H:8])([H:9])[H:10]"
C       -1.28527476       1.74341830       0.63594198
C       -0.75988933       0.35277290       0.84867701
N       -0.82974904      -0.60258932      -0.26059989
C       -1.33920012      -1.95654687      -0.20047430
C        0.39884431      -0.22127943       0.16642497
C        1.76425381      -0.51220011       0.07630438
C        1.45384016       0.97300789      -1.23099478
H       -2.35062872       1.78432516       0.87128508
H       -0.77137261       2.45131663       1.28919684
H       -1.15122873       2.05874394      -0.39790977
H       -0.89499730      -0.07087388       1.84486313
H       -0.94501004      -2.52089768      -1.04600422
H       -1.03639546      -2.45426037       0.72723932
H       -2.42596618      -1.93155108      -0.27762626
H        2.44873367      -0.00077385       0.73582554
H        1.10519594      -1.50694679       1.27154790
H        2.08303131      -1.31135499      -0.57781740
H        0.68630764       0.93170363      -2.00250174
H        2.40935280       0.85289991      -1.74317080
H        1.44015263       1.94108601      -0.73020697
20
Frame=7 idx=009126 GeodesicLength=0.674565096496929 rxn_smarts="[C:1]([C@@:2]1([H:11])[N:3]([C:4]([H:12])([H:13])[H:14])[C:5]1([C:6]([H:15])([H:16])[H:17])[C:7]([H:18])([H:19])[H:20])([H:8])([H:9])[H:10]>>[C:1]([C@@:2]1([H:11])[N:3]([C:4]([H:12])([H:13])[H:14])[C@:5]1([C:6]([C:7]([H:18])([H:19])[H:20])([H:15])[H:17])[H:16])([H:8])([H:9])[H:10]"
C       -1.28041447       1.74277117       0.63179606
C       -0.76315753       0.34807165       0.83847913
N       -0.83067988      -0.60136520      -0.27416512
C       -1.33432337      -1.95644366      -0.19653713
C        0.40320323      -0.22233330       0.16453014
C        1.77383294      -0.51490285       0.07662332
C        1.44353598       0.96629572      -1.21724719
H       -2.34722135       1.78647572       0.86041942
H       -0.76884506       2.44479120       1.29333475
H       -1.13920775       2.06541271      -0.39876208
H       -0.90693666      -0.07942129       1.83176873
H       -0.93995092      -2.53040868      -1.03570419
H       -1.03134842      -2.44468341       0.73664715
H       -2.42147552      -1.93743453      -0.27284282
H        2.45625572      -0.00264741       0.73902490
H        1.08841294      -1.47477894       1.24737476
H        2.08913261      -1.31478414      -0.57963993
H        0.66749819       0.95314688      -1.98138611
H        2.38541434       0.84085744      -1.75347231
H        1.45627498       1.93138092      -0.71024147
20
Frame=8 idx=009126 GeodesicLength=0.7707503665364795 rxn_smarts="[C:1]([C@@:2]1([H:11])[N:3]([C:4]([H:12])([H:13])[H:14])[C:5]1([C:6]([H:15])([H:16])[H:17])[C:7]([H:18])([H:19])[H:20])([H:8])([H:9])[H:10]>>[C:1]([C@@:2]1([H:11])[N:3]([C:4]([H:12])([H:13])[H:14])[C@:5]1([C:6]([C:7]([H:18])([H:19])[H:20])([H:15])[H:17])[H:16])([H:8])([H:9])[H:10]"
C       -1.27595133       1.74222201       0.62786025
C       -0.76665835       0.34357965       0.82830770
N       -0.83198968      -0.60003206      -0.28758590
C       -1.32939516      -1.95616877      -0.19263606
C        0.40717719      -0.22286185       0.16238064
C        1.78300099      -0.51747765       0.07701431
C        1.43359981       0.95946234      -1.20386619
H       -2.34422565       1.78861152       0.84944614
H       -0.76709408       2.43826286       1.29790715
H       -1.12711583       2.07235077      -0.39916660
H       -0.91849589      -0.08766640       1.81873486
H       -0.93505313      -2.53930592      -1.02567664
H       -1.02565805      -2.43507290       0.74562079
H       -2.41693764      -1.94343478      -0.26750998
H        2.46328446      -0.00448009       0.74242508
H        1.07283345      -1.44389836       1.22311267
H        2.09479315      -1.31818970      -0.58125262
H        0.64981391       0.97405239      -1.96021573
H        2.36152955       0.82871504      -1.76322184
H        1.47254229       1.92133191      -0.69167803
20
Frame=9 idx=009126 GeodesicLength=0.8669111632708106 rxn_smarts="[C:1]([C@@:2]1([H:11])[N:3]([C:4]([H:12])([H:13])[H:14])[C:5]1([C:6]([H:15])([H:16])[H:17])[C:7]([H:18])([H:19])[H:20])([H:8])([H:9])[H:10]>>[C:1]([C@@:2]1([H:11])[N:3]([C:4]([H:12])([H:13])[H:14])[C@:5]1([C:6]([C:7]([H:18])([H:19])[H:20])([H:15])[H:17])[H:16])([H:8])([H:9])[H:10]"
C       -1.27187495       1.74177417       0.62411214
C       -0.77038930       0.33929888       0.81815502
N       -0.83368248      -0.59859145      -0.30086953
C       -1.32441215      -1.95572777      -0.18875200
C        0.41076555      -0.22287684       0.15996702
C        1.79174352      -0.51996390       0.07747927
C        1.42403524       0.95252517      -1.19081091
H       -2.34161601       1.79075719       0.83835252
H       -0.76609435       2.43173389       1.30286334
H       -1.11497222       2.07954209      -0.39913278
H       -0.92967999      -0.09559569       1.80575943
H       -0.93029819      -2.54764679      -1.01589648
H       -1.01934254      -2.42540545       0.75420722
H       -2.41233125      -1.94953906      -0.26162666
H        2.46980990      -0.00630969       0.74602082
H        1.05845027      -1.41428708       1.19870273
H        2.10002277      -1.32154938      -0.58272309
H        0.63322525       0.99440464      -1.93900376
H        2.33775844       0.81651541      -1.77243402
H        1.48888249       1.91094166      -0.67437030
20
Frame=10 idx=009126 GeodesicLength=0.963037642584575 rxn_smarts="[C:1]([C@@:2]1([H:11])[N:3]([C:4]([H:12])([H:13])[H:14])[C:5]1([C:6]([H:15])([H:16])[H:17])[C:7]([H:18])([H:19])[H:20])([H:8])([H:9])[H:10]>>[C:1]([C@@:2]1([H:11])[N:3]([C:4]([H:12])([H:13])[H:14])[C@:5]1([C:6]([C:7]([H:18])([H:19])[H:20])([H:15])[H:17])[H:16])([H:8])([H:9])[H:10]"
C       -1.26815060       1.74140764       0.62058856
C       -0.77432330       0.33520266       0.80805415
N       -0.83572004      -0.59704161      -0.31401154
C       -1.31936030      -1.95511230      -0.18493949
C        0.41401646      -0.22240971       0.15736367
C        1.80011809      -0.52233137       0.07802334
C        1.41478415       0.94548625      -1.17812533
H       -2.33935952       1.79290539       0.82717748
H       -0.76581491       2.42518126       1.30823631
H       -1.10274305       2.08694697      -0.39862143
H       -0.94051524      -0.10327577       1.79288009
H       -0.92560971      -2.55541384      -1.00639699
H       -1.01247189      -2.41570477       0.76237610
H       -2.40764268      -1.95571188      -0.25532732
H        2.47588731      -0.00808054       0.74979812
H        1.04506256      -1.38578076       1.17430638
H        2.10485179      -1.32488549      -0.58398757
H        0.61765150       1.01419510      -1.91780000
H        2.31402149       0.80416924      -1.78119602
H        1.50531789       1.90025354      -0.65839852
20
Frame=11 idx=009126 GeodesicLength=1.0591447451284333 rxn_smarts="[C:1]([C@@:2]1([H:11])[N:3]([C:4]([H:12])([H:13])[H:14])[C:5]1([C:6]([H:15])([H:16])[H:17])[C:7]([H:18])([H:19])[H:20])([H:8])([H:9])[H:10]>>[C:1]([C@@:2]1([H:11])[N:3]([C:4]([H:12])([H:13])[H:14])[C@:5]1([C:6]([C:7]([H:18])([H:19])[H:20])([H:15])[H:17])[H:16])([H:8])([H:9])[H:10]"
C       -1.26475906       1.74111345       0.61729142
C       -0.77844489       0.33127973       0.79801527
N       -0.83808645      -0.59538365      -0.32701318
C       -1.31423601      -1.95432114      -0.18120973
C        0.41695022      -0.22148421       0.15459900
C        1.80814110      -0.52458631       0.07864931
C        1.40582581       0.93835720      -1.16580276
H       -2.33742646       1.79506219       0.81592515
H       -0.76623183       2.41859560       1.31400329
H       -1.09042364       2.09453646      -0.39762404
H       -0.95101587      -0.11072848       1.78011165
H       -0.92095545      -2.56262941      -0.99717818
H       -1.00508519      -2.40597040       0.77014205
H       -2.40285892      -1.96192906      -0.24866366
H        2.48153425      -0.00978954       0.75374925
H        1.03259267      -1.35829828       1.14995210
H        2.10929827      -1.32819811      -0.58505290
H        0.60304201       1.03342164      -1.89663002
H        2.29030967       0.79166271      -1.78954957
H        1.52182976       1.88928960      -0.64371444
20
Frame=12 idx=009126 GeodesicLength=1.1552443970853548 rxn_smarts="[C:1]([C@@:2]1([H:11])[N:3]([C:4]([H:12])([H:13])[H:14])[C:5]1([C:6]([H:15])([H:16])[H:17])[C:7]([H:18])([H:19])[H:20])([H:8])([H:9])[H:10]>>[C:1]([C@@:2]1([H:11])[N:3]([C:4]([H:12])([H:13])[H:14])[C@:5]1([C:6]([C:7]([H:18])([H:19])[H:20])([H:15])[H:17])[H:16])([H:8])([H:9])[H:10]"
C       -1.26167956       1.74088251       0.61422275
C       -0.78273673       0.32752079       0.78804786
N       -0.84076244      -0.59361838      -0.33987415
C       -1.30903382      -1.95335377      -0.17757553
C        0.41958865      -0.22012239       0.15169966
C        1.81583239      -0.52673236       0.07935962
C        1.39713980       0.93114709      -1.15383855
H       -2.33579090       1.79722977       0.80460674
H       -0.76732132       2.41196877       1.32015888
H       -1.07800859       2.10228696      -0.39613285
H       -0.96119463      -0.11797230       1.76746474
H       -0.91630938      -2.56930588      -0.98825324
H       -0.99721594      -2.39620443       0.77750869
H       -2.39796799      -1.96816673      -0.24167975
H        2.48676875      -0.01142936       0.75786707
H        1.02095262      -1.33175494       1.12567718
H        2.11338326      -1.33148744      -0.58591884
H        0.58934775       1.05206365      -1.87552183
H        2.26661681       0.77898041      -1.79752420
H        1.53839125       1.87806802      -0.63029425
20
Frame=13 idx=009126 GeodesicLength=1.251356364297178 rxn_smarts="[C:1]([C@@:2]1([H:11])[N:3]([C:4]([H:12])([H:13])[H:14])[C:5]1([C:6]([H:15])([H:16])[H:17])[C:7]([H:18])([H:19])[H:20])([H:8])([H:9])[H:10]>>[C:1]([C@@:2]1([H:11])[N:3]([C:4]([H:12])([H:13])[H:14])[C@:5]1([C:6]([C:7]([H:18])([H:19])[H:20])([H:15])[H:17])[H:16])([H:8])([H:9])[H:10]"
C       -1.25889439       1.74070812       0.61138355
C       -0.78718411       0.32391769       0.77816222
N       -0.84373197      -0.59174583      -0.35259235
C       -1.30374892      -1.95220949      -0.17404798
C        0.42195141      -0.21834532       0.14869533
C        1.82320852      -0.52877318       0.08015579
C        1.38870703       0.92386565      -1.14222617
H       -2.33442617       1.79941801       0.79322012
H       -0.76906613       2.40529272       1.32669015
H       -1.06548744       2.11017314      -0.39413879
H       -0.97106707      -0.12502426       1.75494958
H       -0.91164278      -2.57546406      -0.97962462
H       -0.98889701      -2.38640832       0.78448486
H       -2.39295822      -1.97440489      -0.23441713
H        2.49160863      -0.01299496       0.76214363
H        1.01007049      -1.30607980       1.10150151
H        2.11712215      -1.33475421      -0.58658936
H        0.57652190       1.07011374      -1.85449925
H        2.24292724       0.76610767      -1.80515329
H        1.55498686       1.86660759      -0.61809780
20
Frame=14 idx=009126 GeodesicLength=1.3475176142145213 rxn_smarts="[C:1]([C@@:2]1([H:11])[N:3]([C:4]([H:12])([H:13])[H:14])[C:5]1([C:6]([H:15])([H:16])[H:17])[C:7]([H:18])([H:19])[H:20])([H:8])([H:9])[H:10]>>[C:1]([C@@:2]1([H:11])[N:3]([C:4]([H:12])([H:13])[H:14])[C@:5]1([C:6]([C:7]([H:18])([H:19])[H:20])([H:15])[H:17])[H:16])([H:8])([H:9])[H:10]"
C       -1.25638495       1.74058278       0.60877383
C       -0.79176884       0.32046214       0.76836881
N       -0.84697324      -0.58976768      -0.36516438
C       -1.29837990      -1.95088801      -0.17063366
C        0.42406028      -0.21617642       0.14561772
C        1.83028862      -0.53071520       0.08103987
C        1.38051180       0.91651783      -1.13095635
H       -2.33331203       1.80162531       0.78176534
H       -0.77144769       2.39856435       1.33358199
H       -1.05285271       2.11816872      -0.39163925
H       -0.98064833      -0.13189844       1.74257561
H       -0.90693715      -2.58111840      -0.97129263
H       -0.98016670      -2.37658289       0.79108134
H       -2.38782096      -1.98061965      -0.22691688
H        2.49607496      -0.01448410       0.76657083
H        0.99987769      -1.28120354       1.07743683
H        2.12053477      -1.33800041      -0.58706875
H        0.56452397       1.08756559      -1.83358183
H        2.21923007       0.75304488      -1.81246469
H        1.57159034       1.85492315      -0.60709376
20
Frame=15 idx=009126 GeodesicLength=1.4437687189746 rxn_smarts="[C:1]([C@@:2]1([H:11])[N:3]([C:4]([H:12])([H:13])[H:14])[C:5]1([C:6]([H:15])([H:16])[H:17])[C:7]([H:18])([H:19])[H:20])([H:8])([H:9])[H:10]>>[C:1]([C@@:2]1([H:11])[N:3]([C:4]([H:12])([H:13])[H:14])[C@:5]1([C:6]([C:7]([H:18])([H:19])[H:20])([H:15])[H:17])[H:16])([H:8])([H:9])[H:10]"
C       -1.25413358       1.74050036       0.60639193
C       -0.79647490       0.31714725       0.75867720
N       -0.85046690      -0.58768470      -0.37758637
C       -1.29292522      -1.94938921      -0.16733958
C        0.42593546      -0.21363796       0.14249844
C        1.83709039      -0.53256350       0.08201289
C        1.37253862       0.90910880      -1.12001995
H       -2.33242496       1.80385758       0.77023459
H       -0.77445458       2.39177797       1.34082484
H       -1.04009237       2.12625062      -0.38862721
H       -0.98995522      -0.13860789       1.73035018
H       -0.90217361      -2.58628649      -0.96325823
H       -0.97105902      -2.36672943       0.79730772
H       -2.38254572      -1.98679238      -0.21921676
H        2.50018909      -0.01589321       0.77113901
H        0.99031384      -1.25705889       1.05349469
H        2.12363664      -1.34122909      -0.58736120
H        0.55331166       1.10441644      -1.81278758
H        2.19550877       0.73978808      -1.81948408
H        1.58818162       1.84302567      -0.59725055
20
Frame=16 idx=009126 GeodesicLength=1.5401431126215335 rxn_smarts="[C:1]([C@@:2]1([H:11])[N:3]([C:4]([H:12])([H:13])[H:14])[C:5]1([C:6]([H:15])([H:16])[H:17])[C:7]([H:18])([H:19])[H:20])([H:8])([H:9])[H:10]>>[C:1]([C@@:2]1([H:11])[N:3]([C:4]([H:12])([H:13])[H:14])[C@:5]1([C:6]([C:7]([H:18])([H:19])[H:20])([H:15])[H:17])[H:16])([H:8])([H:9])[H:10]"
C       -1.25212595       1.74045517       0.60423704
C       -0.80128642       0.31396772       0.74909689
N       -0.85419288      -0.58549750      -0.38985363
C       -1.28738311      -1.94771320      -0.16417218
C        0.42759554      -0.21074914       0.13936624
C        1.84363040      -0.53432274       0.08307592
C        1.36477530       0.90164297      -1.10940785
H       -2.33174703       1.80611655       0.75862070
H       -0.77807935       2.38492981       1.34841130
H       -1.02719590       2.13439831      -0.38509791
H       -0.99900247      -0.14516325       1.71827979
H       -0.89733776      -2.59098358      -0.95552343
H       -0.96160490      -2.35684939       0.80317234
H       -2.37712484      -1.99290360      -0.21134899
H        2.50397130      -0.01721883       0.77583894
H        0.98132514      -1.23358704       1.02968417
H        2.12644330      -1.34444240      -0.58747061
H        0.54284957       1.12066497      -1.79213291
H        2.17174746       0.72633102      -1.82623286
H        1.60474261       1.83092414      -0.58854297
