13
Frame=0 idx=004567 GeodesicLength=0.0 rxn_smarts="[C:1]([C@@:2]1([H:10])[C:3]([H:11])([H:12])[N:4]1[C:5](=[O:6])[H:13])([H:7])([H:8])[H:9]>>[C:1]([O:6][C:5](=[N+:4]1[C-:2]([H:10])[C:3]1([H:11])[H:12])[H:13])([H:7])([H:8])[H:9]"
C       -1.37135280      -0.35435343       1.23956773
C        0.05980788      -0.79994785      -0.78519275
C        0.60386702       0.21119321      -1.76745334
N        1.02123173       0.11168960      -0.39125102
C        0.99438156       0.80260286       0.72757591
O        0.37380377       0.32538323       1.70414223
H       -1.38557275      -1.43197697       1.19573954
H       -1.93966323       0.12873143       0.45907931
H       -1.54713678       0.05755037       2.22376168
H        0.34832012      -1.84588161      -0.85028238
H        1.38238987      -0.02833930      -2.48619709
H       -0.03002175       1.05131820      -2.04235623
H        1.48994542       1.77203026       0.77286645
13
Frame=1 idx=004567 GeodesicLength=0.08340311687617342 rxn_smarts="[C:1]([C@@:2]1([H:10])[C:3]([H:11])([H:12])[N:4]1[C:5](=[O:6])[H:13])([H:7])([H:8])[H:9]>>[C:1]([O:6][C:5](=[N+:4]1[C-:2]([H:10])[C:3]1([H:11])[H:12])[H:13])([H:7])([H:8])[H:9]"
C       -1.36721295      -0.36223990       1.21682941
C        0.04726572      -0.80241161      -0.78051688
C        0.58156232       0.21526595      -1.76039042
N        0.99858327       0.12078133      -0.38563795
C        1.01354950       0.81213785       0.73049478
O        0.37340592       0.37670223       1.71444489
H       -1.36158904      -1.44165211       1.21083163
H       -1.96556726       0.08003773       0.43340311
H       -1.58291895       0.06932839       2.18531927
H        0.35726233      -1.84253240      -0.83967992
H        1.37223959      -0.00746235      -2.47139508
H       -0.06049260       1.04893285      -2.03558393
H        1.59391215       1.73311204       0.78188108
13
Frame=2 idx=004567 GeodesicLength=0.16540437289320506 rxn_smarts="[C:1]([C@@:2]1([H:10])[C:3]([H:11])([H:12])[N:4]1[C:5](=[O:6])[H:13])([H:7])([H:8])[H:9]>>[C:1]([O:6][C:5](=[N+:4]1[C-:2]([H:10])[C:3]1([H:11])[H:12])[H:13])([H:7])([H:8])[H:9]"
C       -1.36292528      -0.36899362       1.19494399
C        0.03511217      -0.80435442      -0.77622216
C        0.56007233       0.21953037      -1.75366984
N        0.97535797       0.13112106      -0.37991656
C        1.03272213       0.82129395       0.73305401
O        0.37233664       0.43042958       1.72296874
H       -1.33747629      -1.44854962       1.22566812
H       -1.98953456       0.03144698       0.40986034
H       -1.61693618       0.07913267       2.14729667
H        0.36671924      -1.83814319      -0.82860041
H        1.36287099       0.01346256      -2.45624211
H       -0.09022483       1.04626363      -2.02998772
H        1.69190566       1.68736004       0.79084692
13
Frame=3 idx=004567 GeodesicLength=0.24740620583578132 rxn_smarts="[C:1]([C@@:2]1([H:10])[C:3]([H:11])([H:12])[N:4]1[C:5](=[O:6])[H:13])([H:7])([H:8])[H:9]>>[C:1]([O:6][C:5](=[N+:4]1[C-:2]([H:10])[C:3]1([H:11])[H:12])[H:13])([H:7])([H:8])[H:9]"
C       -1.35866443      -0.37501104       1.17363466
C        0.02273328      -0.80547785      -0.77247793
C        0.53937076       0.22474675      -1.74668107
N        0.95184958       0.14164862      -0.37363846
C        1.05353829       0.82878424       0.73562193
O        0.36792897       0.49159327       1.72873095
H       -1.31009679      -1.45284456       1.24324534
H       -2.01420047      -0.02257638       0.38785230
H       -1.65106208       0.08851633       2.10825096
H        0.37520812      -1.83262355      -0.81862582
H        1.35411930       0.03567548      -2.44038700
H       -0.11822180       1.04529146      -2.02378307
H        1.78749728       1.63227724       0.79825721
13
Frame=4 idx=004567 GeodesicLength=0.32830249175961373 rxn_smarts="[C:1]([C@@:2]1([H:10])[C:3]([H:11])([H:12])[N:4]1[C:5](=[O:6])[H:13])([H:7])([H:8])[H:9]>>[C:1]([O:6][C:5](=[N+:4]1[C-:2]([H:10])[C:3]1([H:11])[H:12])[H:13])([H:7])([H:8])[H:9]"
C       -1.35422520      -0.38025219       1.15321929
C        0.01061755      -0.80588407      -0.76928603
C        0.51939237       0.23039753      -1.74019874
N        0.92782831       0.15342268      -0.36745966
C        1.07406470       0.83550632       0.73768503
O        0.36137188       0.55835541       1.73104748
H       -1.28085428      -1.45437245       1.26161177
H       -2.03686186      -0.07812302       0.36821057
H       -1.68398386       0.09621078       2.06955646
H        0.38387428      -1.82593664      -0.80865305
H        1.34599145       0.05824943      -2.42439526
H       -0.14555633       1.04433979      -2.01884067
H        1.87834099       1.56808644       0.80750280
13
Frame=5 idx=004567 GeodesicLength=0.40835563796493257 rxn_smarts="[C:1]([C@@:2]1([H:10])[C:3]([H:11])([H:12])[N:4]1[C:5](=[O:6])[H:13])([H:7])([H:8])[H:9]>>[C:1]([O:6][C:5](=[N+:4]1[C-:2]([H:10])[C:3]1([H:11])[H:12])[H:13])([H:7])([H:8])[H:9]"
C       -1.34943146      -0.38485295       1.13400470
C       -0.00216273      -0.80508257      -0.76720422
C        0.50098427       0.23666485      -1.73424624
N        0.90361927       0.16547366      -0.36129753
C        1.09496298       0.83961758       0.73977734
O        0.35264351       0.63142136       1.72912705
H       -1.24861584      -1.45296574       1.28170395
H       -2.05829478      -0.13680168       0.35189591
H       -1.71524427       0.10252169       2.03159593
H        0.39051568      -1.81806210      -0.79997395
H        1.33943961       0.08067417      -2.40799621
H       -0.16994833       1.04483798      -2.01497727
H        1.96153209       1.49655376       0.81759053
13
Frame=6 idx=004567 GeodesicLength=0.48826051309949803 rxn_smarts="[C:1]([C@@:2]1([H:10])[C:3]([H:11])([H:12])[N:4]1[C:5](=[O:6])[H:13])([H:7])([H:8])[H:9]>>[C:1]([O:6][C:5](=[N+:4]1[C-:2]([H:10])[C:3]1([H:11])[H:12])[H:13])([H:7])([H:8])[H:9]"
C       -1.34414111      -0.38909422       1.11602418
C       -0.01596191      -0.80271510      -0.76662093
C        0.48398903       0.24419553      -1.72887375
N        0.87955950       0.17751829      -0.35538100
C        1.11653785       0.83962722       0.74229555
O        0.33825731       0.71759453       1.71936030
H       -1.20994079      -1.44781790       1.30556090
H       -2.07908729      -0.20255050       0.33946363
H       -1.74577882       0.10766001       1.99384141
H        0.39429766      -1.80889748      -0.79379633
H        1.33406445       0.10357343      -2.39155439
H       -0.19133081       1.04790296      -2.01157536
H        2.03953493       1.41300322       0.83125578
13
Frame=7 idx=004567 GeodesicLength=0.5676654843725955 rxn_smarts="[C:1]([C@@:2]1([H:10])[C:3]([H:11])([H:12])[N:4]1[C:5](=[O:6])[H:13])([H:7])([H:8])[H:9]>>[C:1]([O:6][C:5](=[N+:4]1[C-:2]([H:10])[C:3]1([H:11])[H:12])[H:13])([H:7])([H:8])[H:9]"
C       -1.33802115      -0.39327171       1.10021800
C       -0.03220899      -0.79781304      -0.76842710
C        0.47005192       0.25250842      -1.72500828
N        0.85524307       0.18954754      -0.35002064
C        1.13515534       0.83673649       0.74503889
O        0.32199630       0.81092443       1.70194084
H       -1.16596693      -1.43899534       1.33188944
H       -2.09848575      -0.27338456       0.33361753
H       -1.77263142       0.11113936       1.95866983
H        0.39280165      -1.79807087      -0.79049151
H        1.33248997       0.12477284      -2.37445063
H       -0.20642174       1.05385457      -2.01135231
H        2.10599774       1.32205187       0.84837594
13
Frame=8 idx=004567 GeodesicLength=0.6458609038426243 rxn_smarts="[C:1]([C@@:2]1([H:10])[C:3]([H:11])([H:12])[N:4]1[C:5](=[O:6])[H:13])([H:7])([H:8])[H:9]>>[C:1]([O:6][C:5](=[N+:4]1[C-:2]([H:10])[C:3]1([H:11])[H:12])[H:13])([H:7])([H:8])[H:9]"
C       -1.33055411      -0.39687879       1.08564370
C       -0.04776263      -0.79243696      -0.77088145
C        0.45682178       0.26059114      -1.72243299
N        0.83144611       0.20267125      -0.34587747
C        1.14873552       0.83552612       0.74628785
O        0.30789859       0.90425379       1.67840906
H       -1.12111844      -1.42702494       1.35696213
H       -2.11185625      -0.34088606       0.33131404
H       -1.79456925       0.11371586       1.92566913
H        0.39187990      -1.78655081      -0.78688271
H        1.33120966       0.14544389      -2.35827706
H       -0.22159791       1.05837958      -2.01378885
H        2.15946703       1.22319594       0.87385461
13
Frame=9 idx=004567 GeodesicLength=0.724306177040904 rxn_smarts="[C:1]([C@@:2]1([H:10])[C:3]([H:11])([H:12])[N:4]1[C:5](=[O:6])[H:13])([H:7])([H:8])[H:9]>>[C:1]([O:6][C:5](=[N+:4]1[C-:2]([H:10])[C:3]1([H:11])[H:12])[H:13])([H:7])([H:8])[H:9]"
C       -1.32251641      -0.40009570       1.07212297
C       -0.06444612      -0.78599232      -0.77448118
C        0.44600174       0.26819252      -1.72083858
N        0.80721681       0.21595994      -0.34199923
C        1.15841658       0.83478822       0.74706492
O        0.30035752       0.99006245       1.65444139
H       -1.07765339      -1.41287639       1.38011697
H       -2.12216003      -0.40626831       0.33371482
H       -1.81164641       0.11594500       1.89513890
H        0.38861316      -1.77427606      -0.78359788
H        1.33310378       0.16411175      -2.34093403
H       -0.23246032       1.06312789      -2.01949651
H        2.19717308       1.12732101       0.89874745
13
Frame=10 idx=004567 GeodesicLength=0.8027740971893713 rxn_smarts="[C:1]([C@@:2]1([H:10])[C:3]([H:11])([H:12])[N:4]1[C:5](=[O:6])[H:13])([H:7])([H:8])[H:9]>>[C:1]([O:6][C:5](=[N+:4]1[C-:2]([H:10])[C:3]1([H:11])[H:12])[H:13])([H:7])([H:8])[H:9]"
C       -1.31385270      -0.40277576       1.05889250
C       -0.08016966      -0.77993226      -0.77816365
C        0.43555370       0.27530058      -1.71968949
N        0.78381245       0.22936173      -0.33867087
C        1.16594404       0.83543136       0.74670866
O        0.29824033       1.07084340       1.62932728
H       -1.03589597      -1.39669919       1.40125843
H       -2.12809879      -0.46802956       0.33804391
H       -1.82555382       0.11848823       1.86547236
H        0.38636215      -1.76209704      -0.77989018
H        1.33476657       0.18257302      -2.32415567
H       -0.24362332       1.06657716      -2.02608120
H        2.22251502       1.03095833       0.92694792
13
Frame=11 idx=004567 GeodesicLength=0.8813986523982508 rxn_smarts="[C:1]([C@@:2]1([H:10])[C:3]([H:11])([H:12])[N:4]1[C:5](=[O:6])[H:13])([H:7])([H:8])[H:9]>>[C:1]([O:6][C:5](=[N+:4]1[C-:2]([H:10])[C:3]1([H:11])[H:12])[H:13])([H:7])([H:8])[H:9]"
C       -1.30470627      -0.40505532       1.04564953
C       -0.09480305      -0.77454815      -0.78168646
C        0.42521317       0.28199594      -1.71851455
N        0.76149549       0.24234106      -0.33561299
C        1.17259472       0.83647490       0.74553694
O        0.30155754       1.14694265       1.60350642
H       -0.99601742      -1.37884301       1.42058665
H       -2.13013185      -0.52645856       0.34356772
H       -1.83711986       0.12155928       1.83587705
H        0.38514245      -1.75032715      -0.77589270
H        1.33563508       0.20108343      -2.30791600
H       -0.25534276       1.06903756      -2.03241495
H        2.23648277       0.93579737       0.95731334
13
Frame=12 idx=004567 GeodesicLength=0.9604172677843833 rxn_smarts="[C:1]([C@@:2]1([H:10])[C:3]([H:11])([H:12])[N:4]1[C:5](=[O:6])[H:13])([H:7])([H:8])[H:9]>>[C:1]([O:6][C:5](=[N+:4]1[C-:2]([H:10])[C:3]1([H:11])[H:12])[H:13])([H:7])([H:8])[H:9]"
C       -1.29522438      -0.40711321       1.03243072
C       -0.10852385      -0.76972433      -0.78513416
C        0.41498249       0.28839892      -1.71732977
N        0.74006548       0.25498521      -0.33274036
C        1.17904117       0.83757342       0.74376537
O        0.31003445       1.21941501       1.57711907
H       -0.95769110      -1.35955826       1.43841094
H       -2.12897182      -0.58241777       0.35029272
H       -1.84700530       0.12497840       1.80626153
H        0.38481635      -1.73886349      -0.77181747
H        1.33581670       0.21964365      -2.29219205
H       -0.26749297       1.07077227      -2.03851215
H        2.24015277       0.84191018       0.98944561
13
Frame=13 idx=004567 GeodesicLength=1.0400138669707037 rxn_smarts="[C:1]([C@@:2]1([H:10])[C:3]([H:11])([H:12])[N:4]1[C:5](=[O:6])[H:13])([H:7])([H:8])[H:9]>>[C:1]([O:6][C:5](=[N+:4]1[C-:2]([H:10])[C:3]1([H:11])[H:12])[H:13])([H:7])([H:8])[H:9]"
C       -1.28629170      -0.40920734       1.01893464
C       -0.12194050      -0.76528563      -0.78834080
C        0.40537338       0.29447393      -1.71561287
N        0.71839466       0.26745171      -0.32929350
C        1.18560862       0.83704062       0.74234252
O        0.32479701       1.28612701       1.55271470
H       -0.92217008      -1.33945627       1.45446356
H       -2.12586134      -0.63653765       0.35815023
H       -1.85621747       0.12861993       1.77605888
H        0.38469118      -1.72751360      -0.76716751
H        1.33637459       0.23790706      -2.27542980
H       -0.27871412       1.07207919      -2.04456267
H        2.23595577       0.75430102       1.01774261
13
Frame=14 idx=004567 GeodesicLength=1.120331443699183 rxn_smarts="[C:1]([C@@:2]1([H:10])[C:3]([H:11])([H:12])[N:4]1[C:5](=[O:6])[H:13])([H:7])([H:8])[H:9]>>[C:1]([O:6][C:5](=[N+:4]1[C-:2]([H:10])[C:3]1([H:11])[H:12])[H:13])([H:7])([H:8])[H:9]"
C       -1.27679252      -0.41143885       1.00558727
C       -0.13471101      -0.76122173      -0.79166195
C        0.39565773       0.30060585      -1.71386188
N        0.69795602       0.27919476      -0.32614274
C        1.19236725       0.83599266       0.74028809
O        0.34363679       1.35249989       1.52547533
H       -0.88662888      -1.31778952       1.46994052
H       -2.11975399      -0.68976952       0.36749023
H       -1.86434072       0.13223569       1.74544854
H        0.38478586      -1.71649174      -0.76327382
H        1.33584149       0.25661214      -2.25950139
H       -0.29040138       1.07341826      -2.04969630
H        2.22238335       0.66615212       1.04990810
13
Frame=15 idx=004567 GeodesicLength=1.2011765758710933 rxn_smarts="[C:1]([C@@:2]1([H:10])[C:3]([H:11])([H:12])[N:4]1[C:5](=[O:6])[H:13])([H:7])([H:8])[H:9]>>[C:1]([O:6][C:5](=[N+:4]1[C-:2]([H:10])[C:3]1([H:11])[H:12])[H:13])([H:7])([H:8])[H:9]"
C       -1.26740343      -0.41398493       0.99223171
C       -0.14704256      -0.75762823      -0.79488613
C        0.38605464       0.30662695      -1.71171621
N        0.67820769       0.29021449      -0.32275148
C        1.19954101       0.83354918       0.73823798
O        0.36771594       1.41636674       1.49746692
H       -0.85252619      -1.29527724       1.48436790
H       -2.11143552      -0.74154324       0.37777233
H       -1.87213220       0.13558315       1.71424638
H        0.38493970      -1.70589561      -0.75970778
H        1.33471211       0.27534265      -2.24363708
H       -0.30204920       1.07472058      -2.05393745
H        2.20141802       0.58192549       1.08231292
13
Frame=16 idx=004567 GeodesicLength=1.2825232802784745 rxn_smarts="[C:1]([C@@:2]1([H:10])[C:3]([H:11])([H:12])[N:4]1[C:5](=[O:6])[H:13])([H:7])([H:8])[H:9]>>[C:1]([O:6][C:5](=[N+:4]1[C-:2]([H:10])[C:3]1([H:11])[H:12])[H:13])([H:7])([H:8])[H:9]"
C       -1.25820296      -0.41699908       0.97895495
C       -0.15906452      -0.75441321      -0.79799793
C        0.37658384       0.31256558      -1.70914725
N        0.65897069       0.30060744      -0.31904774
C        1.20706084       0.82967018       0.73623705
O        0.39714056       1.47796862       1.46852410
H       -0.81992032      -1.27223118       1.49773159
H       -2.10115234      -0.79184194       0.38889480
H       -1.87982211       0.13823226       1.68259607
H        0.38501121      -1.69565787      -0.75646028
H        1.33308296       0.29399997      -2.22770379
H       -0.31354125       1.07604626      -2.05737985
H        2.17385341       0.50205299       1.11479828
