15
Frame=0 idx=008488 GeodesicLength=0.0 rxn_smarts="[C:1]([O:2][C:3](=[O:4])[C:5]([C:6]([O:7][H:15])([H:13])[H:14])([H:11])[H:12])([H:8])([H:9])[H:10]>>[C-:3]#[O+:4].[C:1]([O:2][C:5]([C:6]([O:7][H:15])([H:13])[H:14])([H:11])[H:12])([H:8])([H:9])[H:10]"
C       -2.17365132      -0.46448411      -0.06210201
O       -1.28579113       0.58786688       0.30217158
C       -0.46185063       1.32755210      -0.81417232
O       -0.81993528       1.13656432      -1.91480727
C        0.54737149       0.39569201       0.73719673
C        1.71829128       0.06779331      -0.16643574
O        2.70210544      -0.58125763       0.61598537
H       -1.95196900      -0.81935336      -1.07183195
H       -2.06584965      -1.27353085       0.66250988
H       -3.19921300      -0.09579683      -0.03063961
H        0.67099438       1.27571149       1.35046490
H        0.24161320      -0.47626943       1.31598447
H        1.40613685      -0.54545673      -1.01575739
H        2.15344931       0.98660119      -0.55557755
H        2.51829807      -1.52163229       0.64701086
15
Frame=1 idx=008488 GeodesicLength=0.07555066553781804 rxn_smarts="[C:1]([O:2][C:3](=[O:4])[C:5]([C:6]([O:7][H:15])([H:13])[H:14])([H:11])[H:12])([H:8])([H:9])[H:10]>>[C-:3]#[O+:4].[C:1]([O:2][C:5]([C:6]([O:7][H:15])([H:13])[H:14])([H:11])[H:12])([H:8])([H:9])[H:10]"
C       -2.20290797      -0.45037031      -0.04976959
O       -1.28396660       0.57951915       0.29741391
C       -0.45932291       1.31411917      -0.83987128
O       -0.82112883       1.11504541      -1.93693045
C        0.53801039       0.36884782       0.72532023
C        1.73465895       0.07687700      -0.15641491
O        2.71693564      -0.55369481       0.64293652
H       -1.97573656      -0.85343146      -1.04002864
H       -2.14266128      -1.23389850       0.70768611
H       -3.21296734      -0.03988539      -0.05730497
H        0.65316233       1.22888961       1.37009448
H        0.24368822      -0.52160804       1.28246434
H        1.44947810      -0.53444771      -1.01669110
H        2.15755599       1.00870833      -0.52920475
H        2.60520189      -1.50467026       0.60030012
15
Frame=2 idx=008488 GeodesicLength=0.1502729027109715 rxn_smarts="[C:1]([O:2][C:3](=[O:4])[C:5]([C:6]([O:7][H:15])([H:13])[H:14])([H:11])[H:12])([H:8])([H:9])[H:10]>>[C-:3]#[O+:4].[C:1]([O:2][C:5]([C:6]([O:7][H:15])([H:13])[H:14])([H:11])[H:12])([H:8])([H:9])[H:10]"
C       -2.23218912      -0.43500487      -0.03721671
O       -1.28217911       0.57083589       0.29246761
C       -0.45656462       1.29984873      -0.86597241
O       -0.82247234       1.09310312      -1.95931357
C        0.52867905       0.34033261       0.71251316
C        1.75015153       0.08471888      -0.14601713
O        2.72924337      -0.52876928       0.67038019
H       -2.00315864      -0.88567877      -1.00632304
H       -2.21764884      -1.18978015       0.75109748
H       -3.22434382       0.01479419      -0.08338542
H        0.63513982       1.17817894       1.38944880
H        0.24526824      -0.56873711       1.24579520
H        1.49246462      -0.52361609      -1.01716700
H        2.16048550       1.02933411      -0.50177329
H        2.69712437      -1.47956018       0.55546611
15
Frame=3 idx=008488 GeodesicLength=0.22383827534356038 rxn_smarts="[C:1]([O:2][C:3](=[O:4])[C:5]([C:6]([O:7][H:15])([H:13])[H:14])([H:11])[H:12])([H:8])([H:9])[H:10]>>[C-:3]#[O+:4].[C:1]([O:2][C:5]([C:6]([O:7][H:15])([H:13])[H:14])([H:11])[H:12])([H:8])([H:9])[H:10]"
C       -2.26094245      -0.41868323      -0.02450252
O       -1.28035762       0.56181925       0.28746133
C       -0.45369119       1.28517825      -0.89221336
O       -0.82422626       1.07152394      -1.98171070
C        0.51948745       0.31054771       0.69882350
C        1.76454365       0.09112125      -0.13544399
O        2.73883274      -0.50735767       0.69764985
H       -2.03334847      -0.91609443      -0.97084150
H       -2.28993471      -1.14170625       0.79267877
H       -3.23319717       0.06755185      -0.10904641
H        0.61729984       1.12397147       1.40822916
H        0.24647912      -0.61691436       1.20634417
H        1.53442621      -0.51307421      -1.01726858
H        2.16227917       1.04809226      -0.47356813
H        2.79234970      -1.44597584       0.51340841
15
Frame=4 idx=008488 GeodesicLength=0.29592695489813725 rxn_smarts="[C:1]([O:2][C:3](=[O:4])[C:5]([C:6]([O:7][H:15])([H:13])[H:14])([H:11])[H:12])([H:8])([H:9])[H:10]>>[C-:3]#[O+:4].[C:1]([O:2][C:5]([C:6]([O:7][H:15])([H:13])[H:14])([H:11])[H:12])([H:8])([H:9])[H:10]"
C       -2.28860331      -0.40181405      -0.01167308
O       -1.27839763       0.55251522       0.28238080
C       -0.45077451       1.27045029      -0.91860157
O       -0.82657073       1.05078016      -2.00415586
C        0.51056644       0.28019901       0.68438144
C        1.77777617       0.09610520      -0.12474842
O        2.74557627      -0.49059605       0.72418129
H       -2.06569589      -0.94460554      -0.93392240
H       -2.35823784      -1.09076585       0.83210756
H       -3.23947598       0.11761209      -0.13384174
H        0.59998332       1.06720007       1.42608188
H        0.24748366      -0.66504115       1.16484199
H        1.57488333      -0.50262379      -1.01710104
H        2.16330208       1.06486286      -0.44455402
H        2.88818465      -1.40427846       0.47462318
15
Frame=5 idx=008488 GeodesicLength=0.3660167527958426 rxn_smarts="[C:1]([O:2][C:3](=[O:4])[C:5]([C:6]([O:7][H:15])([H:13])[H:14])([H:11])[H:12])([H:8])([H:9])[H:10]>>[C-:3]#[O+:4].[C:1]([O:2][C:5]([C:6]([O:7][H:15])([H:13])[H:14])([H:11])[H:12])([H:8])([H:9])[H:10]"
C       -2.31446271      -0.38500494       0.00118776
O       -1.27611193       0.54279717       0.27737465
C       -0.44793701       1.25623387      -0.94482548
O       -0.82957986       1.03169704      -2.02637930
C        0.50213596       0.24999772       0.66930734
C        1.78977059       0.09988029      -0.11430968
O        2.74990379      -0.47885953       0.74875589
H       -2.09899482      -0.97143079      -0.89580830
H       -2.42169539      -1.03803966       0.86929386
H       -3.24290433       0.16416238      -0.15783211
H        0.58370527       1.00870723       1.44273177
H        0.24862438      -0.71209104       1.12198917
H        1.61321983      -0.49201395      -1.01695241
H        2.16367117       1.07972826      -0.41521860
H        2.98065506      -1.35576405       0.44068543
15
Frame=6 idx=008488 GeodesicLength=0.43525171439581145 rxn_smarts="[C:1]([O:2][C:3](=[O:4])[C:5]([C:6]([O:7][H:15])([H:13])[H:14])([H:11])[H:12])([H:8])([H:9])[H:10]>>[C-:3]#[O+:4].[C:1]([O:2][C:5]([C:6]([O:7][H:15])([H:13])[H:14])([H:11])[H:12])([H:8])([H:9])[H:10]"
C       -2.33940478      -0.36741673       0.01442703
O       -1.27366921       0.53289139       0.27236081
C       -0.44502505       1.24188923      -0.97123572
O       -0.83310246       1.01327690      -2.04867618
C        0.49388797       0.21886932       0.65333187
C        1.80071459       0.10213940      -0.10392937
O        2.75193576      -0.47194393       0.77213858
H       -2.13383930      -0.99657827      -0.85557095
H       -2.48202456      -0.98194133       0.90530524
H       -3.24424825       0.20849297      -0.18168671
H        0.56774349       0.94681051       1.45841468
H        0.24950341      -0.75959430       1.07637904
H        1.65043206      -0.48155220      -1.01680127
H        2.16321302       1.09264450      -0.38491116
H        3.07388330      -1.29798744       0.41045409
15
Frame=7 idx=008488 GeodesicLength=0.503120274986395 rxn_smarts="[C:1]([O:2][C:3](=[O:4])[C:5]([C:6]([O:7][H:15])([H:13])[H:14])([H:11])[H:12])([H:8])([H:9])[H:10]>>[C-:3]#[O+:4].[C:1]([O:2][C:5]([C:6]([O:7][H:15])([H:13])[H:14])([H:11])[H:12])([H:8])([H:9])[H:10]"
C       -2.36274117      -0.34971389       0.02793908
O       -1.27080367       0.52256472       0.26745964
C       -0.44219032       1.22805331      -0.99754638
O       -0.83731959       0.99648893      -2.07082145
C        0.48617417       0.18748391       0.63645526
C        1.81070840       0.10327972      -0.09415484
O        2.75257855      -0.46946684       0.79297484
H       -2.16948933      -1.02012393      -0.81366007
H       -2.53805203      -0.92375039       0.93979814
H       -3.24326127       0.24973431      -0.20489499
H        0.55274216       0.88226721       1.47277282
H        0.25068247      -0.80664497       1.02843742
H        1.68613151      -0.47093860      -1.01706677
H        2.16200658       1.10394205      -0.35440901
H        3.16283351      -1.23317554       0.38671630
15
Frame=8 idx=008488 GeodesicLength=0.5703530276928986 rxn_smarts="[C:1]([O:2][C:3](=[O:4])[C:5]([C:6]([O:7][H:15])([H:13])[H:14])([H:11])[H:12])([H:8])([H:9])[H:10]>>[C-:3]#[O+:4].[C:1]([O:2][C:5]([C:6]([O:7][H:15])([H:13])[H:14])([H:11])[H:12])([H:8])([H:9])[H:10]"
C       -2.38495751      -0.33130796       0.04197465
O       -1.26758758       0.51197389       0.26260604
C       -0.43929567       1.21431396      -1.02401207
O       -0.84210864       0.98073113      -2.09301366
C        0.47875841       0.15510116       0.61845440
C        1.81977458       0.10290108      -0.08487555
O        2.75167419      -0.47185863       0.81161268
H       -2.20629825      -1.04194003      -0.76935744
H       -2.59065724      -0.86236658       0.97337635
H       -3.24038061       0.28865501      -0.22774599
H        0.53827820       0.81386054       1.48573130
H        0.25180982      -0.85411352       0.97719617
H        1.72080546      -0.46045231      -1.01774437
H        2.15992730       1.11331687      -0.32321206
H        3.25025754      -1.15881461       0.36900954
15
Frame=9 idx=008488 GeodesicLength=0.6366617341302497 rxn_smarts="[C:1]([O:2][C:3](=[O:4])[C:5]([C:6]([O:7][H:15])([H:13])[H:14])([H:11])[H:12])([H:8])([H:9])[H:10]>>[C-:3]#[O+:4].[C:1]([O:2][C:5]([C:6]([O:7][H:15])([H:13])[H:14])([H:11])[H:12])([H:8])([H:9])[H:10]"
C       -2.40548671      -0.31273570       0.05649487
O       -1.26388159       0.50108027       0.25796877
C       -0.43654002       1.20135979      -1.05031984
O       -0.84768380       0.96698405      -2.11499314
C        0.47188315       0.12233091       0.59931776
C        1.82796915       0.10125239      -0.07658795
O        2.74987122      -0.47863266       0.82710693
H       -2.24331230      -1.06215346      -0.72283403
H       -2.63897186      -0.79879625       1.00580112
H       -3.23551100       0.32437568      -0.25007773
H        0.52484508       0.74236161       1.49685203
H        0.25328861      -0.90112043       0.92307852
H        1.75409726      -0.45001600      -1.01917945
H        2.15704346       1.12089658      -0.29215060
H        3.33238933      -1.07718679       0.35952274
15
Frame=10 idx=008488 GeodesicLength=0.701969401686698 rxn_smarts="[C:1]([O:2][C:3](=[O:4])[C:5]([C:6]([O:7][H:15])([H:13])[H:14])([H:11])[H:12])([H:8])([H:9])[H:10]>>[C-:3]#[O+:4].[C:1]([O:2][C:5]([C:6]([O:7][H:15])([H:13])[H:14])([H:11])[H:12])([H:8])([H:9])[H:10]"
C       -2.42406606      -0.29425682       0.07154616
O       -1.25954815       0.48986453       0.25341360
C       -0.43392782       1.18920871      -1.07668039
O       -0.85393479       0.95497946      -2.13692990
C        0.46566737       0.08959621       0.57906064
C        1.83550047       0.09893371      -0.06923629
O        2.74780917      -0.48922536       0.83909129
H       -2.28019604      -1.08094884      -0.67396812
H       -2.68243973      -0.73351024       1.03713959
H       -3.22877705       0.35651173      -0.27159773
H        0.51250961       0.66826850       1.50582137
H        0.25541287      -0.94710013       0.86619891
H        1.78622840      -0.43877561      -1.02144925
H        2.15347414       1.12729577      -0.26096197
H        3.40628760      -0.99084162       0.35855210
15
Frame=11 idx=008488 GeodesicLength=0.766387813520431 rxn_smarts="[C:1]([O:2][C:3](=[O:4])[C:5]([C:6]([O:7][H:15])([H:13])[H:14])([H:11])[H:12])([H:8])([H:9])[H:10]>>[C-:3]#[O+:4].[C:1]([O:2][C:5]([C:6]([O:7][H:15])([H:13])[H:14])([H:11])[H:12])([H:8])([H:9])[H:10]"
C       -2.44051582      -0.27616754       0.08707711
O       -1.25463671       0.47844453       0.24906564
C       -0.43159126       1.17835959      -1.10285859
O       -0.86091704       0.94536676      -2.15865637
C        0.46012981       0.05726236       0.55777188
C        1.84236071       0.09600454      -0.06301272
O        2.74576592      -0.50303444       0.84742582
H       -2.31615008      -1.09854386      -0.62265320
H       -2.72097524      -0.66690921       1.06732073
H       -3.22037156       0.38449712      -0.29256434
H        0.50144053       0.59226100       1.51232901
H        0.25827250      -0.99147777       0.80705414
H        1.81693648      -0.42692317      -1.02460111
H        2.14923479       1.13245623      -0.23020852
H        3.47101697      -0.90159615       0.36651052
15
Frame=12 idx=008488 GeodesicLength=0.8305620701763282 rxn_smarts="[C:1]([O:2][C:3](=[O:4])[C:5]([C:6]([O:7][H:15])([H:13])[H:14])([H:11])[H:12])([H:8])([H:9])[H:10]>>[C-:3]#[O+:4].[C:1]([O:2][C:5]([C:6]([O:7][H:15])([H:13])[H:14])([H:11])[H:12])([H:8])([H:9])[H:10]"
C       -2.45512961      -0.25798921       0.10364315
O       -1.24903456       0.46681480       0.24491009
C       -0.42957462       1.16843748      -1.12915988
O       -0.86888057       0.93758378      -2.18030613
C        0.45524321       0.02455995       0.53477606
C        1.84874322       0.09244162      -0.05817219
O        2.74370412      -0.51984484       0.85208468
H       -2.35143007      -1.11486319      -0.56762318
H       -2.75538209      -0.59756371       1.09705648
H       -3.21034129       0.40882318      -0.31320153
H        0.49133073       0.51254832       1.51601791
H        0.26180991      -1.03517109       0.74368737
H        1.84709648      -0.41406482      -1.02907385
H        2.14408110       1.13651776      -0.19959512
H        3.52776404      -0.80823005       0.38495614
15
Frame=13 idx=008488 GeodesicLength=0.8943401282425371 rxn_smarts="[C:1]([O:2][C:3](=[O:4])[C:5]([C:6]([O:7][H:15])([H:13])[H:14])([H:11])[H:12])([H:8])([H:9])[H:10]>>[C-:3]#[O+:4].[C:1]([O:2][C:5]([C:6]([O:7][H:15])([H:13])[H:14])([H:11])[H:12])([H:8])([H:9])[H:10]"
C       -2.46758498      -0.24026852       0.12101687
O       -1.24275136       0.45501035       0.24096003
C       -0.42796230       1.15995863      -1.15539099
O       -0.87771653       0.93217705      -2.20177657
C        0.45108418      -0.00775154       0.51040068
C        1.85468832       0.08862244      -0.05466725
O        2.74213939      -0.53881322       0.85295219
H       -2.38521506      -1.13023973      -0.50895367
H       -2.78516035      -0.52627886       1.12591280
H       -3.19889097       0.42850018      -0.33357077
H        0.48245794       0.43064199       1.51652810
H        0.26624225      -1.07705764       0.67728857
H        1.87630024      -0.40002847      -1.03468411
H        2.13818713       1.13968665      -0.16949137
H        3.57418209      -0.71415930       0.41347551
15
Frame=14 idx=008488 GeodesicLength=0.9576872893132803 rxn_smarts="[C:1]([O:2][C:3](=[O:4])[C:5]([C:6]([O:7][H:15])([H:13])[H:14])([H:11])[H:12])([H:8])([H:9])[H:10]>>[C-:3]#[O+:4].[C:1]([O:2][C:5]([C:6]([O:7][H:15])([H:13])[H:14])([H:11])[H:12])([H:8])([H:9])[H:10]"
C       -2.47773992      -0.22330787       0.13908313
O       -1.23582480       0.44313465       0.23725828
C       -0.42680471       1.15327643      -1.18138169
O       -0.88729725       0.92948458      -2.22293803
C        0.44763051      -0.03924134       0.48486203
C        1.86018675       0.08477018      -0.05241617
O        2.74135227      -0.55914993       0.85016961
H       -2.41674154      -1.14490197      -0.44636781
H       -2.81030621      -0.45334385       1.15353406
H       -3.18618898       0.44277701      -0.35398156
H        0.47489889       0.34751185       1.51362185
H        0.27164657      -1.11649700       0.60863470
H        1.90431650      -0.38479890      -1.04121923
H        2.13159437       1.14208534      -0.14016345
H        3.60927754      -0.62179918       0.45130427
15
Frame=15 idx=008488 GeodesicLength=1.0207540194930638 rxn_smarts="[C:1]([O:2][C:3](=[O:4])[C:5]([C:6]([O:7][H:15])([H:13])[H:14])([H:11])[H:12])([H:8])([H:9])[H:10]>>[C-:3]#[O+:4].[C:1]([O:2][C:5]([C:6]([O:7][H:15])([H:13])[H:14])([H:11])[H:12])([H:8])([H:9])[H:10]"
C       -2.48556071      -0.20729103       0.15812847
O       -1.22825436       0.43128541       0.23376401
C       -0.42634101       1.14843099      -1.20737119
O       -0.89796268       0.92926568      -2.24391656
C        0.44498031      -0.06951318       0.45785669
C        1.86549246       0.08158866      -0.05148536
O        2.74121434      -0.57940482       0.84438581
H       -2.44566561      -1.15898381      -0.37910368
H       -2.83107810      -0.37864485       1.17991911
H       -3.17237402       0.45103925      -0.37436772
H        0.46847104       0.26318902       1.50697799
H        0.27818055      -1.15304013       0.53695788
H        1.93168456      -0.36767446      -1.04871200
H        2.12441588       1.14441112      -0.11172127
H        3.63279734      -0.53465786       0.49868784
15
Frame=16 idx=008488 GeodesicLength=1.0832256273018595 rxn_smarts="[C:1]([O:2][C:3](=[O:4])[C:5]([C:6]([O:7][H:15])([H:13])[H:14])([H:11])[H:12])([H:8])([H:9])[H:10]>>[C-:3]#[O+:4].[C:1]([O:2][C:5]([C:6]([O:7][H:15])([H:13])[H:14])([H:11])[H:12])([H:8])([H:9])[H:10]"
C       -2.49106136      -0.19237297       0.17746798
O       -1.22013352       0.41949680       0.23064734
C       -0.42625424       1.14579596      -1.23265293
O       -0.90891229       0.93225045      -2.26423343
C        0.44285532      -0.09847096       0.43030167
C        1.87018897       0.07830876      -0.05151620
O        2.74219646      -0.59967098       0.83570750
H       -2.47137324      -1.17216972      -0.30798405
H       -2.84752761      -0.30313777       1.20391449
H       -3.15760579       0.45310685      -0.39494869
H        0.46345697       0.17943101       1.49680448
H        0.28554624      -1.18634969       0.46485229
H        1.95727258      -0.35029919      -1.05645090
H        2.11655045       1.14576381      -0.08474982
H        3.64480107      -0.45168236       0.55284027
