15
Frame=0 idx=008921 GeodesicLength=0.0 rxn_smarts="[C:1]([n:2]1[c:3]([H:11])[c:4]([H:12])[c:5]([H:13])[c:6]1[N:7]([H:14])[H:15])([H:8])([H:9])[H:10]>>[C-:1]([N+:2]1=[C:3]=[C:4]([H:12])[C:5]([H:13])=[C:6]1[N:7]([H:14])[H:15])([H:8])[H:9].[H:10][H:11]"
C       -1.23654993      -1.23941031       0.04906474
N       -0.17139365      -0.46726462       0.07821592
C        1.10475493      -0.98995460       0.27867310
C        1.96254874      -0.02704121      -0.12853790
C        1.20884275       1.17904531      -0.45782441
C       -0.09870399       0.92282621      -0.24656861
N       -1.27582815       1.63590132      -0.47207731
H       -2.20593542      -0.75504048       0.04333460
H       -1.14989686      -2.25678612      -0.29125486
H       -0.37292530      -2.33760384       1.47902756
H        0.44050345      -2.12260359       1.19832666
H        3.03714004      -0.06599901      -0.03307702
H        1.61619565       2.15050595      -0.70026190
H       -1.68907862       2.01464734       0.36814998
H       -1.16967370       2.35877770      -1.16519055
15
Frame=1 idx=008921 GeodesicLength=0.061784202074480814 rxn_smarts="[C:1]([n:2]1[c:3]([H:11])[c:4]([H:12])[c:5]([H:13])[c:6]1[N:7]([H:14])[H:15])([H:8])([H:9])[H:10]>>[C-:1]([N+:2]1=[C:3]=[C:4]([H:12])[C:5]([H:13])=[C:6]1[N:7]([H:14])[H:15])([H:8])[H:9].[H:10][H:11]"
C       -1.24113738      -1.24017688       0.06533586
N       -0.17122436      -0.47000605       0.06442413
C        1.10671061      -0.99350608       0.27213656
C        1.96310661      -0.02540129      -0.12793264
C        1.20905818       1.17951218      -0.45607381
C       -0.09949052       0.91994750      -0.25268473
N       -1.27806365       1.63417527      -0.47042422
H       -2.20723413      -0.74948693       0.03912108
H       -1.15795206      -2.25277400      -0.29206060
H       -0.37843395      -2.34327239       1.47394040
H        0.45736546      -2.12592020       1.20418642
H        3.03720435      -0.06119314      -0.02538878
H        1.61513271       2.15287371      -0.69292004
H       -1.67696995       2.02581171       0.37083299
H       -1.17807191       2.34941658      -1.17249262
15
Frame=2 idx=008921 GeodesicLength=0.12340147044524305 rxn_smarts="[C:1]([n:2]1[c:3]([H:11])[c:4]([H:12])[c:5]([H:13])[c:6]1[N:7]([H:14])[H:15])([H:8])([H:9])[H:10]>>[C-:1]([N+:2]1=[C:3]=[C:4]([H:12])[C:5]([H:13])=[C:6]1[N:7]([H:14])[H:15])([H:8])[H:9].[H:10][H:11]"
C       -1.24532349      -1.24095519       0.08038586
N       -0.17101145      -0.47329706       0.04865604
C        1.10863531      -0.99710319       0.26539330
C        1.96368462      -0.02385585      -0.12739723
C        1.20930471       1.17982661      -0.45466886
C       -0.10020910       0.91686776      -0.25928078
N       -1.28022060       1.63246368      -0.46833254
H       -2.20808521      -0.74459791       0.03451525
H       -1.16622001      -2.24921393      -0.29224754
H       -0.38459754      -2.34739556       1.46972344
H        0.47404297      -2.12825545       1.21061838
H        3.03719550      -0.05645682      -0.01742923
H        1.61407669       2.15515165      -0.68554128
H       -1.66467857       2.03602677       0.37402041
H       -1.18659384       2.34079448      -1.17841522
15
Frame=3 idx=008921 GeodesicLength=0.18489494594860295 rxn_smarts="[C:1]([n:2]1[c:3]([H:11])[c:4]([H:12])[c:5]([H:13])[c:6]1[N:7]([H:14])[H:15])([H:8])([H:9])[H:10]>>[C-:1]([N+:2]1=[C:3]=[C:4]([H:12])[C:5]([H:13])=[C:6]1[N:7]([H:14])[H:15])([H:8])[H:9].[H:10][H:11]"
C       -1.24906266      -1.24174147       0.09409753
N       -0.17075113      -0.47712017       0.03099011
C        1.11051310      -1.00068718       0.25859850
C        1.96426642      -0.02243153      -0.12699106
C        1.20956820       1.17995171      -0.45371186
C       -0.10086453       0.91357156      -0.26637586
N       -1.28229095       1.63076165      -0.46571499
H       -2.20850077      -0.74038797       0.02936633
H       -1.17453411      -2.24615992      -0.29192394
H       -0.39155027      -2.34989607       1.46642591
H        0.49051559      -2.12955076       1.21773515
H        3.03709255      -0.05180775      -0.00925845
H        1.61301167       2.15730366      -0.67819878
H       -1.65213371       2.04526626       0.37786631
H       -1.19527939       2.33292796      -1.18290491
15
Frame=4 idx=008921 GeodesicLength=0.2463466879062439 rxn_smarts="[C:1]([n:2]1[c:3]([H:11])[c:4]([H:12])[c:5]([H:13])[c:6]1[N:7]([H:14])[H:15])([H:8])([H:9])[H:10]>>[C-:1]([N+:2]1=[C:3]=[C:4]([H:12])[C:5]([H:13])=[C:6]1[N:7]([H:14])[H:15])([H:8])[H:9].[H:10][H:11]"
C       -1.25231547      -1.24250173       0.10644187
N       -0.17045280      -0.48139201       0.01172920
C        1.11232098      -1.00417805       0.25196108
C        1.96482519      -0.02114536      -0.12674581
C        1.20982966       1.17986782      -0.45326207
C       -0.10146839       0.91007317      -0.27392543
N       -1.28427284       1.62905977      -0.46254429
H       -2.20849306      -0.73684904       0.02363522
H       -1.18271589      -2.24357156      -0.29127157
H       -0.39939525      -2.35087006       1.46399922
H        0.50680217      -2.12985677       1.22557280
H        3.03687137      -0.04728251      -0.00100421
H        1.61192079       2.15929959      -0.67096613
H       -1.63930258       2.05358855       0.38240892
H       -1.20415389       2.32575819      -1.18602880
15
Frame=5 idx=008921 GeodesicLength=0.3078250742158079 rxn_smarts="[C:1]([n:2]1[c:3]([H:11])[c:4]([H:12])[c:5]([H:13])[c:6]1[N:7]([H:14])[H:15])([H:8])([H:9])[H:10]>>[C-:1]([N+:2]1=[C:3]=[C:4]([H:12])[C:5]([H:13])=[C:6]1[N:7]([H:14])[H:15])([H:8])[H:9].[H:10][H:11]"
C       -1.25507464      -1.24318106       0.11746484
N       -0.17012711      -0.48597117      -0.00862499
C        1.11403815      -1.00750164       0.24569976
C        1.96533944      -0.01998710      -0.12663885
C        1.21006634       1.17956742      -0.45334460
C       -0.10203529       0.90641190      -0.28181336
N       -1.28615626       1.62736176      -0.45880439
H       -2.20808329      -0.73392513       0.01740827
H       -1.19061636      -2.24131459      -0.29056127
H       -0.40818795      -2.35060607       1.46227700
H        0.52295405      -2.12934963       1.23407033
H        3.03651636      -0.04285537       0.00730796
H        1.61077832       2.16106858      -0.66409852
H       -1.62615673       2.06115025       0.38760772
H       -1.21325503       2.31913183      -1.18794990
15
Frame=6 idx=008921 GeodesicLength=0.3693491573840886 rxn_smarts="[C:1]([n:2]1[c:3]([H:11])[c:4]([H:12])[c:5]([H:13])[c:6]1[N:7]([H:14])[H:15])([H:8])([H:9])[H:10]>>[C-:1]([N+:2]1=[C:3]=[C:4]([H:12])[C:5]([H:13])=[C:6]1[N:7]([H:14])[H:15])([H:8])[H:9].[H:10][H:11]"
C       -1.25734181      -1.24371497       0.12736706
N       -0.16980632      -0.49065222      -0.02934995
C        1.11564572      -1.01057289       0.24005101
C        1.96577807      -0.01893522      -0.12662294
C        1.21025952       1.17907554      -0.45392180
C       -0.10258146       0.90267180      -0.28985711
N       -1.28795652       1.62566267      -0.45460200
H       -2.20731874      -0.73149018       0.01097911
H       -1.19811780      -2.23915056      -0.29009116
H       -0.41788904      -2.34963929       1.46093551
H        0.53909260      -2.12833539       1.24307036
H        3.03600185      -0.03855685       0.01556157
H        1.60957730       2.16259600      -0.65772382
H       -1.61276628       2.06822899       0.39321313
H       -1.22257710       2.31281255      -1.18900898
15
Frame=7 idx=008921 GeodesicLength=0.431017747023749 rxn_smarts="[C:1]([n:2]1[c:3]([H:11])[c:4]([H:12])[c:5]([H:13])[c:6]1[N:7]([H:14])[H:15])([H:8])([H:9])[H:10]>>[C-:1]([N+:2]1=[C:3]=[C:4]([H:12])[C:5]([H:13])=[C:6]1[N:7]([H:14])[H:15])([H:8])[H:9].[H:10][H:11]"
C       -1.25917415      -1.24405883       0.13638520
N       -0.16951224      -0.49524823      -0.04978702
C        1.11713822      -1.01335950       0.23512697
C        1.96612839      -0.01795262      -0.12663817
C        1.21039506       1.17842612      -0.45492460
C       -0.10312256       0.89893092      -0.29786963
N       -1.28967697       1.62396363      -0.45005800
H       -2.20625481      -0.72939804       0.00467521
H       -1.20519311      -2.23685604      -0.29010104
H       -0.42845127      -2.34846941       1.45969583
H        0.55538020      -2.12716487       1.25232591
H        3.03533159      -0.03434380       0.02373553
H        1.60830920       2.16388147      -0.65195037
H       -1.59918160       2.07510996       0.39894756
H       -1.23211595       2.30653925      -1.18956336
15
Frame=8 idx=008921 GeodesicLength=0.49281673391932734 rxn_smarts="[C:1]([n:2]1[c:3]([H:11])[c:4]([H:12])[c:5]([H:13])[c:6]1[N:7]([H:14])[H:15])([H:8])([H:9])[H:10]>>[C-:1]([N+:2]1=[C:3]=[C:4]([H:12])[C:5]([H:13])=[C:6]1[N:7]([H:14])[H:15])([H:8])[H:9].[H:10][H:11]"
C       -1.26061421      -1.24419411       0.14471517
N       -0.16926770      -0.49962165      -0.06945926
C        1.11851789      -1.01584108       0.23099571
C        1.96637939      -0.01701632      -0.12665138
C        1.21046708       1.17766805      -0.45622246
C       -0.10366994       0.89526439      -0.30568091
N       -1.29133185       1.62226344      -0.44530070
H       -2.20494014      -0.72753253      -0.00124554
H       -1.21183170      -2.23427099      -0.29073084
H       -0.43982386      -2.34746083       1.45836293
H        0.57196502      -2.12611984       1.26164078
H        3.03451422      -0.03023357       0.03171519
H        1.60697988       2.16495073      -0.64676360
H       -1.58550672       2.08202173       0.40452805
H       -1.24183735       2.30012258      -1.18990314
15
Frame=9 idx=008921 GeodesicLength=0.5547534487227057 rxn_smarts="[C:1]([n:2]1[c:3]([H:11])[c:4]([H:12])[c:5]([H:13])[c:6]1[N:7]([H:14])[H:15])([H:8])([H:9])[H:10]>>[C-:1]([N+:2]1=[C:3]=[C:4]([H:12])[C:5]([H:13])=[C:6]1[N:7]([H:14])[H:15])([H:8])[H:9].[H:10][H:11]"
C       -1.26168169      -1.24407635       0.15251316
N       -0.16908524      -0.50360435      -0.08777877
C        1.11978135      -1.01800030       0.22773668
C        1.96652564      -0.01608231      -0.12655663
C        1.21045784       1.17682072      -0.45775264
C       -0.10423823       0.89172921      -0.31309501
N       -1.29293388       1.62057577      -0.44042358
H       -2.20338876      -0.72578822      -0.00637548
H       -1.21802229      -2.23117007      -0.29223053
H       -0.45202069      -2.34708632       1.45663493
H        0.58898935      -2.12551749       1.27078813
H        3.03356864      -0.02614632       0.03955913
H        1.60557819       2.16577219      -0.64238531
H       -1.57177209       2.08926967       0.40970047
H       -1.25175813       2.29330416      -1.19033457
15
Frame=10 idx=008921 GeodesicLength=0.6167997292809888 rxn_smarts="[C:1]([n:2]1[c:3]([H:11])[c:4]([H:12])[c:5]([H:13])[c:6]1[N:7]([H:14])[H:15])([H:8])([H:9])[H:10]>>[C-:1]([N+:2]1=[C:3]=[C:4]([H:12])[C:5]([H:13])=[C:6]1[N:7]([H:14])[H:15])([H:8])[H:9].[H:10][H:11]"
C       -1.26248889      -1.24381074       0.15987196
N       -0.16895424      -0.50727431      -0.10500120
C        1.12095662      -1.01990324       0.22516861
C        1.96658938      -0.01515425      -0.12641873
C        1.21040025       1.17593407      -0.45942186
C       -0.10481519       0.88833369      -0.32015491
N       -1.29448309       1.61889323      -0.43545442
H       -2.20168459      -0.72411331      -0.01103560
H       -1.22385309      -2.22771623      -0.29434149
H       -0.46502189      -2.34710469       1.45475394
H        0.60657165      -2.12532435       1.27973464
H        3.03251982      -0.02213707       0.04714705
H        1.60413942       2.16644401      -0.63851856
H       -1.55805762       2.09675244       0.41445468
H       -1.26181853       2.28618074      -1.19078411
15
Frame=11 idx=008921 GeodesicLength=0.6789435258265382 rxn_smarts="[C:1]([n:2]1[c:3]([H:11])[c:4]([H:12])[c:5]([H:13])[c:6]1[N:7]([H:14])[H:15])([H:8])([H:9])[H:10]>>[C-:1]([N+:2]1=[C:3]=[C:4]([H:12])[C:5]([H:13])=[C:6]1[N:7]([H:14])[H:15])([H:8])[H:9].[H:10][H:11]"
C       -1.26309451      -1.24344564       0.16680447
N       -0.16886042      -0.51066322      -0.12123892
C        1.12205940      -1.02159626       0.22316958
C        1.96658627      -0.01422377      -0.12623297
C        1.21030358       1.17502122      -0.46119028
C       -0.10539726       0.88507690      -0.32685684
N       -1.29597733       1.61723064      -0.43036915
H       -2.19985996      -0.72249672      -0.01539915
H       -1.22935715      -2.22399537      -0.29695600
H       -0.47889255      -2.34734735       1.45287675
H        0.62481715      -2.12560001       1.28840799
H        3.03138853      -0.01817283       0.05452694
H        1.60267546       2.16697579      -0.63517190
H       -1.54437169       2.10444490       0.41882044
H       -1.27201951       2.27879172      -1.19119095
15
Frame=12 idx=008921 GeodesicLength=0.7411597790588093 rxn_smarts="[C:1]([n:2]1[c:3]([H:11])[c:4]([H:12])[c:5]([H:13])[c:6]1[N:7]([H:14])[H:15])([H:8])([H:9])[H:10]>>[C-:1]([N+:2]1=[C:3]=[C:4]([H:12])[C:5]([H:13])=[C:6]1[N:7]([H:14])[H:15])([H:8])[H:9].[H:10][H:11]"
C       -1.26353839      -1.24301380       0.17333508
N       -0.16880267      -0.51378894      -0.13656027
C        1.12309954      -1.02310180       0.22167930
C        1.96652623      -0.01329144      -0.12602163
C        1.21017912       1.17411163      -0.46297466
C       -0.10598224       0.88196517      -0.33317751
N       -1.29741803       1.61558678      -0.42518168
H       -2.19793955      -0.72093474      -0.01959168
H       -1.23454192      -2.22006499      -0.29998442
H       -0.49370992      -2.34770456       1.45111021
H        0.64383518      -2.12635242       1.29677719
H        3.03018977      -0.01429198       0.06158809
H        1.60120036       2.16740814      -0.63222630
H       -1.53077123       2.11232771       0.42277633
H       -1.28232623       2.27114524      -1.19154807
15
Frame=13 idx=008921 GeodesicLength=0.8033801678448743 rxn_smarts="[C:1]([n:2]1[c:3]([H:11])[c:4]([H:12])[c:5]([H:13])[c:6]1[N:7]([H:14])[H:15])([H:8])([H:9])[H:10]>>[C-:1]([N+:2]1=[C:3]=[C:4]([H:12])[C:5]([H:13])=[C:6]1[N:7]([H:14])[H:15])([H:8])[H:9].[H:10][H:11]"
C       -1.26386688      -1.24254561       0.17945512
N       -0.16876521      -0.51668680      -0.15109732
C        1.12408494      -1.02445395       0.22060898
C        1.96642117      -0.01236182      -0.12580080
C        1.21003007       1.17320881      -0.46474693
C       -0.10656896       0.87898589      -0.33913323
N       -1.29881057       1.61396606      -0.41987571
H       -2.19593990      -0.71944593      -0.02378241
H       -1.23942263      -2.21601010      -0.30333229
H       -0.50955998      -2.34799197       1.44961938
H        0.66372029      -2.12759961       1.30480419
H        3.02896092      -0.01048258       0.06833415
H        1.59971828       2.16775508      -0.62962623
H       -1.51725537       2.12036524       0.42636138
H       -1.29274617       2.26329728      -1.19178826
15
Frame=14 idx=008921 GeodesicLength=0.8655762375420646 rxn_smarts="[C:1]([n:2]1[c:3]([H:11])[c:4]([H:12])[c:5]([H:13])[c:6]1[N:7]([H:14])[H:15])([H:8])([H:9])[H:10]>>[C-:1]([N+:2]1=[C:3]=[C:4]([H:12])[C:5]([H:13])=[C:6]1[N:7]([H:14])[H:15])([H:8])[H:9].[H:10][H:11]"
C       -1.26410890      -1.24205649       0.18518629
N       -0.16874885      -0.51937240      -0.16491189
C        1.12502103      -1.02566473       0.21992325
C        1.96627360      -0.01144813      -0.12562141
C        1.20986484       1.17234598      -0.46640436
C       -0.10715712       0.87614446      -0.34469914
N       -1.30015921       1.61235922      -0.41448730
H       -2.19387771      -0.71803776      -0.02807369
H       -1.24399395      -2.21187849      -0.30691870
H       -0.52654268      -2.34810209       1.44851005
H        0.68459871      -2.12933474       1.31247745
H        3.02772333      -0.00681117       0.07458170
H        1.59823894       2.16807080      -0.62716532
H       -1.50390252       2.12853396       0.42953293
H       -1.30322952       2.25525159      -1.19192987
15
Frame=15 idx=008921 GeodesicLength=0.927695551755431 rxn_smarts="[C:1]([n:2]1[c:3]([H:11])[c:4]([H:12])[c:5]([H:13])[c:6]1[N:7]([H:14])[H:15])([H:8])([H:9])[H:10]>>[C-:1]([N+:2]1=[C:3]=[C:4]([H:12])[C:5]([H:13])=[C:6]1[N:7]([H:14])[H:15])([H:8])[H:9].[H:10][H:11]"
C       -1.26429907      -1.24155785       0.19053184
N       -0.16874595      -0.52186418      -0.17809105
C        1.12591153      -1.02675068       0.21957700
C        1.96609277      -0.01055515      -0.12549694
C        1.20968604       1.17153401      -0.46789972
C       -0.10774569       0.87343747      -0.34987096
N       -1.30147019       1.61077254      -0.40901422
H       -2.19176690      -0.71672101      -0.03258960
H       -1.24825516      -2.20772227      -0.31067440
H       -0.54476114      -2.34791242       1.44789880
H        0.70659483      -2.13157497       1.31976704
H        3.02650594      -0.00329926       0.08027579
H        1.59676639       2.16837441      -0.62476048
H       -1.49073983       2.13681286       0.43229979
H       -1.31377357       2.24702649      -1.19195289
15
Frame=16 idx=008921 GeodesicLength=0.9896914273599733 rxn_smarts="[C:1]([n:2]1[c:3]([H:11])[c:4]([H:12])[c:5]([H:13])[c:6]1[N:7]([H:14])[H:15])([H:8])([H:9])[H:10]>>[C-:1]([N+:2]1=[C:3]=[C:4]([H:12])[C:5]([H:13])=[C:6]1[N:7]([H:14])[H:15])([H:8])[H:9].[H:10][H:11]"
C       -1.26446220      -1.24104927       0.19551796
N       -0.16875639      -0.52416470      -0.19065806
C        1.12675807      -1.02771889       0.21955361
C        1.96588143      -0.00969528      -0.12546375
C        1.20949450       1.17079610      -0.46914716
C       -0.10833658       0.87086968      -0.35462073
N       -1.30275587       1.60920149      -0.40350100
H       -2.18961772      -0.71549922      -0.03736315
H       -1.25220540      -2.20356079      -0.31455720
H       -0.56432181      -2.34736922       1.44785155
H        0.72985695      -2.13433993       1.32665182
H        3.02534491      -0.00000202       0.08526582
H        1.59530171       2.16870775      -0.62222218
H       -1.47783155       2.14521320       0.43459733
H       -1.32435004       2.23861110      -1.19190485
