13
Frame=0 idx=003338 GeodesicLength=0.0 rxn_smarts="[C:1]1([H:7])([H:8])[C@@:2]2([H:9])[C@:3]1([H:10])[N:4]1[C:5]([H:11])([H:12])[C@@:6]21[H:13]>>[C:1]1([H:7])([H:8])[C@@:2]2([H:9])[C@:3]1([H:10])[C@:6]2([N:4]=[C:5]([H:11])[H:12])[H:13]"
C       -1.15591558       0.96552268       0.16094879
C       -1.02875683      -0.51490095       0.08921912
C       -0.50975409       0.28816085      -0.98268547
N        1.55239617       0.53325512      -0.45909880
C        1.53822916      -0.17013928       0.71631839
C        0.45385390      -0.71067798      -0.20888315
H       -0.55347778       1.55167650       0.84804608
H       -2.14927665       1.35351649      -0.03322262
H       -1.73181003      -1.32860758       0.14503421
H       -0.59274464       0.33832470      -2.05327262
H        1.21765847       0.28626301       1.66519241
H        2.26863264      -0.97668937       0.86371352
H        0.69096525      -1.61570415      -0.75130989
13
Frame=1 idx=003338 GeodesicLength=0.0737492119870235 rxn_smarts="[C:1]1([H:7])([H:8])[C@@:2]2([H:9])[C@:3]1([H:10])[N:4]1[C:5]([H:11])([H:12])[C@@:6]21[H:13]>>[C:1]1([H:7])([H:8])[C@@:2]2([H:9])[C@:3]1([H:10])[C@:6]2([N:4]=[C:5]([H:11])[H:12])[H:13]"
C       -1.15334471       0.96194663       0.16371332
C       -1.02312652      -0.51795851       0.08358204
C       -0.50638454       0.29532153      -0.98656802
N        1.54137582       0.51301709      -0.46624226
C        1.54157153      -0.16419612       0.72281416
C        0.45610240      -0.72064751      -0.21681679
H       -0.55513783       1.54438068       0.85735417
H       -2.14795724       1.34853339      -0.02699756
H       -1.73381223      -1.32580047       0.13037369
H       -0.60838054       0.35262542      -2.05537862
H        1.23940078       0.31903404       1.66316245
H        2.25650406      -0.97985618       0.88947271
H        0.69318901      -1.62640000      -0.75846930
13
Frame=2 idx=003338 GeodesicLength=0.14748267033191775 rxn_smarts="[C:1]1([H:7])([H:8])[C@@:2]2([H:9])[C@:3]1([H:10])[N:4]1[C:5]([H:11])([H:12])[C@@:6]21[H:13]>>[C:1]1([H:7])([H:8])[C@@:2]2([H:9])[C@:3]1([H:10])[C@:6]2([N:4]=[C:5]([H:11])[H:12])[H:13]"
C       -1.15073140       0.95813986       0.16654956
C       -1.01759908      -0.52119285       0.07777333
C       -0.50294050       0.30245137      -0.99035621
N        1.53043259       0.49270338      -0.47288033
C        1.54482401      -0.15803169       0.72912172
C        0.45820004      -0.73095488      -0.22484890
H       -0.55687491       1.53659897       0.86693966
H       -2.14653219       1.34341327      -0.02076207
H       -1.73587596      -1.32299287       0.11558301
H       -0.62365704       0.36740385      -2.05701301
H        1.26227372       0.35256051       1.65983894
H        2.24317411      -0.98272496       0.91585401
H        0.69530659      -1.63737397      -0.76579970
13
Frame=3 idx=003338 GeodesicLength=0.22118082655265933 rxn_smarts="[C:1]1([H:7])([H:8])[C@@:2]2([H:9])[C@:3]1([H:10])[N:4]1[C:5]([H:11])([H:12])[C@@:6]21[H:13]>>[C:1]1([H:7])([H:8])[C@@:2]2([H:9])[C@:3]1([H:10])[C@:6]2([N:4]=[C:5]([H:11])[H:12])[H:13]"
C       -1.14807432       0.95410438       0.16946539
C       -1.01217767      -0.52460117       0.07179192
C       -0.49941529       0.30955854      -0.99404033
N        1.51955315       0.47233264      -0.47901544
C        1.54799203      -0.15163369       0.73524526
C        0.46014695      -0.74159304      -0.23297687
H       -0.55869027       1.52830821       0.87682100
H       -2.14499485       1.33817215      -0.01451935
H       -1.73799780      -1.32018648       0.10067927
H       -0.63854314       0.38263579      -2.05817355
H        1.28628596       0.38672864       1.65514181
H        2.22858436      -0.98521028       0.94288062
H        0.69733089      -1.64861569      -0.77329975
13
Frame=4 idx=003338 GeodesicLength=0.2948430203889397 rxn_smarts="[C:1]1([H:7])([H:8])[C@@:2]2([H:9])[C@:3]1([H:10])[N:4]1[C:5]([H:11])([H:12])[C@@:6]21[H:13]>>[C:1]1([H:7])([H:8])[C@@:2]2([H:9])[C@:3]1([H:10])[C@:6]2([N:4]=[C:5]([H:11])[H:12])[H:13]"
C       -1.14537802       0.94985001       0.17246741
C       -1.00686842      -0.52818167       0.06563232
C       -0.49580804       0.31665192      -0.99761248
N        1.50873330       0.45192340      -0.48464172
C        1.55109628      -0.14499097       0.74119525
C        0.46194777      -0.75255940      -0.24119923
H       -0.56058309       1.51950024       0.88701469
H       -2.14335298       1.33283458      -0.00827444
H       -1.74018153      -1.31738822       0.08567091
H       -0.65302776       0.39829344      -2.05886196
H        1.31144695       0.42141378       1.64900689
H        2.21269557      -0.98722265       0.97057649
H        0.69927997      -1.66012447      -0.78097413
13
Frame=5 idx=003338 GeodesicLength=0.36841447954764983 rxn_smarts="[C:1]1([H:7])([H:8])[C@@:2]2([H:9])[C@:3]1([H:10])[N:4]1[C:5]([H:11])([H:12])[C@@:6]21[H:13]>>[C:1]1([H:7])([H:8])[C@@:2]2([H:9])[C@:3]1([H:10])[C@:6]2([N:4]=[C:5]([H:11])[H:12])[H:13]"
C       -1.14262333       0.94536435       0.17556224
C       -1.00165382      -0.53192094       0.05931118
C       -0.49209856       0.32373657      -1.00106111
N        1.49794145       0.43149945      -0.48977663
C        1.55412159      -0.13808060       0.74695739
C        0.46360153      -0.76382624      -0.24951172
H       -0.56254502       1.51013319       0.89751501
H       -2.14156969       1.32738553      -0.00202145
H       -1.74239321      -1.31457806       0.07062006
H       -0.66705307       0.41434506      -2.05907531
H        1.33771476       0.45644796       1.64135834
H        2.19538948      -0.98865721       0.99894031
H        0.70116789      -1.67184905      -0.78881832
13
Frame=6 idx=003338 GeodesicLength=0.44194990395442124 rxn_smarts="[C:1]1([H:7])([H:8])[C@@:2]2([H:9])[C@:3]1([H:10])[N:4]1[C:5]([H:11])([H:12])[C@@:6]21[H:13]>>[C:1]1([H:7])([H:8])[C@@:2]2([H:9])[C@:3]1([H:10])[C@:6]2([N:4]=[C:5]([H:11])[H:12])[H:13]"
C       -1.13979971       0.94064377       0.17877247
C       -0.99653739      -0.53582665       0.05280595
C       -0.48828851       0.33081426      -1.00437008
N        1.48717880       0.41104029      -0.49442633
C        1.55709750      -0.13088446       0.75253568
C        0.46510826      -0.77540283      -0.25791622
H       -0.56455284       1.50017668       0.90836799
H       -2.13963641       1.32184002       0.00426315
H       -1.74463966      -1.31176815       0.05544241
H       -0.68064662       0.43078376      -2.05879988
H        1.36513346       0.49178216       1.63210222
H        2.17658873      -0.98939134       1.02806336
H        0.70299438      -1.68380750      -0.79684072
13
Frame=7 idx=003338 GeodesicLength=0.5154415700727032 rxn_smarts="[C:1]1([H:7])([H:8])[C@@:2]2([H:9])[C@:3]1([H:10])[N:4]1[C:5]([H:11])([H:12])[C@@:6]21[H:13]>>[C:1]1([H:7])([H:8])[C@@:2]2([H:9])[C@:3]1([H:10])[C@:6]2([N:4]=[C:5]([H:11])[H:12])[H:13]"
C       -1.13690568       0.93567667       0.18211777
C       -0.99152457      -0.53991160       0.04611340
C       -0.48436330       0.33789942      -1.00752228
N        1.47647031       0.39053717      -0.49863480
C        1.56005872      -0.12337283       0.75790254
C        0.46648117      -0.78729026      -0.26641180
H       -0.56660473       1.48957315       0.91960634
H       -2.13756310       1.31619132       0.01061528
H       -1.74693686      -1.30897288       0.04010969
H       -0.69378101       0.44764467      -2.05801895
H        1.39375488       0.52734994       1.62110364
H        2.15612928      -0.98932091       1.05804916
H        0.70478489      -1.69600386      -0.80503000
13
Frame=8 idx=003338 GeodesicLength=0.5889127294615455 rxn_smarts="[C:1]1([H:7])([H:8])[C@@:2]2([H:9])[C@:3]1([H:10])[N:4]1[C:5]([H:11])([H:12])[C@@:6]21[H:13]>>[C:1]1([H:7])([H:8])[C@@:2]2([H:9])[C@:3]1([H:10])[C@:6]2([N:4]=[C:5]([H:11])[H:12])[H:13]"
C       -1.13391769       0.93044468       0.18562451
C       -0.98660164      -0.54418492       0.03922797
C       -0.48030584       0.34499733      -1.01050027
N        1.46580978       0.36996602      -0.50243593
C        1.56301909      -0.11552598       0.76303514
C        0.46772506      -0.79949328      -0.27499886
H       -0.56867931       1.47826495       0.93126295
H       -2.13532038       1.31043143       0.01708315
H       -1.74926701      -1.30619304       0.02457663
H       -0.70644524       0.46495211      -2.05671444
H        1.42358750       0.56306754       1.60823162
H        2.13384536      -0.98828558       1.08899190
H        0.70655032      -1.70844126      -0.81338436
13
Frame=9 idx=003338 GeodesicLength=0.662384187832856 rxn_smarts="[C:1]1([H:7])([H:8])[C@@:2]2([H:9])[C@:3]1([H:10])[N:4]1[C:5]([H:11])([H:12])[C@@:6]21[H:13]>>[C:1]1([H:7])([H:8])[C@@:2]2([H:9])[C@:3]1([H:10])[C@:6]2([N:4]=[C:5]([H:11])[H:12])[H:13]"
C       -1.13081465       0.92493071       0.18931873
C       -0.98176206      -0.54865516       0.03213981
C       -0.47610418       0.35211085      -1.01328614
N        1.45520123       0.34932328      -0.50585682
C        1.56602056      -0.10731113       0.76789846
C        0.46884878      -0.81200912      -0.28368423
H       -0.57074628       1.46619769       0.94336931
H       -2.13288796       1.30454823       0.02370845
H       -1.75162832      -1.30343177       0.00880423
H       -0.71862835       0.48270741      -2.05486603
H        1.45466151       0.59880765       1.59337999
H        2.10953399      -0.98610116       1.12098340
H        0.70830572      -1.72111747      -0.82190916
13
Frame=10 idx=003338 GeodesicLength=0.7358821884334086 rxn_smarts="[C:1]1([H:7])([H:8])[C@@:2]2([H:9])[C@:3]1([H:10])[N:4]1[C:5]([H:11])([H:12])[C@@:6]21[H:13]>>[C:1]1([H:7])([H:8])[C@@:2]2([H:9])[C@:3]1([H:10])[C@:6]2([N:4]=[C:5]([H:11])[H:12])[H:13]"
C       -1.12757610       0.91911267       0.19322596
C       -0.97699703      -0.55333136       0.02484193
C       -0.47174497       0.35924261      -1.01585905
N        1.44465108       0.32858658      -0.50892932
C        1.56911022      -0.09870970       0.77245263
C        0.46986408      -0.82484214      -0.29246790
H       -0.57277767       1.45330437       0.95595177
H       -2.13024799       1.29852865       0.03053834
H       -1.75401300      -1.30068653      -0.00725208
H       -0.73031696       0.50094346      -2.05244602
H        1.48699234       0.63443211       1.57642899
H        2.08298881      -0.98254407       1.15411211
H        0.71006719      -1.73403666      -0.83059735
13
Frame=11 idx=003338 GeodesicLength=0.8093967813403381 rxn_smarts="[C:1]1([H:7])([H:8])[C@@:2]2([H:9])[C@:3]1([H:10])[N:4]1[C:5]([H:11])([H:12])[C@@:6]21[H:13]>>[C:1]1([H:7])([H:8])[C@@:2]2([H:9])[C@:3]1([H:10])[C@:6]2([N:4]=[C:5]([H:11])[H:12])[H:13]"
C       -1.12418213       0.91299025       0.19736052
C       -0.97229490      -0.55820847       0.01734480
C       -0.46721642       0.36639321      -1.01820457
N        1.43414830       0.30778224      -0.51164524
C        1.57233776      -0.08972233       0.77666987
C        0.47078061      -0.83798400      -0.30134912
H       -0.57472835       1.43958619       0.96898290
H       -2.12737526       1.29238338       0.03759127
H       -1.75640899      -1.29794792      -0.02357303
H       -0.74150271       0.51960843      -2.04944292
H        1.52047338       0.66965293       1.55739205
H        2.05411343      -0.97734887       1.18832881
H        0.71185528      -1.74718503      -0.83945534
13
Frame=12 idx=003338 GeodesicLength=0.8829681075542948 rxn_smarts="[C:1]1([H:7])([H:8])[C@@:2]2([H:9])[C@:3]1([H:10])[N:4]1[C:5]([H:11])([H:12])[C@@:6]21[H:13]>>[C:1]1([H:7])([H:8])[C@@:2]2([H:9])[C@:3]1([H:10])[C@:6]2([N:4]=[C:5]([H:11])[H:12])[H:13]"
C       -1.12060966       0.90654473       0.20175091
C       -0.96764330      -0.56329927       0.00964419
C       -0.46250473       0.37356380      -1.02030585
N        1.42369916       0.28689460      -0.51403246
C        1.57576723      -0.08034886       0.78050199
C        0.47161371      -0.85144530      -0.31033427
H       -0.57656233       1.42499096       0.98248338
H       -2.12424941       1.28610515       0.04491815
H       -1.75880411      -1.29522037      -0.04018858
H       -0.75217497       0.53872804      -2.04583440
H        1.55509529       0.70429038       1.53620751
H        2.02267943      -0.97022791       1.22367906
H        0.71369368      -1.76057595      -0.84848962
13
Frame=13 idx=003338 GeodesicLength=0.9566393421165537 rxn_smarts="[C:1]1([H:7])([H:8])[C@@:2]2([H:9])[C@:3]1([H:10])[N:4]1[C:5]([H:11])([H:12])[C@@:6]21[H:13]>>[C:1]1([H:7])([H:8])[C@@:2]2([H:9])[C@:3]1([H:10])[C@:6]2([N:4]=[C:5]([H:11])[H:12])[H:13]"
C       -1.11683738       0.89975350       0.20642417
C       -0.96304484      -0.56861925       0.00171662
C       -0.45760606       0.38074822      -1.02213336
N        1.41332792       0.26591188      -0.51609223
C        1.57950400      -0.07058984       0.78389690
C        0.47237917      -0.86523739      -0.31943614
H       -0.57822300       1.40946934       0.99646831
H       -2.12086379       1.27968054       0.05256803
H       -1.76121814      -1.29251163      -0.05716011
H       -0.76233489       0.55830402      -2.04157518
H        1.59088929       0.73814452       1.51285095
H        1.98842854      -0.96082979       1.26019010
H        0.71559919      -1.77422413      -0.85771807
13
Frame=14 idx=003338 GeodesicLength=1.030461738688206 rxn_smarts="[C:1]1([H:7])([H:8])[C@@:2]2([H:9])[C@:3]1([H:10])[N:4]1[C:5]([H:11])([H:12])[C@@:6]21[H:13]>>[C:1]1([H:7])([H:8])[C@@:2]2([H:9])[C@:3]1([H:10])[C@:6]2([N:4]=[C:5]([H:11])[H:12])[H:13]"
C       -1.11280516       0.89258615       0.21140101
C       -0.95845255      -0.57416575      -0.00640739
C       -0.45248569       0.38794137      -1.02368444
N        1.40297376       0.24479440      -0.51785038
C        1.58354451      -0.06051883       0.78682590
C        0.47306630      -0.87937399      -0.32863255
H       -0.57966312       1.39295387       1.01093505
H       -2.11711290       1.27310698       0.06057436
H       -1.76358121      -1.28977186      -0.07446091
H       -0.77195370       0.57836780      -2.03666842
H        1.62760308       0.77092625       1.48734866
H        1.95131598      -0.94872613       1.29774796
H        0.71755069      -1.78812025      -0.86712884
13
Frame=15 idx=003338 GeodesicLength=1.1043168463405182 rxn_smarts="[C:1]1([H:7])([H:8])[C@@:2]2([H:9])[C@:3]1([H:10])[N:4]1[C:5]([H:11])([H:12])[C@@:6]21[H:13]>>[C:1]1([H:7])([H:8])[C@@:2]2([H:9])[C@:3]1([H:10])[C@:6]2([N:4]=[C:5]([H:11])[H:12])[H:13]"
C       -1.10849139       0.88498931       0.21670056
C       -0.95388319      -0.57993442      -0.01472951
C       -0.44709686       0.39512922      -1.02488270
N        1.39268005       0.22359880      -0.51924979
C        1.58796711      -0.05015506       0.78920004
C        0.47368721      -0.89380622      -0.33793975
H       -0.58081886       1.37540250       1.02579385
H       -2.11298217       1.26629570       0.06898232
H       -1.76591975      -1.28700953      -0.09203679
H       -0.78090961       0.59883447      -2.03099012
H        1.66528872       0.80232680       1.45973706
H        1.91089863      -0.93349899       1.33614548
H        0.71958013      -1.80217258      -0.87673063
13
Frame=16 idx=003338 GeodesicLength=1.1784309042989656 rxn_smarts="[C:1]1([H:7])([H:8])[C@@:2]2([H:9])[C@:3]1([H:10])[N:4]1[C:5]([H:11])([H:12])[C@@:6]21[H:13]>>[C:1]1([H:7])([H:8])[C@@:2]2([H:9])[C@:3]1([H:10])[C@:6]2([N:4]=[C:5]([H:11])[H:12])[H:13]"
C       -1.10390732       0.87699458       0.22235167
C       -0.94934020      -0.58595575      -0.02327601
C       -0.44147174       0.40231430      -1.02575309
N        1.38244672       0.20225445      -0.52027646
C        1.59289306      -0.03961241       0.79106809
C        0.47425849      -0.90862593      -0.34735903
H       -0.58166941       1.35683010       1.04112566
H       -2.10850616       1.25934456       0.07781175
H       -1.76824752      -1.28424318      -0.10997830
H       -0.78928797       0.61974856      -2.02460698
H        1.70387261       0.83214898       1.43018736
H        1.86725698      -0.91468014       1.37528628
H        0.72170245      -1.81651812      -0.88658095
