10
Frame=0 idx=007942 GeodesicLength=0.0 rxn_smarts="[O:1]([c:2]1[c:3]([H:9])[n:4][n:5][c:6]([H:10])[n:7]1)[H:8]>>[O:1]=[c:2]1[c:3]([H:9])[n:4][n:5]([H:8])[c:6]([H:10])[n:7]1"
O        1.56766020      -0.54600747       0.51661651
C        0.94720978      -0.06041781      -0.49182644
C        0.43773743       1.30850343      -0.29012456
N       -0.54344683       1.16278735       0.51971435
N       -0.94164519      -0.10596466       0.90659091
C       -0.97597575      -0.92071070      -0.22875103
N        0.03823284      -0.89827165      -1.03301983
H        0.48769162      -0.59490679       1.10658373
H        0.77797960       2.27178376      -0.63730205
H       -1.79544370      -1.61679546      -0.36848160
10
Frame=1 idx=007942 GeodesicLength=0.09684626093005588 rxn_smarts="[O:1]([c:2]1[c:3]([H:9])[n:4][n:5][c:6]([H:10])[n:7]1)[H:8]>>[O:1]=[c:2]1[c:3]([H:9])[n:4][n:5]([H:8])[c:6]([H:10])[n:7]1"
O        1.58048879      -0.53582655       0.49983205
C        0.94524958      -0.05814694      -0.50326392
C        0.42736017       1.30693009      -0.30103881
N       -0.55778036       1.17011051       0.50813799
N       -0.95029308      -0.09855042       0.89510692
C       -0.98585854      -0.91721995      -0.23346821
N        0.03401356      -0.90286334      -1.03342397
H        0.48849971      -0.59883429       1.12385784
H        0.80762937       2.27011520      -0.60492241
H       -1.78930920      -1.63571430      -0.35081749
10
Frame=2 idx=007942 GeodesicLength=0.1935258125204124 rxn_smarts="[O:1]([c:2]1[c:3]([H:9])[n:4][n:5][c:6]([H:10])[n:7]1)[H:8]>>[O:1]=[c:2]1[c:3]([H:9])[n:4][n:5]([H:8])[c:6]([H:10])[n:7]1"
O        1.59357055      -0.52591746       0.48296291
C        0.94372711      -0.05578206      -0.51446477
C        0.41780600       1.30553873      -0.31108893
N       -0.57176708       1.17743645       0.49679595
N       -0.95868199      -0.09119809       0.88361018
C       -0.99557966      -0.91342290      -0.23848789
N        0.03022920      -0.90711284      -1.03368242
H        0.48930545      -0.60314562       1.14191979
H        0.83444001       2.26629558      -0.57374494
H       -1.78304960      -1.65269179      -0.33381986
10
Frame=3 idx=007942 GeodesicLength=0.2900905100044635 rxn_smarts="[O:1]([c:2]1[c:3]([H:9])[n:4][n:5][c:6]([H:10])[n:7]1)[H:8]>>[O:1]=[c:2]1[c:3]([H:9])[n:4][n:5]([H:8])[c:6]([H:10])[n:7]1"
O        1.60693929      -0.51629533       0.46596468
C        0.94262185      -0.05336018      -0.52545055
C        0.40905155       1.30426949      -0.32028090
N       -0.58544307       1.18474237       0.48565444
N       -0.96682762      -0.08390584       0.87210002
C       -1.00514327      -0.90936120      -0.24377608
N        0.02684612      -0.91105736      -1.03378625
H        0.49003660      -0.60788990       1.16079722
H        0.85859646       2.26071520      -0.54379029
H       -1.77667791      -1.66785724      -0.31743228
10
Frame=4 idx=007942 GeodesicLength=0.3865645754066141 rxn_smarts="[O:1]([c:2]1[c:3]([H:9])[n:4][n:5][c:6]([H:10])[n:7]1)[H:8]>>[O:1]=[c:2]1[c:3]([H:9])[n:4][n:5]([H:8])[c:6]([H:10])[n:7]1"
O        1.62067711      -0.50694752       0.44881712
C        0.94194291      -0.05090578      -0.53621634
C        0.40107133       1.30307019      -0.32858998
N       -0.59881847       1.19198710       0.47473609
N       -0.97470081      -0.07671788       0.86062865
C       -1.01450087      -0.90512200      -0.24925239
N        0.02387760      -0.91476188      -1.03368557
H        0.49069184      -0.61310989       1.18057470
H        0.88011269       2.25364479      -0.51520796
H       -1.77035334      -1.68113714      -0.30180432
10
Frame=5 idx=007942 GeodesicLength=0.48311185197864226 rxn_smarts="[O:1]([c:2]1[c:3]([H:9])[n:4][n:5][c:6]([H:10])[n:7]1)[H:8]>>[O:1]=[c:2]1[c:3]([H:9])[n:4][n:5]([H:8])[c:6]([H:10])[n:7]1"
O        1.63485015      -0.49781769       0.43140206
C        0.94164769      -0.04843159      -0.54680929
C        0.39379586       1.30189742      -0.33607457
N       -0.61194694       1.19916675       0.46398446
N       -0.98233099      -0.06962937       0.84918889
C       -1.02366126      -0.90075918      -0.25487860
N        0.02128846      -0.91828280      -1.03336580
H        0.49118376      -0.61881038       1.20131068
H        0.89930463       2.24540844      -0.48788609
H       -1.76413137      -1.69274160      -0.28687175
10
Frame=6 idx=007942 GeodesicLength=0.579687875889371 rxn_smarts="[O:1]([c:2]1[c:3]([H:9])[n:4][n:5][c:6]([H:10])[n:7]1)[H:8]>>[O:1]=[c:2]1[c:3]([H:9])[n:4][n:5]([H:8])[c:6]([H:10])[n:7]1"
O        1.64950104      -0.48884483       0.41364479
C        0.94170783      -0.04595314      -0.55729027
C        0.38713909       1.30071427      -0.34283562
N       -0.62486430       1.20626185       0.45333904
N       -0.98971098      -0.06264822       0.83779426
C       -1.03260572      -0.89635068      -0.26059067
N        0.01906287      -0.92170833      -1.03279271
H        0.49149943      -0.62496684       1.22306195
H        0.91637414       2.23622575      -0.46168091
H       -1.75810339      -1.70272983      -0.27264986
10
Frame=7 idx=007942 GeodesicLength=0.6763444929702097 rxn_smarts="[O:1]([c:2]1[c:3]([H:9])[n:4][n:5][c:6]([H:10])[n:7]1)[H:8]>>[O:1]=[c:2]1[c:3]([H:9])[n:4][n:5]([H:8])[c:6]([H:10])[n:7]1"
O        1.66467002      -0.47995326       0.39541388
C        0.94207072      -0.04347204      -0.56772922
C        0.38101015       1.29949377      -0.34897518
N       -0.63762799       1.21328024       0.44272080
N       -0.99687035      -0.05576116       0.82642583
C       -1.04134970      -0.89194132      -0.26636094
N        0.01716439      -0.92509583      -1.03195521
H        0.49156308      -0.63155510       1.24587872
H        0.93166940       2.22633035      -0.43637581
H       -1.75229972      -1.71132566      -0.25904287
10
Frame=8 idx=007942 GeodesicLength=0.7731465071577617 rxn_smarts="[O:1]([c:2]1[c:3]([H:9])[n:4][n:5][c:6]([H:10])[n:7]1)[H:8]>>[O:1]=[c:2]1[c:3]([H:9])[n:4][n:5]([H:8])[c:6]([H:10])[n:7]1"
O        1.68042201      -0.47111556       0.37657714
C        0.94271778      -0.04099273      -0.57816974
C        0.37537022       1.29822072      -0.35453417
N       -0.65024353       1.22021954       0.43210694
N       -1.00381562      -0.04896530       0.81509202
C       -1.04987786      -0.88757863      -0.27215377
N        0.01559748      -0.92850433      -1.03082153
H        0.49130192      -0.63854744       1.26986561
H        0.94529828       2.21584337      -0.41188807
H       -1.74677068      -1.71857964      -0.24607444
10
Frame=9 idx=007942 GeodesicLength=0.8703139017760737 rxn_smarts="[O:1]([c:2]1[c:3]([H:9])[n:4][n:5][c:6]([H:10])[n:7]1)[H:8]>>[O:1]=[c:2]1[c:3]([H:9])[n:4][n:5]([H:8])[c:6]([H:10])[n:7]1"
O        1.69682961      -0.46213854       0.35693627
C        0.94356972      -0.03847564      -0.58874176
C        0.37008687       1.29687528      -0.35966729
N       -0.66277491       1.22709365       0.42141564
N       -1.01057587      -0.04224443       0.80374732
C       -1.05822069      -0.88326522      -0.27796903
N        0.01432152      -0.93199083      -1.02936731
H        0.49050465      -0.64596659       1.29509701
H        0.95775352       2.20491418      -0.38789517
H       -1.74149441      -1.72480185      -0.23355569
10
Frame=10 idx=007942 GeodesicLength=0.9676061497677665 rxn_smarts="[O:1]([c:2]1[c:3]([H:9])[n:4][n:5][c:6]([H:10])[n:7]1)[H:8]>>[O:1]=[c:2]1[c:3]([H:9])[n:4][n:5]([H:8])[c:6]([H:10])[n:7]1"
O        1.71391549      -0.45309225       0.33640251
C        0.94463984      -0.03594399      -0.59943741
C        0.36518691       1.29545788      -0.36434921
N       -0.67519917       1.23389770       0.41064168
N       -1.01715661      -0.03558733       0.79240739
C       -1.06635281      -0.87903944      -0.28377927
N        0.01336006      -0.93557407      -1.02757438
H        0.48918876      -0.65375712       1.32166596
H        0.96894234       2.19359490      -0.36441150
H       -1.73652479      -1.72995628      -0.22156578
10
Frame=11 idx=007942 GeodesicLength=1.0649978649516518 rxn_smarts="[O:1]([c:2]1[c:3]([H:9])[n:4][n:5][c:6]([H:10])[n:7]1)[H:8]>>[O:1]=[c:2]1[c:3]([H:9])[n:4][n:5]([H:8])[c:6]([H:10])[n:7]1"
O        1.73174100      -0.44388782       0.31482627
C        0.94589732      -0.03338053      -0.61030505
C        0.36062929       1.29396214      -0.36862157
N       -0.68753322       1.24063754       0.39975216
N       -1.02357942      -0.02898064       0.78104926
C       -1.07428137      -0.87489770      -0.28958761
N        0.01270817      -0.93927492      -1.02542006
H        0.48723372      -0.66193204       1.34965190
H        0.97905790       2.18194614      -0.34131201
H       -1.73187339      -1.73419219      -0.21003330
10
Frame=12 idx=007942 GeodesicLength=1.1624632431487756 rxn_smarts="[O:1]([c:2]1[c:3]([H:9])[n:4][n:5][c:6]([H:10])[n:7]1)[H:8]>>[O:1]=[c:2]1[c:3]([H:9])[n:4][n:5]([H:8])[c:6]([H:10])[n:7]1"
O        1.75037474      -0.43446909       0.29203291
C        0.94732338      -0.03077080      -0.62139022
C        0.35639106       1.29238505      -0.37250131
N       -0.69977459       1.24731591       0.38873894
N       -1.02985457      -0.02241765       0.76966693
C       -1.08199661      -0.87085133      -0.29538633
N        0.01238243      -0.94312523      -1.02286168
H        0.48450592      -0.67049436       1.37917409
H        0.98819577       2.16999926      -0.31852546
H       -1.72754754      -1.73757177      -0.19894786
10
Frame=13 idx=007942 GeodesicLength=1.2599687307955934 rxn_smarts="[O:1]([c:2]1[c:3]([H:9])[n:4][n:5][c:6]([H:10])[n:7]1)[H:8]>>[O:1]=[c:2]1[c:3]([H:9])[n:4][n:5]([H:8])[c:6]([H:10])[n:7]1"
O        1.76988346      -0.42475302       0.26782488
C        0.94889166      -0.02809476      -0.63276062
C        0.35244572       1.29072395      -0.37603058
N       -0.71193476       1.25394072       0.37756528
N       -1.03599575      -0.01588517       0.75823705
C       -1.08949763      -0.86690177      -0.30117946
N        0.01239256      -0.94714919      -1.01986957
H        0.48084605      -0.67944428       1.41035363
H        0.99651852       2.15778622      -0.29590397
H       -1.72354983      -1.74022271      -0.18823662
10
Frame=14 idx=007942 GeodesicLength=1.3574454400643619 rxn_smarts="[O:1]([c:2]1[c:3]([H:9])[n:4][n:5][c:6]([H:10])[n:7]1)[H:8]>>[O:1]=[c:2]1[c:3]([H:9])[n:4][n:5]([H:8])[c:6]([H:10])[n:7]1"
O        1.79034470      -0.41467383       0.24199140
C        0.95058742      -0.02533558      -0.64446791
C        0.34878736       1.28897741      -0.37921240
N       -0.72400076       1.26051074       0.36622692
N       -1.04200666      -0.00937842       0.74675479
C       -1.09676621      -0.86306081      -0.30695790
N        0.01276890      -0.95137805      -1.01639107
H        0.47608851      -0.68878495       1.44333625
H        1.00407410       2.14529086      -0.27338207
H       -1.71987736      -1.74216737      -0.17789801
10
Frame=15 idx=007942 GeodesicLength=1.454807475531984 rxn_smarts="[O:1]([c:2]1[c:3]([H:9])[n:4][n:5][c:6]([H:10])[n:7]1)[H:8]>>[O:1]=[c:2]1[c:3]([H:9])[n:4][n:5]([H:8])[c:6]([H:10])[n:7]1"
O        1.81183830      -0.40414997       0.21429909
C        0.95239560      -0.02247283      -0.65656946
C        0.34541421       1.28714368      -0.38204516
N       -0.73595529       1.26702340       0.35472675
N       -1.04788922      -0.00289388       0.73521432
C       -1.10378285      -0.85933432      -0.31271805
N        0.01354733      -0.95584126      -1.01236571
H        0.47003946      -0.69852583       1.47828006
H        1.01092079       2.13249431      -0.25089769
H       -1.71652834      -1.74344329      -0.16792417
10
Frame=16 idx=007942 GeodesicLength=1.5519771763843027 rxn_smarts="[O:1]([c:2]1[c:3]([H:9])[n:4][n:5][c:6]([H:10])[n:7]1)[H:8]>>[O:1]=[c:2]1[c:3]([H:9])[n:4][n:5]([H:8])[c:6]([H:10])[n:7]1"
O        1.83444812      -0.39308132       0.18446781
C        0.95429698      -0.01948111      -0.66914024
C        0.34232807       1.28522199      -0.38453168
N       -0.74778308       1.27347808       0.34305560
N       -1.05364442       0.00357427       0.72360488
C       -1.11052532      -0.85572885      -0.31845852
N        0.01477060      -0.96057151      -1.00772626
H        0.46246202      -0.70867422       1.51536313
H        1.01713898       2.11936702      -0.22835141
H       -1.71349195      -1.74410436      -0.15828332
