12
Frame=0 idx=007775 GeodesicLength=0.0 rxn_smarts="[C:1]([c:2]1[n:3][n:4]([H:11])[c:5](=[O:6])[n:7]1[H:12])([H:8])([H:9])[H:10]>>[C:1]([C:2](/[N:3]=[N:4]/[H:11])=[N:7]/[C:5](=[O:6])[H:12])([H:8])([H:9])[H:10]"
C        1.98695564      -0.14246010       0.12370719
C        0.50467000      -0.01430779       0.13751022
N       -0.28241671      -1.11061497       0.33027942
N       -1.47897641      -0.68876003       0.19799870
C       -1.56345068       0.75676655      -0.10889458
O       -2.54845283       1.44917261       0.11891634
N       -0.15627062       1.08934479      -0.12407084
H        2.34802097      -0.30922122      -0.89286180
H        2.29080158      -0.98813908       0.73911779
H        2.44380407       0.76925200       0.50293051
H       -2.26232455      -1.32691229       0.24531251
H       -1.28236042       0.51587954      -1.26994543
12
Frame=1 idx=007775 GeodesicLength=0.11355242831997514 rxn_smarts="[C:1]([c:2]1[n:3][n:4]([H:11])[c:5](=[O:6])[n:7]1[H:12])([H:8])([H:9])[H:10]>>[C:1]([C:2](/[N:3]=[N:4]/[H:11])=[N:7]/[C:5](=[O:6])[H:12])([H:8])([H:9])[H:10]"
C        1.98544134      -0.14076718       0.13161336
C        0.50300213      -0.02365652       0.10286559
N       -0.27878469      -1.12706388       0.27569618
N       -1.48115457      -0.70424355       0.22023338
C       -1.56376191       0.76624966      -0.09930136
O       -2.53312311       1.46929431       0.15439374
N       -0.15711713       1.07783660      -0.16946229
H        2.37286122      -0.32824751      -0.87169681
H        2.28019678      -0.97002159       0.77320921
H        2.42820489       0.78170806       0.50165770
H       -2.25925609      -1.34914817       0.26265266
H       -1.29650886       0.54805978      -1.28186135
12
Frame=2 idx=007775 GeodesicLength=0.22703789580653333 rxn_smarts="[C:1]([c:2]1[n:3][n:4]([H:11])[c:5](=[O:6])[n:7]1[H:12])([H:8])([H:9])[H:10]>>[C:1]([C:2](/[N:3]=[N:4]/[H:11])=[N:7]/[C:5](=[O:6])[H:12])([H:8])([H:9])[H:10]"
C        1.98243801      -0.13914649       0.13919254
C        0.50123873      -0.03270778       0.06757662
N       -0.27624958      -1.14210852       0.22114552
N       -1.48050823      -0.72060321       0.24411625
C       -1.56294444       0.77528084      -0.09093605
O       -2.51621755       1.48828510       0.18825249
N       -0.15902432       1.06666833      -0.21286793
H        2.39594212      -0.34624916      -0.84988347
H        2.26606614      -0.95249756       0.80562686
H        2.41169645       0.79320196       0.50050945
H       -2.25362007      -1.37188079       0.28191776
H       -1.30881726       0.58175728      -1.29465004
12
Frame=3 idx=007775 GeodesicLength=0.3405633866974426 rxn_smarts="[C:1]([c:2]1[n:3][n:4]([H:11])[c:5](=[O:6])[n:7]1[H:12])([H:8])([H:9])[H:10]>>[C:1]([C:2](/[N:3]=[N:4]/[H:11])=[N:7]/[C:5](=[O:6])[H:12])([H:8])([H:9])[H:10]"
C        1.97798246      -0.13771038       0.14628357
C        0.49934822      -0.04131571       0.03218604
N       -0.27484908      -1.15560869       0.16766377
N       -1.47703311      -0.73801578       0.26899751
C       -1.56139065       0.78379160      -0.08404621
O       -2.49853720       1.50580244       0.21983812
N       -0.16195019       1.05623956      -0.25320611
H        2.41674760      -0.36360429      -0.82782000
H        2.24880184      -0.93567023       0.83619087
H        2.39466923       0.80366284       0.49903037
H       -2.24537563      -1.39532064       0.30325641
H       -1.31841349       0.61774927      -1.30837434
12
Frame=4 idx=007775 GeodesicLength=0.45427367953336095 rxn_smarts="[C:1]([c:2]1[n:3][n:4]([H:11])[c:5](=[O:6])[n:7]1[H:12])([H:8])([H:9])[H:10]>>[C:1]([C:2](/[N:3]=[N:4]/[H:11])=[N:7]/[C:5](=[O:6])[H:12])([H:8])([H:9])[H:10]"
C        1.97228196      -0.13654434       0.15282864
C        0.49733869      -0.04943035      -0.00319195
N       -0.27456556      -1.16764213       0.11564921
N       -1.47091747      -0.75658505       0.29448135
C       -1.55957988       0.79177121      -0.07879945
O       -2.48078414       1.52177417       0.24911106
N       -0.16579921       1.04685083      -0.29010611
H        2.43532190      -0.38085519      -0.80561495
H        2.22883666      -0.91943978       0.86510158
H        2.37757438       0.81317706       0.49689728
H       -2.23465671      -1.41972302       0.32671738
H       -1.32505063       0.65664659      -1.32307404
12
Frame=5 idx=007775 GeodesicLength=0.5678533650145867 rxn_smarts="[C:1]([c:2]1[n:3][n:4]([H:11])[c:5](=[O:6])[n:7]1[H:12])([H:8])([H:9])[H:10]>>[C:1]([C:2](/[N:3]=[N:4]/[H:11])=[N:7]/[C:5](=[O:6])[H:12])([H:8])([H:9])[H:10]"
C        1.96492000      -0.13572886       0.15874751
C        0.49501059      -0.05682561      -0.03786866
N       -0.27544192      -1.17790627       0.06531275
N       -1.46172506      -0.77614043       0.32084155
C       -1.55761254       0.79905612      -0.07557352
O       -2.46327242       1.53567563       0.27505451
N       -0.17036758       1.03856542      -0.32307490
H        2.45080715      -0.39751524      -0.78375282
H        2.20599738      -0.90425558       0.89165642
H        2.36009025       0.82119154       0.49443895
H       -2.22067119      -1.44499448       0.35299289
H       -1.32773467       0.69887776      -1.33877467
12
Frame=6 idx=007775 GeodesicLength=0.6815799362870669 rxn_smarts="[C:1]([c:2]1[n:3][n:4]([H:11])[c:5](=[O:6])[n:7]1[H:12])([H:8])([H:9])[H:10]>>[C:1]([C:2](/[N:3]=[N:4]/[H:11])=[N:7]/[C:5](=[O:6])[H:12])([H:8])([H:9])[H:10]"
C        1.95660339      -0.13536812       0.16389971
C        0.49236057      -0.06329219      -0.07060341
N       -0.27744971      -1.18655828       0.01778598
N       -1.45025340      -0.79676656       0.34789200
C       -1.55638639       0.80569520      -0.07459960
O       -2.44752178       1.54760613       0.29723343
N       -0.17562570       1.03181732      -0.35133003
H        2.46308604      -0.41441594      -0.76279360
H        2.18178628      -0.89003178       0.91595837
H        2.34359902       0.82796238       0.49086937
H       -2.20418496      -1.47159024       0.38103600
H       -1.32601334       0.74494206      -1.35534822
12
Frame=7 idx=007775 GeodesicLength=0.7953815756174414 rxn_smarts="[C:1]([c:2]1[n:3][n:4]([H:11])[c:5](=[O:6])[n:7]1[H:12])([H:8])([H:9])[H:10]>>[C:1]([C:2](/[N:3]=[N:4]/[H:11])=[N:7]/[C:5](=[O:6])[H:12])([H:8])([H:9])[H:10]"
C        1.94733616      -0.13552662       0.16828765
C        0.48927984      -0.06882217      -0.10134940
N       -0.28060138      -1.19359564      -0.02699410
N       -1.43644231      -0.81835120       0.37584821
C       -1.55620947       0.81159138      -0.07616781
O       -2.43395295       1.55737367       0.31543782
N       -0.18144914       1.02656435      -0.37499038
H        2.47216415      -0.43156970      -0.74291655
H        2.15639075      -0.87687033       0.93798547
H        2.32805144       0.83333994       0.48635277
H       -2.18495611      -1.49947000       0.41116484
H       -1.31961097       0.79533633      -1.37265853
12
Frame=8 idx=007775 GeodesicLength=0.9092460975176908 rxn_smarts="[C:1]([c:2]1[n:3][n:4]([H:11])[c:5](=[O:6])[n:7]1[H:12])([H:8])([H:9])[H:10]>>[C:1]([C:2](/[N:3]=[N:4]/[H:11])=[N:7]/[C:5](=[O:6])[H:12])([H:8])([H:9])[H:10]"
C        1.93730070      -0.13625938       0.17187956
C        0.48568191      -0.07343005      -0.12989938
N       -0.28493540      -1.19910140      -0.06874988
N       -1.42043357      -0.84081926       0.40481738
C       -1.55748435       0.81667803      -0.08057958
O       -2.42317167       1.56485959       0.32943491
N       -0.18777006       1.02278020      -0.39408471
H        2.47810260      -0.44915150      -0.72436181
H        2.13031529      -0.86478448       0.95778249
H        2.31367888       0.83731271       0.48083391
H       -2.16302212      -1.52864885       0.44330960
H       -1.30826219       0.85056437      -1.39038249
12
Frame=9 idx=007775 GeodesicLength=1.0230589473402196 rxn_smarts="[C:1]([c:2]1[n:3][n:4]([H:11])[c:5](=[O:6])[n:7]1[H:12])([H:8])([H:9])[H:10]>>[C:1]([C:2](/[N:3]=[N:4]/[H:11])=[N:7]/[C:5](=[O:6])[H:12])([H:8])([H:9])[H:10]"
C        1.92659912      -0.13757535       0.17461846
C        0.48144596      -0.07718301      -0.15611596
N       -0.29046219      -1.20319470      -0.10711973
N       -1.40241983      -0.86406012       0.43486703
C       -1.56044603       0.82082749      -0.08813272
O       -2.41554616       1.56984186       0.33905327
N       -0.19453987       1.02032284      -0.40875191
H        2.48092322      -0.46726587      -0.70733797
H        2.10398428      -0.85368677       0.97542659
H        2.30054834       0.83993191       0.47416026
H       -2.13851947      -1.55902261       0.47727093
H       -1.29156735       0.91106434      -1.40793824
12
Frame=10 idx=007775 GeodesicLength=1.1368751281802747 rxn_smarts="[C:1]([c:2]1[n:3][n:4]([H:11])[c:5](=[O:6])[n:7]1[H:12])([H:8])([H:9])[H:10]>>[C:1]([C:2](/[N:3]=[N:4]/[H:11])=[N:7]/[C:5](=[O:6])[H:12])([H:8])([H:9])[H:10]"
C        1.91540370      -0.13948263       0.17649595
C        0.47653529      -0.08024215      -0.18008798
N       -0.29721071      -1.20610728      -0.14188980
N       -1.38253850      -0.88799116       0.46599969
C       -1.56532741       0.82403440      -0.09915235
O       -2.41142129       1.57228491       0.34416151
N       -0.20174131       1.01897721      -0.41932910
H        2.48087426      -0.48600481      -0.69194492
H        2.07780708      -0.84348286       0.99105304
H        2.28870608       0.84126624       0.46632070
H       -2.11157808      -1.59049951       0.51296079
H       -1.26950912       0.97724762      -1.42458754
12
Frame=11 idx=007775 GeodesicLength=1.2507119883921038 rxn_smarts="[C:1]([c:2]1[n:3][n:4]([H:11])[c:5](=[O:6])[n:7]1[H:12])([H:8])([H:9])[H:10]>>[C:1]([C:2](/[N:3]=[N:4]/[H:11])=[N:7]/[C:5](=[O:6])[H:12])([H:8])([H:9])[H:10]"
C        1.90379588      -0.14193671       0.17748991
C        0.47088884      -0.08280635      -0.20197584
N       -0.30515189      -1.20810532      -0.17284568
N       -1.36097511      -0.91251925       0.49813875
C       -1.57213282       0.82627370      -0.11390416
O       -2.41083575       1.57208118       0.34477030
N       -0.20939033       1.01844148      -0.42631794
H        2.47816301      -0.50549436      -0.67817392
H        2.05204625      -0.83388897       1.00492235
H        2.27805738       0.84148038       0.45709769
H       -2.08243347      -1.62290673       0.55008858
H       -1.24203199       1.04938096      -1.43929004
12
Frame=12 idx=007775 GeodesicLength=1.3645689805059964 rxn_smarts="[C:1]([c:2]1[n:3][n:4]([H:11])[c:5](=[O:6])[n:7]1[H:12])([H:8])([H:9])[H:10]>>[C:1]([C:2](/[N:3]=[N:4]/[H:11])=[N:7]/[C:5](=[O:6])[H:12])([H:8])([H:9])[H:10]"
C        1.89186336      -0.14485889       0.17759270
C        0.46448038      -0.08510258      -0.22199489
N       -0.31423577      -1.20951241      -0.19985190
N       -1.33794143      -0.93754608       0.53114289
C       -1.58075287       0.82759045      -0.13261458
O       -2.41368979       1.56919257       0.34092899
N       -0.21750205       1.01835824      -0.43036623
H        2.47304801      -0.52584022      -0.66594031
H        2.02691595      -0.82454288       1.01732537
H        2.26848972       0.84078584       0.44625860
H       -2.05142078      -1.65601638       0.58828729
H       -1.20925472       1.12749233      -1.45076793
12
Frame=13 idx=007775 GeodesicLength=1.4783754220554146 rxn_smarts="[C:1]([c:2]1[n:3][n:4]([H:11])[c:5](=[O:6])[n:7]1[H:12])([H:8])([H:9])[H:10]>>[C:1]([C:2](/[N:3]=[N:4]/[H:11])=[N:7]/[C:5](=[O:6])[H:12])([H:8])([H:9])[H:10]"
C        1.87959131      -0.14818032       0.17680026
C        0.45727410      -0.08736782      -0.24035225
N       -0.32433939      -1.21064725      -0.22280425
N       -1.31352803      -0.96292180       0.56480688
C       -1.59095309       0.82808613      -0.15552178
O       -2.41973705       1.56360094       0.33257027
N       -0.22612457       1.01835412      -0.43218521
H        2.46566654      -0.54709009      -0.65508500
H        2.00252744      -0.81511813       1.02849131
H        2.25972554       0.83934943       0.43356934
H       -2.01871207      -1.68949830       0.62721204
H       -1.17139074       1.21143311      -1.45750160
12
Frame=14 idx=007775 GeodesicLength=1.5922355520944993 rxn_smarts="[C:1]([c:2]1[n:3][n:4]([H:11])[c:5](=[O:6])[n:7]1[H:12])([H:8])([H:9])[H:10]>>[C:1]([C:2](/[N:3]=[N:4]/[H:11])=[N:7]/[C:5](=[O:6])[H:12])([H:8])([H:9])[H:10]"
C        1.86710579      -0.15177358       0.17509635
C        0.44928706      -0.08979696      -0.25722371
N       -0.33540072      -1.21181641      -0.24171765
N       -1.28806707      -0.98855110       0.59906914
C       -1.60241385       0.82791600      -0.18286755
O       -2.42876229       1.55531191       0.31958982
N       -0.23524317       1.01812606      -0.43253001
H        2.45633329      -0.56913948      -0.64556715
H        1.97910351      -0.80532123       1.03857331
H        2.25167380       0.83740932       0.41891438
H       -1.98493478      -1.72309619       0.66659516
H       -1.12868155       1.30073166      -1.45793208
12
Frame=15 idx=007775 GeodesicLength=1.706058184537097 rxn_smarts="[C:1]([c:2]1[n:3][n:4]([H:11])[c:5](=[O:6])[n:7]1[H:12])([H:8])([H:9])[H:10]>>[C:1]([C:2](/[N:3]=[N:4]/[H:11])=[N:7]/[C:5](=[O:6])[H:12])([H:8])([H:9])[H:10]"
C        1.85442918      -0.15556253       0.17246826
C        0.44052762      -0.09255785      -0.27280476
N       -0.34732196      -1.21321168      -0.25668772
N       -1.26165558      -1.01424585       0.63381141
C       -1.61476606       0.82726662      -0.21494465
O       -2.44051692       1.54426740       0.30171718
N       -0.24487572       1.01740119      -0.43213749
H        2.44522383      -0.59195789      -0.63721624
H        1.95672040      -0.79488138       1.04768896
H        2.24413310       0.83507655       0.40211722
H       -1.95038186      -1.75640720       0.70625188
H       -1.08151604       1.39481261      -1.45026406
12
Frame=16 idx=007775 GeodesicLength=1.8198106478409468 rxn_smarts="[C:1]([c:2]1[n:3][n:4]([H:11])[c:5](=[O:6])[n:7]1[H:12])([H:8])([H:9])[H:10]>>[C:1]([C:2](/[N:3]=[N:4]/[H:11])=[N:7]/[C:5](=[O:6])[H:12])([H:8])([H:9])[H:10]"
C        1.84159947      -0.15948288       0.16888387
C        0.43102694      -0.09576963      -0.28730177
N       -0.36003666      -1.21495286      -0.26790440
N       -1.23435882      -1.03979828       0.66897086
C       -1.62760944       0.82634118      -0.25212036
O       -2.45483538       1.53033362       0.27854048
N       -0.25500978       1.01601400      -0.43168647
H        2.43251521      -0.61561088      -0.62986161
H        1.93539448      -0.78351046       1.05596001
H        2.23698985       0.83245115       0.38292946
H       -1.91534387      -1.78901910       0.74611395
H       -1.03033200       1.49300416      -1.43252403
