21
Frame=0 idx=010814 GeodesicLength=0.0 rxn_smarts="[C:1]([C:2]([C@@:3]1([C:4]([H:13])([H:14])[H:15])[C:5]([H:16])([H:17])[C@:6]1([C:7]([H:19])([H:20])[H:21])[H:18])([H:11])[H:12])([H:8])([H:9])[H:10]>>[C:1]([C:2]([C:3]1([C:4]([H:13])([H:14])[H:15])[C:5]([H:16])=[C:6]1[H:18])([H:11])[H:12])([H:8])([H:9])[H:10].[C:7]([H:17])([H:19])([H:20])[H:21]"
C        1.81035984      -0.72408148       0.92519716
C        1.15635689      -0.56052375      -0.44365478
C        0.13527323       0.56290869      -0.55256425
C        0.66147652       1.92828548      -0.13727287
C       -0.92589398       0.45691457      -1.59339662
C       -1.28682737       0.35586485      -0.17472191
C       -1.83725397      -1.36133227       0.49582756
H        2.43027552      -1.62209665       0.95607132
H        2.45232281       0.12286133       1.17365416
H        1.06605766      -0.80923582       1.72275111
H        1.92710009      -0.37614673      -1.19909137
H        0.67223664      -1.49116178      -0.75022777
H        1.48104611       2.21764746      -0.80022218
H        1.04056854       1.94498886       0.88757698
H       -0.11521657       2.68965166      -0.22782994
H       -1.31637733       1.32186327      -2.11857740
H       -1.71896522      -0.71201459      -0.63254277
H       -1.91329015       0.95964410       0.46660942
H       -1.01715629      -1.51381798       1.18512904
H       -1.91871935      -2.23089713      -0.16893979
H       -2.78337367      -1.15932217       0.98622493
21
Frame=1 idx=010814 GeodesicLength=0.11754648523123129 rxn_smarts="[C:1]([C:2]([C@@:3]1([C:4]([H:13])([H:14])[H:15])[C:5]([H:16])([H:17])[C@:6]1([C:7]([H:19])([H:20])[H:21])[H:18])([H:11])[H:12])([H:8])([H:9])[H:10]>>[C:1]([C:2]([C:3]1([C:4]([H:13])([H:14])[H:15])[C:5]([H:16])=[C:6]1[H:18])([H:11])[H:12])([H:8])([H:9])[H:10].[C:7]([H:17])([H:19])([H:20])[H:21]"
C        1.81000356      -0.72413112       0.92512443
C        1.15502016      -0.55623610      -0.44268902
C        0.13776650       0.57084654      -0.54659091
C        0.67340011       1.93606114      -0.14453594
C       -0.93268767       0.46560982      -1.57898242
C       -1.28392852       0.36535509      -0.16223643
C       -1.84547984      -1.37329199       0.49362625
H        2.42924120      -1.62270761       0.95323250
H        2.45247348       0.12186475       1.17555222
H        1.06571297      -0.81126857       1.72234908
H        1.92602674      -0.37342958      -1.19837835
H        0.66816026      -1.48541065      -0.74917437
H        1.49111128       2.21748988      -0.81327313
H        1.05788866       1.95703231       0.87822309
H       -0.10016607       2.70063450      -0.23458202
H       -1.32206786       1.32231425      -2.11749245
H       -1.73312303      -0.72082590      -0.65168201
H       -1.90704315       0.97149802       0.48009368
H       -1.04622543      -1.51753731       1.20984852
H       -1.88981943      -2.25138580      -0.16279438
H       -2.80626393      -1.19248167       0.96436167
21
Frame=2 idx=010814 GeodesicLength=0.23485553747910973 rxn_smarts="[C:1]([C:2]([C@@:3]1([C:4]([H:13])([H:14])[H:15])[C:5]([H:16])([H:17])[C@:6]1([C:7]([H:19])([H:20])[H:21])[H:18])([H:11])[H:12])([H:8])([H:9])[H:10]>>[C:1]([C:2]([C:3]1([C:4]([H:13])([H:14])[H:15])[C:5]([H:16])=[C:6]1[H:18])([H:11])[H:12])([H:8])([H:9])[H:10].[C:7]([H:17])([H:19])([H:20])[H:21]"
C        1.80937726      -0.72422234       0.92516806
C        1.15371363      -0.55179090      -0.44171831
C        0.14035640       0.57897388      -0.54055387
C        0.68551911       1.94392470      -0.15214692
C       -0.93978434       0.47434332      -1.56393658
C       -1.28076751       0.37515870      -0.14898859
C       -1.85353816      -1.38539352       0.49131840
H        2.42801797      -1.62329830       0.95047055
H        2.45218872       0.12084994       1.17789019
H        1.06483644      -0.81362316       1.72178925
H        1.92507085      -0.37053194      -1.19755553
H        0.66413412      -1.47943946      -0.74830614
H        1.50106498       2.21730284      -0.82696270
H        1.07578124       1.96923626       0.86833404
H       -0.08490558       2.71170555      -0.24160215
H       -1.32816155       1.32233945      -2.11600834
H       -1.74702888      -0.73013928      -0.67156517
H       -1.90039624       0.98369442       0.49440008
H       -1.07652232      -1.52163527       1.23428628
H       -1.86052592      -2.27096185      -0.15587850
H       -2.82843024      -1.22649305       0.94156595
21
Frame=3 idx=010814 GeodesicLength=0.35204304602376024 rxn_smarts="[C:1]([C:2]([C@@:3]1([C:4]([H:13])([H:14])[H:15])[C:5]([H:16])([H:17])[C@:6]1([C:7]([H:19])([H:20])[H:21])[H:18])([H:11])[H:12])([H:8])([H:9])[H:10]>>[C:1]([C:2]([C:3]1([C:4]([H:13])([H:14])[H:15])[C:5]([H:16])=[C:6]1[H:18])([H:11])[H:12])([H:8])([H:9])[H:10].[C:7]([H:17])([H:19])([H:20])[H:21]"
C        1.80849120      -0.72434301       0.92533330
C        1.15243772      -0.54718313      -0.44073250
C        0.14304470       0.58729606      -0.53443709
C        0.69783758       1.95187393      -0.16012402
C       -0.94721411       0.48311182      -1.54818466
C       -1.27731194       0.38530675      -0.13490019
C       -1.86145678      -1.39760912       0.48887617
H        2.42662830      -1.62384716       0.94778741
H        2.45146389       0.11983745       1.18067216
H        1.06343899      -0.81629827       1.72107312
H        1.92422556      -0.36745835      -1.19662252
H        0.66015222      -1.47324262      -0.74760400
H        1.51088352       2.21707406      -0.84133035
H        1.09428047       1.98160044       0.85787255
H       -0.06942696       2.72286632      -0.24889866
H       -1.33469909       1.32190467      -2.11404431
H       -1.76059503      -0.74007308      -0.69231827
H       -1.89330090       0.99627189       0.50961264
H       -1.10813110      -1.52614599       1.25835951
H       -1.83089434      -2.28963663      -0.14814559
H       -2.84985390      -1.26130602       0.91775531
21
Frame=4 idx=010814 GeodesicLength=0.4691762190362383 rxn_smarts="[C:1]([C:2]([C@@:3]1([C:4]([H:13])([H:14])[H:15])[C:5]([H:16])([H:17])[C@:6]1([C:7]([H:19])([H:20])[H:21])[H:18])([H:11])[H:12])([H:8])([H:9])[H:10]>>[C:1]([C:2]([C:3]1([C:4]([H:13])([H:14])[H:15])[C:5]([H:16])=[C:6]1[H:18])([H:11])[H:12])([H:8])([H:9])[H:10].[C:7]([H:17])([H:19])([H:20])[H:21]"
C        1.80736331      -0.72447846       0.92562513
C        1.15119328      -0.54240983      -0.43971915
C        0.14583286       0.59581579      -0.52822224
C        0.71035357       1.95990284      -0.16848494
C       -0.95500777       0.49190781      -1.53164492
C       -1.27352629       0.39582778      -0.11988375
C       -1.86926943      -1.40990790       0.48626004
H        2.42510450      -1.62432794       0.94518378
H        2.45030049       0.11885317       1.18389675
H        1.06154369      -0.81928989       1.72020510
H        1.92348084      -0.36421694      -1.19558054
H        0.65620706      -1.46681765      -0.74704019
H        1.52053191       2.21678601      -0.85641576
H        1.11341712       1.99412051       0.84679530
H       -0.05372951       2.73411297      -0.25647869
H       -1.34171665       1.32097214      -2.11151257
H       -1.77372254      -0.75073954      -0.71408217
H       -1.88570401       1.00926365       0.52582654
H       -1.14114221      -1.53110387       1.28197890
H       -1.80099729      -2.30740933      -0.13953515
H       -2.87051293      -1.29686132       0.89282852
21
Frame=5 idx=010814 GeodesicLength=0.5863684683896913 rxn_smarts="[C:1]([C:2]([C@@:3]1([C:4]([H:13])([H:14])[H:15])[C:5]([H:16])([H:17])[C@:6]1([C:7]([H:19])([H:20])[H:21])[H:18])([H:11])[H:12])([H:8])([H:9])[H:10]>>[C:1]([C:2]([C:3]1([C:4]([H:13])([H:14])[H:15])[C:5]([H:16])=[C:6]1[H:18])([H:11])[H:12])([H:8])([H:9])[H:10].[C:7]([H:17])([H:19])([H:20])[H:21]"
C        1.80600447      -0.72460976       0.92605797
C        1.14997917      -0.53746389      -0.43865856
C        0.14872210       0.60454106      -0.52188648
C        0.72308522       1.96801663      -0.17726650
C       -0.96321493       0.50072222      -1.51420518
C       -1.26936693       0.40676792      -0.10381941
C       -1.87701411      -1.42227426       0.48341454
H        2.42347096      -1.62471357       0.94267414
H        2.44869345       0.11792509       1.18757250
H        1.05916178      -0.82258766       1.71919313
H        1.92282635      -0.36081580      -1.19442350
H        0.65229104      -1.46015750      -0.74658250
H        1.52998469       2.21642518      -0.87229889
H        1.13326068       2.00681219       0.83504103
H       -0.03779706       2.74545238      -0.26436160
H       -1.34928421       1.31949347      -2.10830382
H       -1.78628866      -0.76227482      -0.73700445
H       -1.87754378       1.02271906       0.54317375
H       -1.17567200      -1.53656349       1.30502872
H       -1.77091673      -2.32429216      -0.13001102
H       -2.89038150      -1.33312227       0.86666614
21
Frame=6 idx=010814 GeodesicLength=0.7036815004500749 rxn_smarts="[C:1]([C:2]([C@@:3]1([C:4]([H:13])([H:14])[H:15])[C:5]([H:16])([H:17])[C@:6]1([C:7]([H:19])([H:20])[H:21])[H:18])([H:11])[H:12])([H:8])([H:9])[H:10]>>[C:1]([C:2]([C:3]1([C:4]([H:13])([H:14])[H:15])[C:5]([H:16])=[C:6]1[H:18])([H:11])[H:12])([H:8])([H:9])[H:10].[C:7]([H:17])([H:19])([H:20])[H:21]"
C        1.80444932      -0.72471269       0.92664265
C        1.14879644      -0.53234554      -0.43752678
C        0.15171301       0.61347015      -0.51539986
C        0.73602024       1.97620150      -0.18649940
C       -0.97188512       0.50953508      -1.49573419
C       -1.26477907       0.41816021      -0.08657628
C       -1.88474508      -1.43465669       0.48026275
H        2.42178189      -1.62496321       0.94026393
H        2.44665646       0.11709657       1.19169218
H        1.05634224      -0.82617802       1.71805474
H        1.92224177      -0.35727223      -1.19315246
H        0.64839343      -1.45326629      -0.74617642
H        1.53917294       2.21595844      -0.88904328
H        1.15384912       2.01966604       0.82253022
H       -0.02163971       2.75687166      -0.27255956
H       -1.35745646       1.31741803      -2.10427322
H       -1.79812407      -0.77482941      -0.76128837
H       -1.86872930       1.03667245       0.56181088
H       -1.21185333      -1.54255011       1.32737324
H       -1.74076854      -2.34027937      -0.11950390
H       -2.90943618      -1.36999657       0.83910311
21
Frame=7 idx=010814 GeodesicLength=0.8211545516343015 rxn_smarts="[C:1]([C:2]([C@@:3]1([C:4]([H:13])([H:14])[H:15])[C:5]([H:16])([H:17])[C@:6]1([C:7]([H:19])([H:20])[H:21])[H:18])([H:11])[H:12])([H:8])([H:9])[H:10]>>[C:1]([C:2]([C:3]1([C:4]([H:13])([H:14])[H:15])[C:5]([H:16])=[C:6]1[H:18])([H:11])[H:12])([H:8])([H:9])[H:10].[C:7]([H:17])([H:19])([H:20])[H:21]"
C        1.80273098      -0.72475720       0.92739969
C        1.14764577      -0.52705307      -0.43629134
C        0.15480567       0.62260270      -0.50872780
C        0.74916444       1.98445606      -0.19622997
C       -0.98107609       0.51831854      -1.47607887
C       -1.25969312       0.43004306      -0.06799648
C       -1.89253093      -1.44702062       0.47670885
H        2.42008807      -1.62503431       0.93797403
H        2.44420427       0.11641400       1.19625449
H        1.05312965      -0.83003567       1.71681362
H        1.92170698      -0.35360568      -1.19176171
H        0.64450489      -1.44614710      -0.74575751
H        1.54804090       2.21536511      -0.90674863
H        1.17525406       2.03269452       0.80917129
H       -0.00526259       2.76836284      -0.28109907
H       -1.36631176       1.31467473      -2.09926301
H       -1.80906268      -0.78853663      -0.78712884
H       -1.85916198       1.05115801       0.58191866
H       -1.24984325      -1.54911647       1.34883569
H       -1.71067612      -2.35536991      -0.10798790
H       -2.92765716      -1.40741293       0.80999481
21
Frame=8 idx=010814 GeodesicLength=0.9388457096472979 rxn_smarts="[C:1]([C:2]([C@@:3]1([C:4]([H:13])([H:14])[H:15])[C:5]([H:16])([H:17])[C@:6]1([C:7]([H:19])([H:20])[H:21])[H:18])([H:11])[H:12])([H:8])([H:9])[H:10]>>[C:1]([C:2]([C:3]1([C:4]([H:13])([H:14])[H:15])[C:5]([H:16])=[C:6]1[H:18])([H:11])[H:12])([H:8])([H:9])[H:10].[C:7]([H:17])([H:19])([H:20])[H:21]"
C        1.80090495      -0.72470094       0.92835521
C        1.14653222      -0.52158842      -0.43490839
C        0.15800200       0.63193302      -0.50182515
C        0.76250543       1.99276524      -0.20652006
C       -0.99085869       0.52702555      -1.45503324
C       -1.25402428       0.44246526      -0.04787800
C       -1.90045427      -1.45932392       0.47262044
H        2.41846833      -1.62486397       0.93582864
H        2.44136752       0.11594493       1.20124994
H        1.04960249      -0.83412490       1.71550881
H        1.92119499      -0.34984575      -1.19024531
H        0.64061657      -1.43881108      -0.74523313
H        1.55648606       2.21459256      -0.92553861
H        1.19754811       2.04591263       0.79484085
H        0.01132619       2.77991269      -0.29001282
H       -1.37593341       1.31116509      -2.09305728
H       -1.81887389      -0.80353935      -0.81476880
H       -1.84871661       1.06621767       0.60373520
H       -1.28982885      -1.55631712       1.36919771
H       -1.68082350      -2.36954910      -0.09544807
H       -2.94504136      -1.44527008       0.77913207
21
Frame=9 idx=010814 GeodesicLength=1.0564812415663614 rxn_smarts="[C:1]([C:2]([C@@:3]1([C:4]([H:13])([H:14])[H:15])[C:5]([H:16])([H:17])[C@:6]1([C:7]([H:19])([H:20])[H:21])[H:18])([H:11])[H:12])([H:8])([H:9])[H:10]>>[C:1]([C:2]([C:3]1([C:4]([H:13])([H:14])[H:15])[C:5]([H:16])=[C:6]1[H:18])([H:11])[H:12])([H:8])([H:9])[H:10].[C:7]([H:17])([H:19])([H:20])[H:21]"
C        1.79921814      -0.72441698       0.92954036
C        1.14551336      -0.51599112      -0.43328013
C        0.16128596       0.64136024      -0.49459756
C        0.77594744       2.00105845      -0.21742789
C       -1.00129783       0.53550377      -1.43221687
C       -1.24755870       0.45529440      -0.02593632
C       -1.90881804      -1.47150781       0.46773469
H        2.41722968      -1.62429081       0.93386075
H        2.43836768       0.11588531       1.20655232
H        1.04611374      -0.83828986       1.71426640
H        1.92064381      -0.34607167      -1.18862671
H        0.63677770      -1.43135260      -0.74431279
H        1.56426641       2.21357084      -0.94553299
H        1.22076267       2.05930980       0.77935064
H        0.02797819       2.79140318      -0.29927746
H       -1.38647535       1.30672711      -2.08526627
H       -1.82703671      -0.82017548      -0.84444858
H       -1.83706355       1.08168503       0.62764127
H       -1.33216837      -1.56380702       1.38812716
H       -1.65178944      -2.38270691      -0.08232574
H       -2.96189679      -1.48318785       0.74617570
21
Frame=10 idx=010814 GeodesicLength=1.1741888292038785 rxn_smarts="[C:1]([C:2]([C@@:3]1([C:4]([H:13])([H:14])[H:15])[C:5]([H:16])([H:17])[C@:6]1([C:7]([H:19])([H:20])[H:21])[H:18])([H:11])[H:12])([H:8])([H:9])[H:10]>>[C:1]([C:2]([C:3]1([C:4]([H:13])([H:14])[H:15])[C:5]([H:16])=[C:6]1[H:18])([H:11])[H:12])([H:8])([H:9])[H:10].[C:7]([H:17])([H:19])([H:20])[H:21]"
C        1.79760873      -0.72390295       0.93100989
C        1.14455765      -0.51024591      -0.43136851
C        0.16466926       0.65093616      -0.48701603
C        0.78953891       2.00935213      -0.22907396
C       -1.01250464       0.54373358      -1.40746028
C       -1.24027422       0.46872472      -0.00192006
C       -1.91758208      -1.48352145       0.46193587
H        2.41632092      -1.62329373       0.93213101
H        2.43510629       0.11624794       1.21224639
H        1.04257046      -0.84256173       1.71310192
H        1.92004270      -0.34230242      -1.18686120
H        0.63293456      -1.42373945      -0.74298484
H        1.57134650       2.21223447      -0.96695594
H        1.24504424       2.07292506       0.76253405
H        0.04476085       2.80287466      -0.30900876
H       -1.39803477       1.30123542      -2.07571868
H       -1.83345927      -0.83828420      -0.87639494
H       -1.82418704       1.09776418       0.65388363
H       -1.37696982      -1.57202665       1.40535412
H       -1.62351235      -2.39490763      -0.06834947
H       -2.97797689      -1.52124221       0.71091580
21
Frame=11 idx=010814 GeodesicLength=1.2919526259845928 rxn_smarts="[C:1]([C:2]([C@@:3]1([C:4]([H:13])([H:14])[H:15])[C:5]([H:16])([H:17])[C@:6]1([C:7]([H:19])([H:20])[H:21])[H:18])([H:11])[H:12])([H:8])([H:9])[H:10]>>[C:1]([C:2]([C:3]1([C:4]([H:13])([H:14])[H:15])[C:5]([H:16])=[C:6]1[H:18])([H:11])[H:12])([H:8])([H:9])[H:10].[C:7]([H:17])([H:19])([H:20])[H:21]"
C        1.79620569      -0.72307712       0.93281740
C        1.14368403      -0.50437377      -0.42908532
C        0.16815023       0.66062145      -0.47900261
C        0.80323574       2.01760780      -0.24156313
C       -1.02456226       0.55160324      -1.38043400
C       -1.23201040       0.48276224       0.02447469
C       -1.92690780      -1.49529835       0.45499858
H        2.41591428      -1.62176144       0.93069625
H        2.43168288       0.11716599       1.21829811
H        1.03915394      -0.84685372       1.71211423
H        1.91934277      -0.33860246      -1.18493522
H        0.62908967      -1.41601963      -0.74105085
H        1.57754342       2.21050893      -0.99000673
H        1.27047922       2.08677022       0.74417404
H        0.06160806       2.81427004      -0.31926419
H       -1.41075520       1.29451470      -2.06406920
H       -1.83782495      -0.85792840      -0.91089364
H       -1.80987024       1.11444611       0.68281161
H       -1.42448024      -1.58100503       1.42056744
H       -1.59629010      -2.40613364      -0.05368037
H       -2.99338873      -1.55921717       0.67303290
21
Frame=12 idx=010814 GeodesicLength=1.4096787365123638 rxn_smarts="[C:1]([C:2]([C@@:3]1([C:4]([H:13])([H:14])[H:15])[C:5]([H:16])([H:17])[C@:6]1([C:7]([H:19])([H:20])[H:21])[H:18])([H:11])[H:12])([H:8])([H:9])[H:10]>>[C:1]([C:2]([C:3]1([C:4]([H:13])([H:14])[H:15])[C:5]([H:16])=[C:6]1[H:18])([H:11])[H:12])([H:8])([H:9])[H:10].[C:7]([H:17])([H:19])([H:20])[H:21]"
C        1.79517791      -0.72183972       0.93502202
C        1.14291885      -0.49840794      -0.42632768
C        0.17172602       0.67035918      -0.47047166
C        0.81697264       2.02577202      -0.25500498
C       -1.03753917       0.55897165      -1.35078447
C       -1.22259721       0.49739595       0.05356101
C       -1.93699546      -1.50676945       0.44667911
H        2.41622588      -1.61955881       0.92962224
H        2.42823656       0.11880006       1.22464930
H        1.03610669      -0.85105106       1.71142977
H        1.91848758      -0.33505539      -1.18283799
H        0.62524771      -1.40826223      -0.73826538
H        1.58262683       2.20828748      -1.01488046
H        1.29712387       2.10084928       0.72403362
H        0.07842535       2.82551109      -0.33010960
H       -1.42476569       1.28636411      -2.04993712
H       -1.83980110      -0.87907564      -0.94819730
H       -1.79388097       1.13170404       0.71478297
H       -1.47495093      -1.59076302       1.43337899
H       -1.57048779      -2.41636934      -0.03851396
H       -3.00825759      -1.59686227       0.63217155
21
Frame=13 idx=010814 GeodesicLength=1.5273024538733342 rxn_smarts="[C:1]([C:2]([C@@:3]1([C:4]([H:13])([H:14])[H:15])[C:5]([H:16])([H:17])[C@:6]1([C:7]([H:19])([H:20])[H:21])[H:18])([H:11])[H:12])([H:8])([H:9])[H:10]>>[C:1]([C:2]([C:3]1([C:4]([H:13])([H:14])[H:15])[C:5]([H:16])=[C:6]1[H:18])([H:11])[H:12])([H:8])([H:9])[H:10].[C:7]([H:17])([H:19])([H:20])[H:21]"
C        1.79472184      -0.72007632       0.93769503
C        1.14229269      -0.49239014      -0.42297597
C        0.17538660       0.68007659      -0.46132379
C        0.83066542       2.03377885      -0.26951795
C       -1.05149415       0.56567178      -1.31812619
C       -1.21185384       0.51260088       0.08566532
C       -1.94806144      -1.51786475       0.43670364
H        2.41750539      -1.61653224       0.92899075
H        2.42493227       0.12133414       1.23123311
H        1.03371343      -0.85502167       1.71120272
H        1.91741359      -0.33175658      -1.18055420
H        0.62141762      -1.40055249      -0.73434525
H        1.58634862       2.20545033      -1.04179729
H        1.32502506       2.11516857       0.70185664
H        0.09509132       2.83650088      -0.34162836
H       -1.44019534       1.27654732      -2.03291571
H       -1.83903508      -0.90159954      -0.98855154
H       -1.77597408       1.14950786       0.75016233
H       -1.52864186      -1.60133459       1.44335042
H       -1.54653660      -2.42559848      -0.02311947
H       -3.02272145      -1.63391042       0.58799578
21
Frame=14 idx=010814 GeodesicLength=1.6447545001115587 rxn_smarts="[C:1]([C:2]([C@@:3]1([C:4]([H:13])([H:14])[H:15])[C:5]([H:16])([H:17])[C@:6]1([C:7]([H:19])([H:20])[H:21])[H:18])([H:11])[H:12])([H:8])([H:9])[H:10]>>[C:1]([C:2]([C:3]1([C:4]([H:13])([H:14])[H:15])[C:5]([H:16])=[C:6]1[H:18])([H:11])[H:12])([H:8])([H:9])[H:10].[C:7]([H:17])([H:19])([H:20])[H:21]"
C        1.79507521      -0.71766610       0.94089586
C        1.14184324      -0.48637993      -0.41890871
C        0.17912092       0.68967754      -0.45146004
C        0.84417598       2.04152783      -0.28520029
C       -1.06643716       0.57151599      -1.28212273
C       -1.19959930       0.52830920       0.12103727
C       -1.96033084      -1.52848630       0.42480796
H        2.42004461      -1.61252090       0.92886631
H        2.42198496       0.12496526       1.23794107
H        1.03232470      -0.85861318       1.71160552
H        1.91604657      -0.32881885      -1.17807990
H        0.61761441      -1.39300144      -0.72897394
H        1.58842228       2.20185042      -1.07089305
H        1.35413657       2.12969821       0.67740941
H        0.11143282       2.84710667      -0.35388371
H       -1.45712043       1.26486364      -2.01258525
H       -1.83520212      -0.92529170      -1.03217204
H       -1.75591142       1.16777541       0.78923135
H       -1.58578073      -1.61265054       1.45003295
H       -1.52492228      -2.43379133      -0.00774016
H       -3.03691799      -1.67006989       0.54019211
21
Frame=15 idx=010814 GeodesicLength=1.7620794683053427 rxn_smarts="[C:1]([C:2]([C@@:3]1([C:4]([H:13])([H:14])[H:15])[C:5]([H:16])([H:17])[C@:6]1([C:7]([H:19])([H:20])[H:21])[H:18])([H:11])[H:12])([H:8])([H:9])[H:10]>>[C:1]([C:2]([C:3]1([C:4]([H:13])([H:14])[H:15])[C:5]([H:16])=[C:6]1[H:18])([H:11])[H:12])([H:8])([H:9])[H:10].[C:7]([H:17])([H:19])([H:20])[H:21]"
C        1.79650063      -0.71447635       0.94469401
C        1.14161225      -0.48044893      -0.41398940
C        0.18291427       0.69904914      -0.44077505
C        0.85735116       2.04891098      -0.30215292
C       -1.08234821       0.57628465      -1.24242445
C       -1.18564783       0.54443478       0.15991018
C       -1.97404675      -1.53854353       0.41070089
H        2.42415886      -1.60735287       0.92932998
H        2.41963971       0.12990537       1.24465257
H        1.03233124      -0.86165004       1.71283880
H        1.91430722      -0.32637055      -1.17540530
H        0.61385966      -1.38573909      -0.72180044
H        1.58854040       2.19732372      -1.10230360
H        1.38438015       2.14441064       0.65044749
H        0.12725309       2.85718076      -0.36695575
H       -1.47559820       1.25108558      -1.98852122
H       -1.82799859      -0.94978653      -1.07922996
H       -1.73345671       1.18641403       0.83224230
H       -1.64658299      -1.62463467       1.45292979
H       -1.50616567      -2.44093028       0.00730022
H       -3.05100370      -1.70506681       0.48851187
21
Frame=16 idx=010814 GeodesicLength=1.8794104296926266 rxn_smarts="[C:1]([C:2]([C@@:3]1([C:4]([H:13])([H:14])[H:15])[C:5]([H:16])([H:17])[C@:6]1([C:7]([H:19])([H:20])[H:21])[H:18])([H:11])[H:12])([H:8])([H:9])[H:10]>>[C:1]([C:2]([C:3]1([C:4]([H:13])([H:14])[H:15])[C:5]([H:16])=[C:6]1[H:18])([H:11])[H:12])([H:8])([H:9])[H:10].[C:7]([H:17])([H:19])([H:20])[H:21]"
C        1.79928421      -0.71037579       0.94915041
C        1.14164248      -0.47468500      -0.40808450
C        0.18674319       0.70805719      -0.42916700
C        0.87000709       2.05579870      -0.32044655
C       -1.09916270       0.57974151      -1.19875407
C       -1.16984329       0.56084946       0.20243328
C       -1.98943653      -1.54795090       0.39414565
H        2.43018302      -1.60086166       0.93045626
H        2.41817786       0.13636448       1.25121622
H        1.03416662      -0.86394464       1.71512014
H        1.91210959      -0.32455096      -1.17253080
H        0.61017531      -1.37891699      -0.71245810
H        1.58639280       2.19169280      -1.13610228
H        1.41560764       2.15925291       0.62077111
H        0.14231598       2.86654724      -0.38091432
H       -1.49565233       1.23502733      -1.96033643
H       -1.81717311      -0.97457830      -1.12979489
H       -1.70841333       1.20529513       0.87934301
H       -1.71121948      -1.63712143       1.45153346
H       -1.49079618      -2.44701116       0.02169921
H       -3.06510884      -1.73862993       0.43272019
