13
Frame=0 idx=003285 GeodesicLength=0.0 rxn_smarts="[C:1]([C@@:2]1([C:5](=[O:6])[H:13])[C:3]([H:10])([H:11])[N:4]1[H:12])([H:7])([H:8])[H:9]>>[C-:5]#[O+:6].[C:1]([C:2](=[C:3]([H:10])[H:11])[N:4]([H:12])[H:13])([H:7])([H:8])[H:9]"
C        1.38427450      -0.54596524       0.17575416
C        0.02909489       0.10002498       0.02248392
C       -0.11308755       1.44259741       0.32559979
N       -0.44648396       0.05650833      -1.35404886
C       -1.15637610      -1.03090430       0.42371385
O       -2.08500259      -1.08846001       1.12371638
H        1.33571850      -1.58806174      -0.14332671
H        2.10663363      -0.03447210      -0.46242207
H        1.72113411      -0.51175597       1.21241710
H       -1.06921472       1.93045889       0.18203592
H        0.68644325       2.03978892       0.75277589
H       -1.36776205       0.49452243      -1.40696944
H       -1.02537190      -1.26428155      -0.85172994
13
Frame=1 idx=003285 GeodesicLength=0.0830825574115699 rxn_smarts="[C:1]([C@@:2]1([C:5](=[O:6])[H:13])[C:3]([H:10])([H:11])[N:4]1[H:12])([H:7])([H:8])[H:9]>>[C-:5]#[O+:6].[C:1]([C:2](=[C:3]([H:10])[H:11])[N:4]([H:12])[H:13])([H:7])([H:8])[H:9]"
C        1.39044412      -0.54655716       0.17418225
C        0.03358146       0.09637596       0.02914586
C       -0.11325622       1.44354621       0.31262681
N       -0.44250114       0.06912820      -1.34469277
C       -1.16821229      -1.04335503       0.43702246
O       -2.11469546      -1.07263124       1.11427365
H        1.34524771      -1.58833343      -0.14698469
H        2.11164089      -0.03571988      -0.46584899
H        1.73002413      -0.51169248       1.20988150
H       -1.07844360       1.92212215       0.20260510
H        0.68611347       2.04225159       0.73748797
H       -1.36739938       0.49674439      -1.40525730
H       -1.01254370      -1.27187930      -0.85444186
13
Frame=2 idx=003285 GeodesicLength=0.16600989542357186 rxn_smarts="[C:1]([C@@:2]1([C:5](=[O:6])[H:13])[C:3]([H:10])([H:11])[N:4]1[H:12])([H:7])([H:8])[H:9]>>[C-:5]#[O+:6].[C:1]([C:2](=[C:3]([H:10])[H:11])[N:4]([H:12])[H:13])([H:7])([H:8])[H:9]"
C        1.39645246      -0.54698169       0.17253227
C        0.03797590       0.09293951       0.03567165
C       -0.11383432       1.44426451       0.30019756
N       -0.43871914       0.08144277      -1.33530218
C       -1.18053654      -1.05565453       0.45066066
O       -2.14357656      -1.05737928       1.10454407
H        1.35458949      -1.58840531      -0.15069684
H        2.11644038      -0.03673652      -0.46930437
H        1.73873035      -0.51160708       1.20727015
H       -1.08635882       1.91422262       0.22250318
H        0.68552503       2.04445260       0.72249880
H       -1.36690812       0.49891158      -1.40378062
H       -0.99978010      -1.27946919      -0.85679435
13
Frame=3 idx=003285 GeodesicLength=0.2489134063379977 rxn_smarts="[C:1]([C@@:2]1([C:5](=[O:6])[H:13])[C:3]([H:10])([H:11])[N:4]1[H:12])([H:7])([H:8])[H:9]>>[C-:5]#[O+:6].[C:1]([C:2](=[C:3]([H:10])[H:11])[N:4]([H:12])[H:13])([H:7])([H:8])[H:9]"
C        1.40233124      -0.54726893       0.17079337
C        0.04230288       0.08971295       0.04205902
C       -0.11479142       1.44481246       0.28833918
N       -0.43509656       0.09347557      -1.32589304
C       -1.19336532      -1.06782862       0.46464867
O       -2.17177706      -1.04275981       1.09457190
H        1.36377351      -1.58833990      -0.15448320
H        2.12109505      -0.03754328      -0.47281100
H        1.74726445      -0.51152751       1.20457993
H       -1.09311137       1.90680884       0.24173039
H        0.68471869       2.04649216       0.70778535
H       -1.36626622       0.50105376      -1.40251931
H       -0.98707786      -1.28708770      -0.85880127
13
Frame=4 idx=003285 GeodesicLength=0.33178090355862355 rxn_smarts="[C:1]([C@@:2]1([C:5](=[O:6])[H:13])[C:3]([H:10])([H:11])[N:4]1[H:12])([H:7])([H:8])[H:9]>>[C-:5]#[O+:6].[C:1]([C:2](=[C:3]([H:10])[H:11])[N:4]([H:12])[H:13])([H:7])([H:8])[H:9]"
C        1.40809881      -0.54743149       0.16896902
C        0.04658265       0.08668422       0.04830316
C       -0.11609147       1.44518855       0.27703968
N       -0.43162143       0.10524840      -1.31647991
C       -1.20669106      -1.07987498       0.47898864
O       -2.19934406      -1.02870935       1.08436999
H        1.37281960      -1.58813846      -0.15834644
H        2.12562276      -0.03815865      -0.47636310
H        1.75564679      -0.51146987       1.20181652
H       -1.09884815       1.89983242       0.26033206
H        0.68372233       2.04837413       0.69331996
H       -1.36547267       0.50318395      -1.40146921
H       -0.97442409      -1.29472887      -0.86048036
13
Frame=5 idx=003285 GeodesicLength=0.4146073485896126 rxn_smarts="[C:1]([C@@:2]1([C:5](=[O:6])[H:13])[C:3]([H:10])([H:11])[N:4]1[H:12])([H:7])([H:8])[H:9]>>[C-:5]#[O+:6].[C:1]([C:2](=[C:3]([H:10])[H:11])[N:4]([H:12])[H:13])([H:7])([H:8])[H:9]"
C        1.41376902      -0.54747895       0.16705660
C        0.05083332       0.08384266       0.05439894
C       -0.11769874       1.44540299       0.26628440
N       -0.42827893       0.11677179      -1.30707385
C       -1.22051249      -1.09179455       0.49368547
O       -2.22632353      -1.01517454       1.07395022
H        1.38174160      -1.58780758      -0.16229648
H        2.13003903      -0.03859560      -0.47996063
H        1.76388968      -0.51144027       1.19897770
H       -1.10368624       1.89326216       0.27834315
H        0.68255553       2.05010926       0.67910387
H       -1.36452006       0.50530413      -1.40062262
H       -0.96180818      -1.30240149      -0.86184677
13
Frame=6 idx=003285 GeodesicLength=0.49739686240080816 rxn_smarts="[C:1]([C@@:2]1([C:5](=[O:6])[H:13])[C:3]([H:10])([H:11])[N:4]1[H:12])([H:7])([H:8])[H:9]>>[C-:5]#[O+:6].[C:1]([C:2](=[C:3]([H:10])[H:11])[N:4]([H:12])[H:13])([H:7])([H:8])[H:9]"
C        1.41935680      -0.54742051       0.16505225
C        0.05507241       0.08117955       0.06034245
C       -0.11958048       1.44546953       0.25605308
N       -0.42505525       0.12805614      -1.29768366
C       -1.23483017      -1.10358524       0.50875492
O       -2.25276833      -1.00211347       1.06330805
H        1.39055383      -1.58735595      -0.16633970
H        2.13435990      -0.03886705      -0.48360954
H        1.77200839      -0.51144316       1.19605902
H       -1.10773013       1.88706635       0.29580179
H        0.68123484       2.05171071       0.66513876
H       -1.36340231       0.50741853      -1.39997030
H       -0.94921950      -1.31011545      -0.86290710
13
Frame=7 idx=003285 GeodesicLength=0.5801533981463853 rxn_smarts="[C:1]([C@@:2]1([C:5](=[O:6])[H:13])[C:3]([H:10])([H:11])[N:4]1[H:12])([H:7])([H:8])[H:9]>>[C-:5]#[O+:6].[C:1]([C:2](=[C:3]([H:10])[H:11])[N:4]([H:12])[H:13])([H:7])([H:8])[H:9]"
C        1.42487627      -0.54726409       0.16295187
C        0.05931511       0.07868665       0.06612872
C       -0.12170737       1.44540122       0.24632153
N       -0.42193804       0.13911091      -1.28831993
C       -1.24964944      -1.11524357       0.52421175
O       -2.27871940      -0.98948405       1.05244722
H        1.39927039      -1.58679072      -0.17048318
H        2.13860097      -0.03898363      -0.48731475
H        1.78001611      -0.51148269       1.19305695
H       -1.11107023       1.88121612       0.31273966
H        0.67976923       2.05318543       0.65143756
H       -1.36211540       0.50952894      -1.39950699
H       -0.93664819      -1.31788050      -0.86367043
13
Frame=8 idx=003285 GeodesicLength=0.6628806253907589 rxn_smarts="[C:1]([C@@:2]1([C:5](=[O:6])[H:13])[C:3]([H:10])([H:11])[N:4]1[H:12])([H:7])([H:8])[H:9]>>[C-:5]#[O+:6].[C:1]([C:2](=[C:3]([H:10])[H:11])[N:4]([H:12])[H:13])([H:7])([H:8])[H:9]"
C        1.43034041      -0.54701651       0.16075130
C        0.06357521       0.07635657       0.07175358
C       -0.12405297       1.44521072       0.23706464
N       -0.41891615       0.14994499      -1.27899185
C       -1.26497787      -1.12676387       0.54007449
O       -2.30421473      -0.97725057       1.04136515
H        1.40790422      -1.58611823      -0.17473310
H        2.14277614      -0.03895467      -0.49108186
H        1.78792521      -0.51156180       1.18996758
H       -1.11378515       1.87568284       0.32918882
H        0.67816614       2.05454021       0.63801196
H       -1.36065608       0.51163680      -1.39922700
H       -0.92408438      -1.32570647      -0.86414371
13
Frame=9 idx=003285 GeodesicLength=0.7455810073816669 rxn_smarts="[C:1]([C@@:2]1([C:5](=[O:6])[H:13])[C:3]([H:10])([H:11])[N:4]1[H:12])([H:7])([H:8])[H:9]>>[C-:5]#[O+:6].[C:1]([C:2](=[C:3]([H:10])[H:11])[N:4]([H:12])[H:13])([H:7])([H:8])[H:9]"
C        1.43576090      -0.54668353       0.15844629
C        0.06786480       0.07418238       0.07721309
C       -0.12659368       1.44490953       0.22825732
N       -0.41597955       0.16056669      -1.26970804
C       -1.28082583      -1.13813911       0.55636314
O       -2.32928544      -0.96538122       1.03005890
H        1.41646717      -1.58534370      -0.17909586
H        2.14689768      -0.03878769      -0.49491595
H        1.79574645      -0.51168290       1.18678704
H       -1.11594279       1.87044040       0.34517743
H        0.67643054       2.05577977       0.62487614
H       -1.35902189       0.51374250      -1.39912542
H       -0.91151836      -1.33360312      -0.86433408
13
Frame=10 idx=003285 GeodesicLength=0.8282575840312181 rxn_smarts="[C:1]([C@@:2]1([C:5](=[O:6])[H:13])[C:3]([H:10])([H:11])[N:4]1[H:12])([H:7])([H:8])[H:9]>>[C-:5]#[O+:6].[C:1]([C:2](=[C:3]([H:10])[H:11])[N:4]([H:12])[H:13])([H:7])([H:8])[H:9]"
C        1.44114874      -0.54627036       0.15603308
C        0.07219507       0.07215804       0.08250394
C       -0.12930857       1.44450850       0.21987597
N       -0.41311873       0.17098526      -1.26047625
C       -1.29720647      -1.14935968       0.57309984
O       -2.35396149      -0.95385310       1.01852255
H        1.42497016      -1.58447212      -0.18357642
H        2.15097723      -0.03848990      -0.49882216
H        1.80348985      -0.51184811       1.18351196
H       -1.11760263       1.86546263       0.36073487
H        0.67456771       2.05691061       0.61203809
H       -1.35721084       0.51584749      -1.39919695
H       -0.89894002      -1.34157928      -0.86424851
13
Frame=11 idx=003285 GeodesicLength=0.9109124091836924 rxn_smarts="[C:1]([C@@:2]1([C:5](=[O:6])[H:13])[C:3]([H:10])([H:11])[N:4]1[H:12])([H:7])([H:8])[H:9]>>[C-:5]#[O+:6].[C:1]([C:2](=[C:3]([H:10])[H:11])[N:4]([H:12])[H:13])([H:7])([H:8])[H:9]"
C        1.44651379      -0.54578148       0.15350794
C        0.07657558       0.07027746       0.08762287
C       -0.13217931       1.44401689       0.21189808
N       -0.41032487       0.18120946      -1.25130399
C       -1.31413605      -1.16041547       0.59030695
O       -2.37826558      -0.94264485       1.00675323
H        1.43342379      -1.58350721      -0.18818144
H        2.15502546      -0.03806614      -0.50280384
H        1.81116326      -0.51206040       1.18013945
H       -1.11881657       1.86072634       0.37588558
H        0.67258098       2.05793718       0.59950811
H       -1.35522137       0.51795202      -1.39943737
H       -0.88633912      -1.34964381      -0.86389557
13
Frame=12 idx=003285 GeodesicLength=0.9935469935282925 rxn_smarts="[C:1]([C@@:2]1([C:5](=[O:6])[H:13])[C:3]([H:10])([H:11])[N:4]1[H:12])([H:7])([H:8])[H:9]>>[C-:5]#[O+:6].[C:1]([C:2](=[C:3]([H:10])[H:11])[N:4]([H:12])[H:13])([H:7])([H:8])[H:9]"
C        1.45186524      -0.54522075       0.15086710
C        0.08101533       0.06853522       0.09256735
C       -0.13518934       1.44344306       0.20430287
N       -0.40759007       0.19124816      -1.24219732
C       -1.33163242      -1.17129328       0.60801112
O       -2.40221974      -0.93174277       0.99474152
H        1.44183766      -1.58245217      -0.19291689
H        2.15905176      -0.03752073      -0.50686502
H        1.81877449      -0.51232238       1.17666619
H       -1.11962971       1.85620929       0.39065334
H        0.67047422       2.05886443       0.58729317
H       -1.35305238       0.52005690      -1.39984135
H       -0.87370505      -1.35780498      -0.86328208
13
Frame=13 idx=003285 GeodesicLength=1.0761627448725497 rxn_smarts="[C:1]([C@@:2]1([C:5](=[O:6])[H:13])[C:3]([H:10])([H:11])[N:4]1[H:12])([H:7])([H:8])[H:9]>>[C-:5]#[O+:6].[C:1]([C:2](=[C:3]([H:10])[H:11])[N:4]([H:12])[H:13])([H:7])([H:8])[H:9]"
C        1.45721162      -0.54459160       0.14810680
C        0.08552231       0.06692602       0.09733465
C       -0.13832400       1.44279424       0.19707060
N       -0.40490682       0.20111012      -1.23316228
C       -1.34971631      -1.18197829       0.62624021
O       -2.42584159      -0.92113621       0.98247987
H        1.45022129      -1.58130938      -0.19778990
H        2.16306525      -0.03685640      -0.51100838
H        1.82632972      -0.51263766       1.17308932
H       -1.12008186       1.85189103       0.40505898
H        0.66825034       2.05969649       0.57540055
H       -1.35070311       0.52216247      -1.40040419
H       -0.86102683      -1.36607082      -0.86241625
13
Frame=14 idx=003285 GeodesicLength=1.1587610089915696 rxn_smarts="[C:1]([C@@:2]1([C:5](=[O:6])[H:13])[C:3]([H:10])([H:11])[N:4]1[H:12])([H:7])([H:8])[H:9]>>[C-:5]#[O+:6].[C:1]([C:2](=[C:3]([H:10])[H:11])[N:4]([H:12])[H:13])([H:7])([H:8])[H:9]"
C        1.46256077      -0.54389727       0.14522356
C        0.09010333       0.06544431       0.10192127
C       -0.14157077       1.44207617       0.19018300
N       -0.40226746       0.21080440      -1.22420573
C       -1.36841225      -1.19245553       0.64502025
O       -2.44914186      -0.91081468       0.96996922
H        1.45858451      -1.58008045      -0.20280929
H        2.16707543      -0.03607390      -0.51523405
H        1.83383248      -0.51301171       1.16940715
H       -1.12020923       1.84775287       0.41911874
H        0.66591057       2.06043635       0.56383901
H       -1.34817276       0.52426846      -1.40112277
H       -0.84829276      -1.37444901      -0.86131036
13
Frame=15 idx=003285 GeodesicLength=1.2413427287320262 rxn_smarts="[C:1]([C@@:2]1([C:5](=[O:6])[H:13])[C:3]([H:10])([H:11])[N:4]1[H:12])([H:7])([H:8])[H:9]>>[C-:5]#[O+:6].[C:1]([C:2](=[C:3]([H:10])[H:11])[N:4]([H:12])[H:13])([H:7])([H:8])[H:9]"
C        1.46792019      -0.54314047       0.14221364
C        0.09476498       0.06408492       0.10632472
C       -0.14491810       1.44129373       0.18362382
N       -0.39966524       0.22033989      -1.21533272
C       -1.38774638      -1.20270590       0.66438317
O       -2.47213242      -0.90077511       0.95720124
H        1.46693648      -1.57876650      -0.20798356
H        2.17109048      -0.03517372      -0.51954339
H        1.84128717      -0.51344960       1.16561707
H       -1.12004358       1.84377691       0.43284924
H        0.66345754       2.06108755       0.55261359
H       -1.34546084       0.52637522      -1.40199242
H       -0.83549028      -1.38294692      -0.85997440
13
Frame=16 idx=003285 GeodesicLength=1.323909126435649 rxn_smarts="[C:1]([C@@:2]1([C:5](=[O:6])[H:13])[C:3]([H:10])([H:11])[N:4]1[H:12])([H:7])([H:8])[H:9]>>[C-:5]#[O+:6].[C:1]([C:2](=[C:3]([H:10])[H:11])[N:4]([H:12])[H:13])([H:7])([H:8])[H:9]"
C        1.47329727      -0.54232357       0.13907297
C        0.09951351       0.06284291       0.11054304
C       -0.14835530       1.44045104       0.17737867
N       -0.39709401       0.22972523      -1.20654725
C       -1.40774750      -1.21270626       0.68436580
O       -2.49482514      -0.89102065       0.94416224
H        1.47528617      -1.57736812      -0.21332173
H        2.17511815      -0.03415576      -0.52393834
H        1.84869867      -0.51395657       1.16171598
H       -1.11961302       1.83994660       0.44626621
H        0.66089448       2.06165371       0.54172776
H       -1.34256723       0.52848321      -1.40300774
H       -0.82260605      -1.39157178      -0.85841761
