17
Frame=0 idx=010179 GeodesicLength=0.0 rxn_smarts="[C:1]([C:2]([C:3]1([C:6]#[C:7][H:17])[C:4]([H:13])([H:14])[C:5]1([H:15])[H:16])([H:11])[H:12])([H:8])([H:9])[H:10]>>[C:1](=[C:2]([H:11])[H:12])([H:8])[H:9].[C:3]1(=[C:6]=[C:7]([H:10])[H:17])[C:4]([H:13])([H:14])[C:5]1([H:15])[H:16]"
C        2.00072905       0.67307903       0.39891315
C        1.24783765      -0.47384502       0.18814753
C       -0.77145627      -0.16823179      -0.15154528
C       -1.32443848      -1.20764989      -1.05769009
C       -1.59179951      -1.26469758       0.42637456
C       -0.87180602       1.17647789      -0.11018783
C       -0.19328238       2.22782990       0.06726942
H        2.63812388       1.04724249      -0.39371545
H        2.29740008       0.94036931       1.40659127
H        0.94370099       1.77477527       0.25816905
H        1.35872799      -0.99175237      -0.75658855
H        1.03285386      -1.10925804       1.03850787
H       -2.13117851      -0.92525290      -1.72098822
H       -0.63720641      -1.93940889      -1.46523615
H       -1.08190759      -2.03423643       0.99339748
H       -2.58278003      -1.01859333       0.78418054
H       -0.33351829       3.29315233       0.09440078
17
Frame=1 idx=010179 GeodesicLength=0.08027376886297023 rxn_smarts="[C:1]([C:2]([C:3]1([C:6]#[C:7][H:17])[C:4]([H:13])([H:14])[C:5]1([H:15])[H:16])([H:11])[H:12])([H:8])([H:9])[H:10]>>[C:1](=[C:2]([H:11])[H:12])([H:8])[H:9].[C:3]1(=[C:6]=[C:7]([H:10])[H:17])[C:4]([H:13])([H:14])[C:5]1([H:15])[H:16]"
C        2.01480468       0.67630376       0.38568243
C        1.25266942      -0.47339218       0.21107358
C       -0.77238999      -0.17196858      -0.14704249
C       -1.32656437      -1.19920229      -1.06697804
C       -1.60076141      -1.27094614       0.41498132
C       -0.87989480       1.17340563      -0.09636878
C       -0.20919349       2.23080114       0.07317723
H        2.64106167       1.02565104      -0.42739434
H        2.34967440       0.94744228       1.38049515
H        0.95337983       1.78503431       0.25504130
H        1.37086561      -1.02812659      -0.71183186
H        1.03606909      -1.07717527       1.08430626
H       -2.13048651      -0.90851905      -1.73016402
H       -0.64048895      -1.92843245      -1.48085248
H       -1.09576009      -2.04716160       0.97725916
H       -2.59340791      -1.02683525       0.76958326
H       -0.36957718       3.29312123       0.10903232
17
Frame=2 idx=010179 GeodesicLength=0.16019220571817022 rxn_smarts="[C:1]([C:2]([C:3]1([C:6]#[C:7][H:17])[C:4]([H:13])([H:14])[C:5]1([H:15])[H:16])([H:11])[H:12])([H:8])([H:9])[H:10]>>[C:1](=[C:2]([H:11])[H:12])([H:8])[H:9].[C:3]1(=[C:6]=[C:7]([H:10])[H:17])[C:4]([H:13])([H:14])[C:5]1([H:15])[H:16]"
C        2.02853338       0.67897342       0.37198475
C        1.25738519      -0.47258712       0.23446206
C       -0.77348650      -0.17556485      -0.14235303
C       -1.32815304      -1.19050459      -1.07625587
C       -1.60940303      -1.27732102       0.40335686
C       -0.88818981       1.17036361      -0.08207007
C       -0.22541118       2.23374701       0.07944704
H        2.64304311       1.00225920      -0.46110221
H        2.40174034       0.95333259       1.35240248
H        0.96326214       1.79534240       0.25128509
H        1.38212422      -1.06387611      -0.66480930
H        1.03879990      -1.04298333       1.12989470
H       -2.12923342      -0.89167201      -1.73930598
H       -0.64272340      -1.91662607      -1.49652279
H       -1.10901858      -2.06000258       0.96077931
H       -2.60383020      -1.03556670       0.75463523
H       -0.40543912       3.29268615       0.12417173
17
Frame=3 idx=010179 GeodesicLength=0.23976622177575746 rxn_smarts="[C:1]([C:2]([C:3]1([C:6]#[C:7][H:17])[C:4]([H:13])([H:14])[C:5]1([H:15])[H:16])([H:11])[H:12])([H:8])([H:9])[H:10]>>[C:1](=[C:2]([H:11])[H:12])([H:8])[H:9].[C:3]1(=[C:6]=[C:7]([H:10])[H:17])[C:4]([H:13])([H:14])[C:5]1([H:15])[H:16]"
C        2.04191198       0.68106513       0.35777604
C        1.26200082      -0.47138857       0.25821141
C       -0.77470847      -0.17900596      -0.13766487
C       -1.32915929      -1.18176584      -1.08547616
C       -1.61775676      -1.28363231       0.39155322
C       -0.89660303       1.16739045      -0.06786326
C       -0.24182764       2.23671836       0.08531867
H        2.64426260       0.97690624      -0.49468965
H        2.45325772       0.95803581       1.32233422
H        0.97342059       1.80571744       0.24639445
H        1.39251538      -1.09881210      -0.61564114
H        1.04109053      -1.00664873       1.17503578
H       -2.12732897      -0.87505705      -1.74849095
H       -0.64386296      -1.90434105      -1.51195473
H       -1.12177937      -2.07246623       0.94423357
H       -2.61408483      -1.04445630       0.73926912
H       -0.44134831       3.29174070       0.14165428
17
Frame=4 idx=010179 GeodesicLength=0.31905944544597187 rxn_smarts="[C:1]([C:2]([C:3]1([C:6]#[C:7][H:17])[C:4]([H:13])([H:14])[C:5]1([H:15])[H:16])([H:11])[H:12])([H:8])([H:9])[H:10]>>[C:1](=[C:2]([H:11])[H:12])([H:8])[H:9].[C:3]1(=[C:6]=[C:7]([H:10])[H:17])[C:4]([H:13])([H:14])[C:5]1([H:15])[H:16]"
C        2.05490494       0.68255585       0.34336534
C        1.26655645      -0.46979990       0.28218192
C       -0.77609288      -0.18230934      -0.13267213
C       -1.32970202      -1.17276238      -1.09457503
C       -1.62573542      -1.29012313       0.37966366
C       -0.90524107       1.16446740      -0.05303690
C       -0.25860199       2.23970055       0.09175770
H        2.64465910       0.94992964      -0.52767676
H        2.50407607       0.96110670       1.29074978
H        0.98375459       1.81614568       0.24105070
H        1.40198410      -1.13240051      -0.56483780
H        1.04322621      -0.96865923       1.21927113
H       -2.12499812      -0.85828182      -1.75746116
H       -0.64404645      -1.89121057      -1.52739040
H       -1.13384695      -2.08497311       0.92740306
H       -2.62404857      -1.05389562       0.72379413
H       -0.47684800       3.29050979       0.15841277
17
Frame=5 idx=010179 GeodesicLength=0.3979340235168125 rxn_smarts="[C:1]([C:2]([C:3]1([C:6]#[C:7][H:17])[C:4]([H:13])([H:14])[C:5]1([H:15])[H:16])([H:11])[H:12])([H:8])([H:9])[H:10]>>[C:1](=[C:2]([H:11])[H:12])([H:8])[H:9].[C:3]1(=[C:6]=[C:7]([H:10])[H:17])[C:4]([H:13])([H:14])[C:5]1([H:15])[H:16]"
C        2.06748750       0.68340079       0.32896105
C        1.27111256      -0.46777676       0.30619166
C       -0.77762110      -0.18549562      -0.12734343
C       -1.32986118      -1.16344365      -1.10342983
C       -1.63327263      -1.29672973       0.36773121
C       -0.91410411       1.16148237      -0.03760486
C       -0.27582031       2.24254723       0.09908168
H        2.64419644       0.92155553      -0.55963212
H        2.55403691       0.96214060       1.25794193
H        0.99417925       1.82648291       0.23567736
H        1.41057915      -1.16415420      -0.51283950
H        1.04550876      -0.92933690       1.26211493
H       -2.12238471      -0.84132220      -1.76601641
H       -0.64341208      -1.87715646      -1.54268832
H       -1.14510833      -2.09742519       0.91026029
H       -2.63361214      -1.06382379       0.70828069
H       -0.51190398       3.28905507       0.17331367
17
Frame=6 idx=010179 GeodesicLength=0.476470687837863 rxn_smarts="[C:1]([C:2]([C:3]1([C:6]#[C:7][H:17])[C:4]([H:13])([H:14])[C:5]1([H:15])[H:16])([H:11])[H:12])([H:8])([H:9])[H:10]>>[C:1](=[C:2]([H:11])[H:12])([H:8])[H:9].[C:3]1(=[C:6]=[C:7]([H:10])[H:17])[C:4]([H:13])([H:14])[C:5]1([H:15])[H:16]"
C        2.07975144       0.68370668       0.31455552
C        1.27570000      -0.46527788       0.32994222
C       -0.77922437      -0.18855638      -0.12213515
C       -1.32966391      -1.15432809      -1.11199635
C       -1.64052430      -1.30308902       0.35592017
C       -0.92298330       1.15857310      -0.02282525
C       -0.29319155       2.24548204       0.10523135
H        2.64363184       0.89173279      -0.59023047
H        2.60245953       0.96147358       1.22430430
H        1.00489101       1.83689363       0.22928423
H        1.41845897      -1.19393490      -0.46017770
H        1.04799056      -0.88891469       1.30322030
H       -2.11943442      -0.82496746      -1.77435334
H       -0.64207622      -1.86310192      -1.55736544
H       -1.15587953      -2.10928057       0.89343879
H       -2.64292301      -1.07353092       0.69274399
H       -0.54698275       3.28712002       0.19044280
17
Frame=7 idx=010179 GeodesicLength=0.5546123074583158 rxn_smarts="[C:1]([C:2]([C:3]1([C:6]#[C:7][H:17])[C:4]([H:13])([H:14])[C:5]1([H:15])[H:16])([H:11])[H:12])([H:8])([H:9])[H:10]>>[C:1](=[C:2]([H:11])[H:12])([H:8])[H:9].[C:3]1(=[C:6]=[C:7]([H:10])[H:17])[C:4]([H:13])([H:14])[C:5]1([H:15])[H:16]"
C        2.09170010       0.68354648       0.30078918
C        1.28044491      -0.46241566       0.35304529
C       -0.78093401      -0.19156249      -0.11664483
C       -1.32943070      -1.14507946      -1.12009155
C       -1.64737325      -1.30944674       0.34442676
C       -0.93199580       1.15559921      -0.00773958
C       -0.31091016       2.24843272       0.11120673
H        2.64303092       0.86144856      -0.61862952
H        2.64923828       0.95849423       1.19091406
H        1.01569638       1.84725456       0.22331058
H        1.42578465      -1.22105404      -0.40818581
H        1.05123678      -0.84871716       1.34187226
H       -2.11667239      -0.80863313      -1.78194099
H       -0.64051663      -1.84857036      -1.57168013
H       -1.16586653      -2.12100544       0.87666216
H       -2.65176319      -1.08340232       0.67774693
H       -0.58166938       3.28511104       0.20493847
17
Frame=8 idx=010179 GeodesicLength=0.6324873528942895 rxn_smarts="[C:1]([C:2]([C:3]1([C:6]#[C:7][H:17])[C:4]([H:13])([H:14])[C:5]1([H:15])[H:16])([H:11])[H:12])([H:8])([H:9])[H:10]>>[C:1](=[C:2]([H:11])[H:12])([H:8])[H:9].[C:3]1(=[C:6]=[C:7]([H:10])[H:17])[C:4]([H:13])([H:14])[C:5]1([H:15])[H:16]"
C        2.10337535       0.68279954       0.28685136
C        1.28521766      -0.45907836       0.37607268
C       -0.78267341      -0.19443954      -0.11131398
C       -1.32879088      -1.13597862      -1.12801122
C       -1.65392644      -1.31555217       0.33295167
C       -0.94105506       1.15273587       0.00664215
C       -0.32902860       2.25143018       0.11672031
H        2.64204331       0.82964269      -0.64601607
H        2.69463507       0.95391388       1.15654012
H        1.02675131       1.85765270       0.21624822
H        1.43253852      -1.24653337      -0.35523441
H        1.05472442      -0.80719196       1.37912853
H       -2.11350364      -0.79278669      -1.78946292
H       -0.63823836      -1.83405283      -1.58546881
H       -1.17539144      -2.13221250       0.86009823
H       -2.66034384      -1.09301153       0.66259087
H       -0.61633397       3.28266271       0.22166325
17
Frame=9 idx=010179 GeodesicLength=0.7099253883174684 rxn_smarts="[C:1]([C:2]([C:3]1([C:6]#[C:7][H:17])[C:4]([H:13])([H:14])[C:5]1([H:15])[H:16])([H:11])[H:12])([H:8])([H:9])[H:10]>>[C:1](=[C:2]([H:11])[H:12])([H:8])[H:9].[C:3]1(=[C:6]=[C:7]([H:10])[H:17])[C:4]([H:13])([H:14])[C:5]1([H:15])[H:16]"
C        2.11486160       0.68153076       0.27320610
C        1.29011087      -0.45524416       0.39874724
C       -0.78447741      -0.19725867      -0.10584577
C       -1.32804025      -1.12673837      -1.13555751
C       -1.66013193      -1.32156001       0.32158204
C       -0.95021886       1.14973968       0.02108114
C       -0.34756295       2.25422554       0.12208349
H        2.64098823       0.79687614      -0.67164155
H        2.73854284       0.94742356       1.12197346
H        1.03805747       1.86793280       0.20881824
H        1.43879117      -1.26971474      -0.30219694
H        1.05884394      -0.76513870       1.41439911
H       -2.11038607      -0.77702471      -1.79640790
H       -0.63567149      -1.81905008      -1.59884395
H       -1.18427509      -2.14311775       0.84342548
H       -2.66853293      -1.10269188       0.64761814
H       -0.65089914       3.27981058       0.23755919
17
Frame=10 idx=010179 GeodesicLength=0.7871794773907541 rxn_smarts="[C:1]([C:2]([C:3]1([C:6]#[C:7][H:17])[C:4]([H:13])([H:14])[C:5]1([H:15])[H:16])([H:11])[H:12])([H:8])([H:9])[H:10]>>[C:1](=[C:2]([H:11])[H:12])([H:8])[H:9].[C:3]1(=[C:6]=[C:7]([H:10])[H:17])[C:4]([H:13])([H:14])[C:5]1([H:15])[H:16]"
C        2.12623150       0.67987227       0.25988463
C        1.29512634      -0.45100261       0.42094347
C       -0.78631251      -0.20003080      -0.10043823
C       -1.32723870      -1.11763566      -1.14283155
C       -1.66607206      -1.32743274       0.31044480
C       -0.95939933       1.14680288       0.03508812
C       -0.36647816       2.25716793       0.12684656
H        2.64008012       0.76345815      -0.69556127
H        2.78084311       0.93916518       1.08759216
H        1.04967335       1.87833332       0.20099399
H        1.44468503      -1.29082043      -0.24949494
H        1.06361410      -0.72292556       1.44774635
H       -2.10735814      -0.76164702      -1.80299894
H       -0.63296043      -1.80412595      -1.61183026
H       -1.19267087      -2.15374297       0.82698016
H       -2.67639633      -1.11220371       0.63298824
H       -0.68536704       3.27676771       0.25364672
17
Frame=11 idx=010179 GeodesicLength=0.8642368541183943 rxn_smarts="[C:1]([C:2]([C:3]1([C:6]#[C:7][H:17])[C:4]([H:13])([H:14])[C:5]1([H:15])[H:16])([H:11])[H:12])([H:8])([H:9])[H:10]>>[C:1](=[C:2]([H:11])[H:12])([H:8])[H:9].[C:3]1(=[C:6]=[C:7]([H:10])[H:17])[C:4]([H:13])([H:14])[C:5]1([H:15])[H:16]"
C        2.13752976       0.67779051       0.24689760
C        1.30028641      -0.44637591       0.44273316
C       -0.78817219      -0.20277137      -0.09497161
C       -1.32642501      -1.10848798      -1.14982741
C       -1.67171346      -1.33324210       0.29948926
C       -0.96862734       1.14384850       0.04902832
C       -0.38585328       2.26014470       0.13137105
H        2.63923167       0.72942362      -0.71782137
H        2.82165077       0.92913049       1.05342567
H        1.06161840       1.88878014       0.19293725
H        1.45027423      -1.30993342      -0.19707595
H        1.06910555      -0.68059319       1.47928213
H       -2.10449588      -0.74637493      -1.80912734
H       -0.63016714      -1.78899683      -1.62455599
H       -1.20050965      -2.16422046       0.81054137
H       -2.68389269      -1.12169976       0.61871661
H       -0.71984016       3.27357800       0.26895725
17
Frame=12 idx=010179 GeodesicLength=0.9412100051235565 rxn_smarts="[C:1]([C:2]([C:3]1([C:6]#[C:7][H:17])[C:4]([H:13])([H:14])[C:5]1([H:15])[H:16])([H:11])[H:12])([H:8])([H:9])[H:10]>>[C:1](=[C:2]([H:11])[H:12])([H:8])[H:9].[C:3]1(=[C:6]=[C:7]([H:10])[H:17])[C:4]([H:13])([H:14])[C:5]1([H:15])[H:16]"
C        2.14883778       0.67531699       0.23417772
C        1.30557986      -0.44135587       0.46419391
C       -0.79005404      -0.20550058      -0.08945029
C       -1.32562044      -1.09930782      -1.15660724
C       -1.67710750      -1.33904848       0.28868111
C       -0.97788062       1.14088169       0.06295843
C       -0.40568204       2.26319281       0.13567250
H        2.63846933       0.69476478      -0.73857893
H        2.86106140       0.91748069       1.01947728
H        1.07400120       1.89933200       0.18454326
H        1.45556233      -1.32721680      -0.14482489
H        1.07528047      -0.63804656       1.50919142
H       -2.10180694      -0.73119876      -1.81486005
H       -0.62733127      -1.77368078      -1.63712069
H       -1.20787094      -2.17463722       0.79406162
H       -2.69108283      -1.13125321       0.60478334
H       -0.75435576       3.27027713       0.28370150
17
Frame=13 idx=010179 GeodesicLength=1.017671559657744 rxn_smarts="[C:1]([C:2]([C:3]1([C:6]#[C:7][H:17])[C:4]([H:13])([H:14])[C:5]1([H:15])[H:16])([H:11])[H:12])([H:8])([H:9])[H:10]>>[C:1](=[C:2]([H:11])[H:12])([H:8])[H:9].[C:3]1(=[C:6]=[C:7]([H:10])[H:17])[C:4]([H:13])([H:14])[C:5]1([H:15])[H:16]"
C        2.16013203       0.67239034       0.22190095
C        1.31106831      -0.43589592       0.48512686
C       -0.79192170      -0.20821444      -0.08397253
C       -1.32492117      -1.09003188      -1.16301134
C       -1.68215485      -1.34461334       0.27804002
C       -0.98716648       1.13773709       0.07663853
C       -0.42609470       2.26608943       0.13924766
H        2.63790574       0.65967060      -0.75739520
H        2.89887230       0.90408214       0.98617435
H        1.08669047       1.90964587       0.17573887
H        1.46078059      -1.34236007      -0.09312113
H        1.08231966      -0.59561467       1.53708947
H       -2.09946644      -0.71612045      -1.81995256
H       -0.62463557      -1.75812126      -1.64926605
H       -1.21458529      -2.18463173       0.77754997
H       -2.69780994      -1.14057031       0.59120358
H       -0.78901298       3.26655862       0.29800856
17
Frame=14 idx=010179 GeodesicLength=1.0940686491990705 rxn_smarts="[C:1]([C:2]([C:3]1([C:6]#[C:7][H:17])[C:4]([H:13])([H:14])[C:5]1([H:15])[H:16])([H:11])[H:12])([H:8])([H:9])[H:10]>>[C:1](=[C:2]([H:11])[H:12])([H:8])[H:9].[C:3]1(=[C:6]=[C:7]([H:10])[H:17])[C:4]([H:13])([H:14])[C:5]1([H:15])[H:16]"
C        2.17139331       0.66887283       0.20939354
C        1.31659177      -0.42995924       0.50620132
C       -0.79377756      -0.21086311      -0.07849041
C       -1.32395512      -1.08061934      -1.16935503
C       -1.68690359      -1.35015071       0.26728406
C       -0.99653161       1.13460527       0.09026306
C       -0.44711397       2.26896605       0.14307823
H        2.63683858       0.62323933      -0.77543372
H        2.93557305       0.88926025       0.95230137
H        1.09986784       1.91999568       0.16588317
H        1.46558573      -1.35618510      -0.04035492
H        1.08975604      -0.55193553       1.56398682
H       -2.09691858      -0.70102349      -1.82493351
H       -0.62150942      -1.74220924      -1.66128785
H       -1.22081173      -2.19451706       0.76081157
H       -2.70424302      -1.14997984       0.57748932
H       -0.82384172       3.26250326       0.31316295
17
Frame=15 idx=010179 GeodesicLength=1.1705386178828447 rxn_smarts="[C:1]([C:2]([C:3]1([C:6]#[C:7][H:17])[C:4]([H:13])([H:14])[C:5]1([H:15])[H:16])([H:11])[H:12])([H:8])([H:9])[H:10]>>[C:1](=[C:2]([H:11])[H:12])([H:8])[H:9].[C:3]1(=[C:6]=[C:7]([H:10])[H:17])[C:4]([H:13])([H:14])[C:5]1([H:15])[H:16]"
C        2.18275717       0.66489594       0.19685562
C        1.32219474      -0.42354604       0.52722002
C       -0.79564300      -0.21350350      -0.07302645
C       -1.32292046      -1.07119434      -1.17564316
C       -1.69145125      -1.35574086       0.25653489
C       -1.00593135       1.13149547       0.10383495
C       -0.46867859       2.27198174       0.14683606
H        2.63569046       0.58586122      -0.79240052
H        2.97107391       0.87310279       0.91845423
H        1.11365183       1.93045520       0.15502451
H        1.47008690      -1.36852128       0.01288802
H        1.09768897      -0.50747934       1.58967293
H       -2.09441279      -0.68602447      -1.82975390
H       -0.61823504      -1.72613722      -1.67329359
H       -1.22664738      -2.20441185       0.74394104
H       -2.71045952      -1.15952504       0.56390818
H       -0.85876460       3.25829159       0.32894717
17
Frame=16 idx=010179 GeodesicLength=1.2465671434302674 rxn_smarts="[C:1]([C:2]([C:3]1([C:6]#[C:7][H:17])[C:4]([H:13])([H:14])[C:5]1([H:15])[H:16])([H:11])[H:12])([H:8])([H:9])[H:10]>>[C:1](=[C:2]([H:11])[H:12])([H:8])[H:9].[C:3]1(=[C:6]=[C:7]([H:10])[H:17])[C:4]([H:13])([H:14])[C:5]1([H:15])[H:16]"
C        2.19415352       0.66028417       0.18450698
C        1.32796799      -0.41666343       0.54799514
C       -0.79745396      -0.21610418      -0.06756754
C       -1.32190680      -1.06148271      -1.18165948
C       -1.69558386      -1.36114125       0.24578120
C       -1.01537627       1.12818411       0.11739754
C       -0.49096383       2.27472232       0.15065264
H        2.63433124       0.54773438      -0.80782788
H        3.00524355       0.85524040       0.88496064
H        1.12789560       1.94059394       0.14351285
H        1.47447484      -1.37900936       0.06625152
H        1.10642214      -0.46265174       1.61370242
H       -2.09216340      -0.67085953      -1.83401677
H       -0.61499786      -1.70951630      -1.68505264
H       -1.23174718      -2.21396331       0.72678044
H       -2.71616133      -1.16898687       0.55048205
H       -0.89413438       3.25361936       0.34410089
