12
Frame=0 idx=005563 GeodesicLength=0.0 rxn_smarts="[C:1]1([H:7])([H:8])[O:2][C@:3]1([C@@:4]1([H:10])[C:5]([H:11])([H:12])[O:6]1)[H:9]>>[C-:1]([O+:2]=[C:3]([C@@:4]1([H:10])[C:5]([H:11])([H:12])[O:6]1)[H:9])([H:7])[H:8]"
C        1.82229362       0.50531306       0.71281872
O        1.76865904      -0.73725452       0.19369087
C        0.61547617      -0.70179580      -0.46665685
C       -0.62815401      -0.30496148       0.18341532
C       -1.76699660       0.29739261      -0.50652339
O       -1.77286401      -1.08295155      -0.17726654
H        2.21570996       0.58845148       1.71592642
H        1.79907377       1.33143684       0.02418338
H        0.59502264      -1.24672981      -1.40504093
H       -0.49215391      -0.08353554       1.24589361
H       -1.68834666       0.51813980      -1.56851956
H       -2.46772000       0.91649495       0.04807897
12
Frame=1 idx=005563 GeodesicLength=0.039995744751429814 rxn_smarts="[C:1]1([H:7])([H:8])[O:2][C@:3]1([C@@:4]1([H:10])[C:5]([H:11])([H:12])[O:6]1)[H:9]>>[C-:1]([O+:2]=[C:3]([C@@:4]1([H:10])[C:5]([H:11])([H:12])[O:6]1)[H:9])([H:7])[H:8]"
C        1.81389747       0.51036785       0.69301547
O        1.76762515      -0.74822962       0.21359911
C        0.61814385      -0.70878714      -0.45476470
C       -0.63324067      -0.32388321       0.18960305
C       -1.75686961       0.30824693      -0.49945946
O       -1.77917290      -1.07999291      -0.20647768
H        2.20568522       0.62224534       1.69401773
H        1.78882804       1.32963466      -0.00416874
H        0.60822107      -1.25608022      -1.39190594
H       -0.51137357      -0.12807861       1.25876328
H       -1.66128272       0.55649536      -1.55385669
H       -2.46046133       0.91806158       0.06163458
12
Frame=2 idx=005563 GeodesicLength=0.08026310274070313 rxn_smarts="[C:1]1([H:7])([H:8])[O:2][C@:3]1([C@@:4]1([H:10])[C:5]([H:11])([H:12])[O:6]1)[H:9]>>[C-:1]([O+:2]=[C:3]([C@@:4]1([H:10])[C:5]([H:11])([H:12])[O:6]1)[H:9])([H:7])[H:8]"
C        1.80552009       0.51512885       0.67291648
O        1.76665361      -0.75812521       0.23347527
C        0.62091932      -0.71584133      -0.44298322
C       -0.63821452      -0.34256888       0.19520616
C       -1.74640383       0.31913611      -0.49190103
O       -1.78472033      -1.07589519      -0.23562764
H        2.19408471       0.65545458       1.67168632
H        1.77826757       1.32770343      -0.03244437
H        0.62153915      -1.26631606      -1.37827662
H       -0.53079422      -0.17265500       1.27028904
H       -1.63382134       0.59447476      -1.53775894
H       -2.45303021       0.91950393       0.07541855
12
Frame=3 idx=005563 GeodesicLength=0.12104271147192373 rxn_smarts="[C:1]1([H:7])([H:8])[O:2][C@:3]1([C@@:4]1([H:10])[C:5]([H:11])([H:12])[O:6]1)[H:9]>>[C-:1]([O+:2]=[C:3]([C@@:4]1([H:10])[C:5]([H:11])([H:12])[O:6]1)[H:9])([H:7])[H:8]"
C        1.79685013       0.51973742       0.65242157
O        1.76561664      -0.76696310       0.25357843
C        0.62378857      -0.72324518      -0.43113529
C       -0.64311318      -0.36131420       0.20026301
C       -1.73538580       0.33023140      -0.48372825
O       -1.78947720      -1.07060886      -0.26521037
H        2.18085066       0.68865121       1.64853401
H        1.76707167       1.32555828      -0.06103623
H        0.63506176      -1.27770815      -1.36393237
H       -0.55055940      -0.21793264       1.28052513
H       -1.60552711       0.63269473      -1.51991722
H       -2.44517675       0.92089908       0.08963758
12
Frame=4 idx=005563 GeodesicLength=0.16202873909430318 rxn_smarts="[C:1]1([H:7])([H:8])[O:2][C@:3]1([C@@:4]1([H:10])[C:5]([H:11])([H:12])[O:6]1)[H:9]>>[C-:1]([O+:2]=[C:3]([C@@:4]1([H:10])[C:5]([H:11])([H:12])[O:6]1)[H:9])([H:7])[H:8]"
C        1.78835204       0.52399311       0.63168493
O        1.76455952      -0.77479049       0.27375915
C        0.62675403      -0.73054895      -0.41940959
C       -0.64789849      -0.37966883       0.20471596
C       -1.72414837       0.34128691      -0.47508845
O       -1.79340607      -1.06419414      -0.29463949
H        2.16620693       0.72120961       1.62501394
H        1.75582474       1.32315981      -0.08957165
H        0.64869460      -1.28975977      -1.34911967
H       -0.57056731      -0.26308937       1.28934290
H       -1.57706084       0.67033740      -1.50069632
H       -2.43731077       0.92206470       0.10400830
12
Frame=5 idx=005563 GeodesicLength=0.20348584493597402 rxn_smarts="[C:1]1([H:7])([H:8])[O:2][C@:3]1([C@@:4]1([H:10])[C:5]([H:11])([H:12])[O:6]1)[H:9]>>[C-:1]([O+:2]=[C:3]([C@@:4]1([H:10])[C:5]([H:11])([H:12])[O:6]1)[H:9])([H:7])[H:8]"
C        1.77981762       0.52801375       0.61058789
O        1.76344041      -0.78159771       0.29423228
C        0.62984493      -0.73799309      -0.40767472
C       -0.65261223      -0.39788327       0.20859221
C       -1.71253858       0.35246139      -0.46585789
O       -1.79650126      -1.05655838      -0.32431303
H        2.14999153       0.75360505       1.60082056
H        1.74432792       1.32042576      -0.11844228
H        0.66256920      -1.30276219      -1.33365035
H       -0.59098812      -0.30871156       1.29676359
H       -1.54805580       0.70792974      -1.47980456
H       -2.42929563       0.92307052       0.11874629
12
Frame=6 idx=005563 GeodesicLength=0.24552271204999693 rxn_smarts="[C:1]1([H:7])([H:8])[O:2][C@:3]1([C@@:4]1([H:10])[C:5]([H:11])([H:12])[O:6]1)[H:9]>>[C-:1]([O+:2]=[C:3]([C@@:4]1([H:10])[C:5]([H:11])([H:12])[O:6]1)[H:9])([H:7])[H:8]"
C        1.77122686       0.53183959       0.58900495
O        1.76229796      -0.78733057       0.31502138
C        0.63305100      -0.74566201      -0.39592015
C       -0.65729289      -0.41603955       0.21189815
C       -1.70046070       0.36380029      -0.45594201
O       -1.79877658      -1.04762599      -0.35438780
H        2.13193379       0.78608547       1.57595795
H        1.73263502       1.31728272      -0.14787701
H        0.67667912      -1.31685331      -1.31746753
H       -0.61196616      -0.35501799       1.30278648
H       -1.51829934       0.74560746      -1.45708701
H       -2.42102810       0.92391390       0.13401261
12
Frame=7 idx=005563 GeodesicLength=0.28832083116848706 rxn_smarts="[C:1]1([H:7])([H:8])[O:2][C@:3]1([C@@:4]1([H:10])[C:5]([H:11])([H:12])[O:6]1)[H:9]>>[C-:1]([O+:2]=[C:3]([C@@:4]1([H:10])[C:5]([H:11])([H:12])[O:6]1)[H:9])([H:7])[H:8]"
C        1.76229316       0.53558606       0.56694291
O        1.76086218      -0.79196648       0.33641593
C        0.63636459      -0.75368243      -0.38394139
C       -0.66192254      -0.43433695       0.21463096
C       -1.68777296       0.37540332      -0.44525695
O       -1.80013728      -1.03726337      -0.38525542
H        2.11201316       0.81901700       1.54987211
H        1.72054555       1.31353360      -0.17819693
H        0.69113561      -1.33222208      -1.30019556
H       -0.63345624      -0.40253283       1.30726616
H       -1.48749859       0.78398307      -1.43215526
H       -2.41242664       0.92448110       0.14987344
12
Frame=8 idx=005563 GeodesicLength=0.3316818228742055 rxn_smarts="[C:1]1([H:7])([H:8])[O:2][C@:3]1([C@@:4]1([H:10])[C:5]([H:11])([H:12])[O:6]1)[H:9]>>[C-:1]([O+:2]=[C:3]([C@@:4]1([H:10])[C:5]([H:11])([H:12])[O:6]1)[H:9])([H:7])[H:8]"
C        1.75344265       0.53906371       0.54448669
O        1.75925726      -0.79548872       0.35827332
C        0.63980356      -0.76172314      -0.37192754
C       -0.66652423      -0.45238793       0.21672732
C       -1.67479062       0.38708093      -0.43388274
O       -1.80051839      -1.02552762      -0.41643632
H        2.09048709       0.85189024       1.52297834
H        1.70860779       1.30918785      -0.20907596
H        0.70588139      -1.34848814      -1.28210456
H       -0.65557747      -0.45055514       1.31008833
H       -1.45620298       0.82224735      -1.40528300
H       -2.40386605       0.92470062       0.16615613
12
Frame=9 idx=005563 GeodesicLength=0.3755380729638586 rxn_smarts="[C:1]1([H:7])([H:8])[O:2][C@:3]1([C@@:4]1([H:10])[C:5]([H:11])([H:12])[O:6]1)[H:9]>>[C-:1]([O+:2]=[C:3]([C@@:4]1([H:10])[C:5]([H:11])([H:12])[O:6]1)[H:9])([H:7])[H:8]"
C        1.74480614       0.54218479       0.52171030
O        1.75739033      -0.79790852       0.38061384
C        0.64334602      -0.76964769      -0.35987918
C       -0.67107561      -0.47006806       0.21819039
C       -1.66160658       0.39877055      -0.42185303
O       -1.79980439      -1.01247236      -0.44782960
H        2.06749618       0.88457700       1.49524518
H        1.69702925       1.30421031      -0.24044473
H        0.72085444      -1.36546037      -1.26316458
H       -0.67831421      -0.49892244       1.31119652
H       -1.42464533       0.86025161      -1.37655442
H       -2.39547624       0.92448520       0.18276930
12
Frame=10 idx=005563 GeodesicLength=0.4199994623588729 rxn_smarts="[C:1]1([H:7])([H:8])[O:2][C@:3]1([C@@:4]1([H:10])[C:5]([H:11])([H:12])[O:6]1)[H:9]>>[C-:1]([O+:2]=[C:3]([C@@:4]1([H:10])[C:5]([H:11])([H:12])[O:6]1)[H:9])([H:7])[H:8]"
C        1.73629192       0.54502705       0.49864512
O        1.75517250      -0.79912665       0.40368635
C        0.64703405      -0.77748920      -0.34768466
C       -0.67559674      -0.48743735       0.21895923
C       -1.64828065       0.41050831      -0.40909337
O       -1.79796137      -0.99787510      -0.47961791
H        2.04324224       0.91726797       1.46633935
H        1.68583814       1.29838525      -0.27245549
H        0.73618609      -1.38329571      -1.24318012
H       -0.70174433      -0.54790543       1.31029970
H       -1.39276734       0.89822340      -1.34563012
H       -2.38741451       0.92371745       0.19973193
12
Frame=11 idx=005563 GeodesicLength=0.46528184194966093 rxn_smarts="[C:1]1([H:7])([H:8])[O:2][C@:3]1([C@@:4]1([H:10])[C:5]([H:11])([H:12])[O:6]1)[H:9]>>[C-:1]([O+:2]=[C:3]([C@@:4]1([H:10])[C:5]([H:11])([H:12])[O:6]1)[H:9])([H:7])[H:8]"
C        1.72775535       0.54761913       0.47511478
O        1.75249343      -0.79910480       0.42742457
C        0.65076531      -0.78533382      -0.33528774
C       -0.68015427      -0.50459062       0.21909668
C       -1.63459011       0.42228981      -0.39548633
O       -1.79489850      -0.98176960      -0.51201692
H        2.01735306       0.95017081       1.43612060
H        1.67507438       1.29163731      -0.30541071
H        0.75184122      -1.40197595      -1.22195711
H       -0.72601503      -0.59762234       1.30744724
H       -1.36015660       0.93639873      -1.31222142
H       -2.37946826       0.92228133       0.21717635
12
Frame=12 idx=005563 GeodesicLength=0.5112284257612065 rxn_smarts="[C:1]1([H:7])([H:8])[O:2][C@:3]1([C@@:4]1([H:10])[C:5]([H:11])([H:12])[O:6]1)[H:9]>>[C-:1]([O+:2]=[C:3]([C@@:4]1([H:10])[C:5]([H:11])([H:12])[O:6]1)[H:9])([H:7])[H:8]"
C        1.71945458       0.54988167       0.45125138
O        1.74934458      -0.79775164       0.45193069
C        0.65461197      -0.79302824      -0.32269947
C       -0.68470168      -0.52137229       0.21853683
C       -1.62081547       0.43407082      -0.38106649
O       -1.79053213      -0.96405235      -0.54483221
H        1.99011043       0.98310252       1.40454431
H        1.66506417       1.28385327      -0.33916666
H        0.76783725      -1.42140997      -1.19950072
H       -0.75110190      -0.64794284       1.30239160
H       -1.32728190       0.97450911      -1.27635719
H       -2.37198990       0.92013994       0.23496793
12
Frame=13 idx=005563 GeodesicLength=0.5575756990094576 rxn_smarts="[C:1]1([H:7])([H:8])[O:2][C@:3]1([C@@:4]1([H:10])[C:5]([H:11])([H:12])[O:6]1)[H:9]>>[C-:1]([O+:2]=[C:3]([C@@:4]1([H:10])[C:5]([H:11])([H:12])[O:6]1)[H:9])([H:7])[H:8]"
C        1.71162453       0.55173888       0.42722964
O        1.74570762      -0.79506069       0.47720221
C        0.65855557      -0.80037820      -0.30993140
C       -0.68927668      -0.53760502       0.21730204
C       -1.60724004       0.44571634      -0.36594776
O       -1.78489403      -0.94482028      -0.57786773
H        1.96223756       1.01575991       1.37166411
H        1.65604260       1.27503161      -0.37350095
H        0.78413591      -1.44127570      -1.17586437
H       -0.77698719      -0.69850045       1.29507372
H       -1.29454264       1.01225285      -1.23823162
H       -2.36536320       0.91714075       0.25287210
12
Frame=14 idx=005563 GeodesicLength=0.6045756561880059 rxn_smarts="[C:1]1([H:7])([H:8])[O:2][C@:3]1([C@@:4]1([H:10])[C:5]([H:11])([H:12])[O:6]1)[H:9]>>[C-:1]([O+:2]=[C:3]([C@@:4]1([H:10])[C:5]([H:11])([H:12])[O:6]1)[H:9])([H:7])[H:8]"
C        1.70399036       0.55325699       0.40304760
O        1.74126885      -0.79085849       0.50346574
C        0.66255131      -0.80742566      -0.29683614
C       -0.69389498      -0.55340015       0.21528978
C       -1.59378252       0.45727685      -0.34998884
O       -1.77770222      -0.92386208      -0.61141902
H        1.93402091       1.04843692       1.33695444
H        1.64796140       1.26497701      -0.40861918
H        0.80074447      -1.46178225      -1.15060784
H       -0.80376900      -0.74970404       1.28507830
H       -1.26179666       1.04995892      -1.19728633
H       -2.35959192       0.91312598       0.27092150
12
Frame=15 idx=005563 GeodesicLength=0.6520531435484418 rxn_smarts="[C:1]1([H:7])([H:8])[O:2][C@:3]1([C@@:4]1([H:10])[C:5]([H:11])([H:12])[O:6]1)[H:9]>>[C-:1]([O+:2]=[C:3]([C@@:4]1([H:10])[C:5]([H:11])([H:12])[O:6]1)[H:9])([H:7])[H:8]"
C        1.69683938       0.55424203       0.37869479
O        1.73612420      -0.78526499       0.53023495
C        0.66653015      -0.81400710      -0.28353045
C       -0.69844668      -0.56847444       0.21263570
C       -1.58050926       0.46854919      -0.33332165
O       -1.76892637      -0.90143182      -0.64483473
H        1.90518634       1.08048621       1.30074968
H        1.64075644       1.25380499      -0.44401149
H        0.81751897      -1.48235666      -1.12406247
H       -0.83119057      -0.80061506       1.27251424
H       -1.22928000       1.08688684      -1.15388796
H       -2.35460260       0.90818080       0.28881938
12
Frame=16 idx=005563 GeodesicLength=0.6999104825317772 rxn_smarts="[C:1]1([H:7])([H:8])[O:2][C@:3]1([C@@:4]1([H:10])[C:5]([H:11])([H:12])[O:6]1)[H:9]>>[C-:1]([O+:2]=[C:3]([C@@:4]1([H:10])[C:5]([H:11])([H:12])[O:6]1)[H:9])([H:7])[H:8]"
C        1.69024659       0.55479548       0.35423668
O        1.73026668      -0.77804686       0.55787027
C        0.67055655      -0.82017163      -0.26988457
C       -0.70306908      -0.58298010       0.20928505
C       -1.56767211       0.47958349      -0.31589858
O       -1.75864883      -0.87729007      -0.67849095
H        1.87650255       1.11223899       1.26276713
H        1.63468137       1.24134153      -0.48002386
H        0.83453641      -1.50324450      -1.09592594
H       -0.85944627      -0.85175436       1.25716530
H       -1.19708840       1.12342165      -1.10767612
H       -2.35086545       0.90210640       0.30657558
