19
Frame=0 idx=008074 GeodesicLength=0.0 rxn_smarts="[C:1]([C:2]([C@@:3]([O:4][H:14])([C@@:5]([C:6]([H:16])([H:17])[H:18])([O:7][H:19])[H:15])[H:13])([H:11])[H:12])([H:8])([H:9])[H:10]>>[C:1]([C:2]([C:3](=[O:4])[H:13])([H:11])[H:12])([H:8])([H:9])[H:10].[C:5]([C:6]([H:16])([H:17])[H:18])([O:7][H:19])([H:14])[H:15]"
C        2.34719683       0.18607646       1.53502366
C        0.89528467       0.44910881       1.14439935
C        0.65736315      -0.14832237      -0.21843957
O        0.75405005      -1.47887733      -0.34848696
C       -1.23299569       0.28866134      -0.57130314
C       -1.84204808      -0.26892388      -1.85056727
O       -2.03350229       0.13057249       0.55840330
H        2.55083703      -0.88457582       1.51831347
H        3.04108033       0.67469232       0.84697641
H        2.54811085       0.56363298       2.53799699
H        0.21877370      -0.02647619       1.85560708
H        0.67942340       1.52081565       1.13713762
H        1.06452165       0.45965698      -1.04565201
H       -0.36940792      -0.79464623      -0.55750801
H       -1.00646268       1.34668116      -0.67109792
H       -1.98948030      -1.35141177      -1.78604916
H       -2.80994805       0.20051970      -2.03253959
H       -1.18497900      -0.07533591      -2.69935812
H       -2.28781767      -0.79184843       0.64714392
19
Frame=1 idx=008074 GeodesicLength=0.10806821684380087 rxn_smarts="[C:1]([C:2]([C@@:3]([O:4][H:14])([C@@:5]([C:6]([H:16])([H:17])[H:18])([O:7][H:19])[H:15])[H:13])([H:11])[H:12])([H:8])([H:9])[H:10]>>[C:1]([C:2]([C:3](=[O:4])[H:13])([H:11])[H:12])([H:8])([H:9])[H:10].[C:5]([C:6]([H:16])([H:17])[H:18])([O:7][H:19])([H:14])[H:15]"
C        2.36276420       0.19786968       1.53414925
C        0.90625705       0.44215521       1.14945108
C        0.66296860      -0.15410638      -0.21365495
O        0.75791554      -1.48263411      -0.34362677
C       -1.23950287       0.27945033      -0.56965318
C       -1.84451467      -0.26279521      -1.85706017
O       -2.04859058       0.12676765       0.55620694
H        2.58077090      -0.87002019       1.51815214
H        3.04711507       0.69438850       0.84220256
H        2.56349155       0.57886667       2.53588304
H        0.23695848      -0.03968639       1.86348444
H        0.67821378       1.51150377       1.14372891
H        1.08016033       0.44842813      -1.03974939
H       -0.39243042      -0.82747227      -0.53184071
H       -1.01158805       1.33844417      -0.66463854
H       -2.00474799      -1.34378729      -1.80120290
H       -2.80624378       0.21747008      -2.04404530
H       -1.17930512      -0.07182188      -2.70011480
H       -2.34969202      -0.78302049       0.62232835
19
Frame=2 idx=008074 GeodesicLength=0.21581667256766118 rxn_smarts="[C:1]([C:2]([C@@:3]([O:4][H:14])([C@@:5]([C:6]([H:16])([H:17])[H:18])([O:7][H:19])[H:15])[H:13])([H:11])[H:12])([H:8])([H:9])[H:10]>>[C:1]([C:2]([C:3](=[O:4])[H:13])([H:11])[H:12])([H:8])([H:9])[H:10].[C:5]([C:6]([H:16])([H:17])[H:18])([O:7][H:19])([H:14])[H:15]"
C        2.37835162       0.20951572       1.53302013
C        0.91749650       0.43530895       1.15448579
C        0.66878587      -0.15923952      -0.20906868
O        0.76031368      -1.48584324      -0.33907242
C       -1.24623404       0.26978215      -0.56772503
C       -1.84657754      -0.25710791      -1.86335743
O       -2.06428730       0.12220756       0.55391480
H        2.61063314      -0.85542100       1.51703312
H        3.05306390       0.71420099       0.83750432
H        2.57891970       0.59338931       2.53371279
H        0.25565465      -0.05291063       1.87134498
H        0.67725293       1.50214922       1.15069439
H        1.09617281       0.43780755      -1.03383185
H       -0.41615968      -0.86033546      -0.50530862
H       -1.01740691       1.32986368      -0.65767782
H       -2.01890857      -1.33650052      -1.81626912
H       -2.80208744       0.23363772      -2.05549060
H       -1.17312857      -0.06857226      -2.70043171
H       -2.41185475      -0.77193231       0.59652296
19
Frame=3 idx=008074 GeodesicLength=0.323253910654114 rxn_smarts="[C:1]([C:2]([C@@:3]([O:4][H:14])([C@@:5]([C:6]([H:16])([H:17])[H:18])([O:7][H:19])[H:15])[H:13])([H:11])[H:12])([H:8])([H:9])[H:10]>>[C:1]([C:2]([C:3](=[O:4])[H:13])([H:11])[H:12])([H:8])([H:9])[H:10].[C:5]([C:6]([H:16])([H:17])[H:18])([O:7][H:19])([H:14])[H:15]"
C        2.39394684       0.22103517       1.53167569
C        0.92899170       0.42857727       1.15949407
C        0.67484887      -0.16371497      -0.20469102
O        0.76118732      -1.48850460      -0.33475643
C       -1.25318139       0.25963111      -0.56553673
C       -1.84829087      -0.25183840      -1.86946316
O       -2.08059968       0.11683875       0.55148786
H        2.64041427      -0.84075936       1.51500043
H        3.05892271       0.73416137       0.83294528
H        2.59436971       0.60722320       2.53153317
H        0.27484657      -0.06615184       1.87915788
H        0.67652981       1.49275548       1.15801945
H        1.11261550       0.42772323      -1.02794078
H       -0.44060377      -0.89326987      -0.47804603
H       -1.02390113       1.32091055      -0.65022075
H       -2.03205380      -1.32954247      -1.83126148
H       -2.79752831       0.24908623      -2.06684079
H       -1.16652900      -0.06556062      -2.70032679
H       -2.47398534      -0.75860023       0.56977012
19
Frame=4 idx=008074 GeodesicLength=0.43039579169084136 rxn_smarts="[C:1]([C:2]([C@@:3]([O:4][H:14])([C@@:5]([C:6]([H:16])([H:17])[H:18])([O:7][H:19])[H:15])[H:13])([H:11])[H:12])([H:8])([H:9])[H:10]>>[C:1]([C:2]([C:3](=[O:4])[H:13])([H:11])[H:12])([H:8])([H:9])[H:10].[C:5]([C:6]([H:16])([H:17])[H:18])([O:7][H:19])([H:14])[H:15]"
C        2.40953922       0.23245303       1.53015626
C        0.94073351       0.42196897       1.16446410
C        0.68119441      -0.16752882      -0.20053438
O        0.76049306      -1.49061302      -0.33061182
C       -1.26033528       0.24896728      -0.56310559
C       -1.84970963      -0.24695693      -1.87538274
O       -2.09753121       0.11061265       0.54888866
H        2.67010553      -0.82601116       1.51210771
H        3.06468981       0.75430016       0.82858659
H        2.60981652       0.62040097       2.52938959
H        0.29451867      -0.07940908       1.88689001
H        0.67603614       1.48332773       1.16568281
H        1.12954708       0.41809637      -1.02212002
H       -0.46578442      -0.92633375      -0.45018250
H       -1.03104758       1.31155044      -0.64227175
H       -2.04429279      -1.32289263      -1.84619918
H       -2.79260967       0.26389634      -2.07806214
H       -1.15958165      -0.06276226      -2.69981787
H       -2.53578174      -0.74306631       0.54212226
19
Frame=5 idx=008074 GeodesicLength=0.5372601152503368 rxn_smarts="[C:1]([C:2]([C@@:3]([O:4][H:14])([C@@:5]([C:6]([H:16])([H:17])[H:18])([O:7][H:19])[H:15])[H:13])([H:11])[H:12])([H:8])([H:9])[H:10]>>[C:1]([C:2]([C:3](=[O:4])[H:13])([H:11])[H:12])([H:8])([H:9])[H:10].[C:5]([C:6]([H:16])([H:17])[H:18])([O:7][H:19])([H:14])[H:15]"
C        2.42511920       0.24379875       1.52849732
C        0.95271427       0.41549447       1.16937891
C        0.68786108      -0.17068097      -0.19661191
O        0.75819593      -1.49215643      -0.32656766
C       -1.26768587       0.23775327      -0.56044321
C       -1.85088245      -0.24242727      -1.88111817
O       -2.11508491       0.10347697       0.54608382
H        2.69969996      -0.81114449       1.50841073
H        3.07036463       0.77464629       0.82448250
H        2.62523498       0.63296458       2.52731756
H        0.31465415      -0.09267380       1.89450300
H        0.67576561       1.47387092       1.17365270
H        1.14702912       0.40883727      -1.01641232
H       -0.49173779      -0.95960836      -0.42183825
H       -1.03882188       1.30173907      -0.63382553
H       -2.05574012      -1.31651593      -1.86110678
H       -2.78736052       0.27816452      -2.08911725
H       -1.15234750      -0.06015164      -2.69891398
H       -2.59697787      -0.72538720       0.51362850
19
Frame=6 idx=008074 GeodesicLength=0.6438705628485355 rxn_smarts="[C:1]([C:2]([C@@:3]([O:4][H:14])([C@@:5]([C:6]([H:16])([H:17])[H:18])([O:7][H:19])[H:15])[H:13])([H:11])[H:12])([H:8])([H:9])[H:10]>>[C:1]([C:2]([C:3](=[O:4])[H:13])([H:11])[H:12])([H:8])([H:9])[H:10].[C:5]([C:6]([H:16])([H:17])[H:18])([O:7][H:19])([H:14])[H:15]"
C        2.44067817       0.25510274       1.52673955
C        0.96492867       0.40916747       1.17422106
C        0.69489120      -0.17317039      -0.19294202
O        0.75426699      -1.49311465      -0.32255963
C       -1.27522173       0.22594994      -0.55756491
C       -1.85186222      -0.23821149      -1.88667603
O       -2.13325847       0.09539033       0.54303888
H        2.72918792      -0.79612893       1.50397751
H        3.07595093       0.79522536       0.82068902
H        2.64059931       0.64495995       2.52535919
H        0.33523521      -0.10593333       1.90195933
H        0.67571613       1.46439601       1.18189385
H        1.16512957       0.39985692      -1.01086429
H       -0.51851145      -0.99319339      -0.39313713
H       -1.04719369       1.29143126      -0.62488337
H       -2.06652438      -1.31037248      -1.87601517
H       -2.78181090       0.29199378      -2.09997086
H       -1.14489187      -0.05770682      -2.69763150
H       -2.65730938      -0.70564228       0.48436652
19
Frame=7 idx=008074 GeodesicLength=0.7502478652504068 rxn_smarts="[C:1]([C:2]([C@@:3]([O:4][H:14])([C@@:5]([C:6]([H:16])([H:17])[H:18])([O:7][H:19])[H:15])[H:13])([H:11])[H:12])([H:8])([H:9])[H:10]>>[C:1]([C:2]([C:3](=[O:4])[H:13])([H:11])[H:12])([H:8])([H:9])[H:10].[C:5]([C:6]([H:16])([H:17])[H:18])([O:7][H:19])([H:14])[H:15]"
C        2.45620819       0.26639753       1.52491655
C        0.97737333       0.40300882       1.17896444
C        0.70232676      -0.17500099      -0.18954208
O        0.74867553      -1.49345983      -0.31850934
C       -1.28293484       0.21350949      -0.55447655
C       -1.85269178      -0.23426174      -1.89205762
O       -2.15205602       0.08629497       0.53972304
H        2.75855425      -0.78092999       1.49888547
H        3.08145766       0.81604713       0.81724936
H        2.65588530       0.65644685       2.52353983
H        0.35623939      -0.11915167       1.90921526
H        0.67589423       1.45492030       1.19034912
H        1.18391985       0.39104733      -1.00551962
H       -0.54616705      -1.02720792      -0.36419804
H       -1.05613770       1.28057045      -0.61542580
H       -2.07676362      -1.30440504      -1.89096758
H       -2.77597728       0.30549874      -2.11057823
H       -1.13726342      -0.05539007      -2.69597359
H       -2.71654280      -0.68393437       0.45440539
19
Frame=8 idx=008074 GeodesicLength=0.8564320305093833 rxn_smarts="[C:1]([C:2]([C@@:3]([O:4][H:14])([C@@:5]([C:6]([H:16])([H:17])[H:18])([O:7][H:19])[H:15])[H:13])([H:11])[H:12])([H:8])([H:9])[H:10]>>[C:1]([C:2]([C:3](=[O:4])[H:13])([H:11])[H:12])([H:8])([H:9])[H:10].[C:5]([C:6]([H:16])([H:17])[H:18])([O:7][H:19])([H:14])[H:15]"
C        2.47170442       0.27771629       1.52306338
C        0.99004898       0.39705305       1.18358012
C        0.71020923      -0.17618190      -0.18643313
O        0.74137978      -1.49316761      -0.31432911
C       -1.29082159       0.20038413      -0.55117935
C       -1.85341170      -0.23052061      -1.89727150
O       -2.17149482       0.07612824       0.53611369
H        2.78777233      -0.76552192       1.49323276
H        3.08690839       0.83710408       0.81419502
H        2.67107350       0.66750154       2.52188467
H        0.37763614      -0.13226387       1.91623477
H        0.67632467       1.44548476       1.19894384
H        1.20348041       0.38228220      -1.00043025
H       -0.57478611      -1.06179371      -0.33514591
H       -1.06562715       1.26910609      -0.60541935
H       -2.08656966      -1.29855212      -1.90603311
H       -2.76987615       0.31880241      -2.12089160
H       -1.12950530      -0.05313952      -2.69395498
H       -2.77444535      -0.66042153       0.42384003
19
Frame=9 idx=008074 GeodesicLength=0.9623913552143121 rxn_smarts="[C:1]([C:2]([C@@:3]([O:4][H:14])([C@@:5]([C:6]([H:16])([H:17])[H:18])([O:7][H:19])[H:15])[H:13])([H:11])[H:12])([H:8])([H:9])[H:10]>>[C:1]([C:2]([C:3](=[O:4])[H:13])([H:11])[H:12])([H:8])([H:9])[H:10].[C:5]([C:6]([H:16])([H:17])[H:18])([O:7][H:19])([H:14])[H:15]"
C        2.48715025       0.28910006       1.52122343
C        1.00294427       0.39129906       1.18804115
C        0.71859683      -0.17672410      -0.18363949
O        0.73236868      -1.49217501      -0.30994977
C       -1.29885649       0.18651566      -0.54770916
C       -1.85408046      -0.22694654      -1.90231312
O       -2.19151216       0.06488148       0.53214813
H        2.81685883      -0.74984469       1.48708036
H        3.09228346       0.85845602       0.81160105
H        2.68610936       0.67815943       2.52043870
H        0.39940958      -0.14527795       1.92296149
H        0.67697241       1.43606956       1.20763057
H        1.22390813       0.37344104      -0.99562545
H       -0.60442409      -1.09708177      -0.30614211
H       -1.07560510       1.25695135      -0.59489814
H       -2.09610518      -1.29272699      -1.92122451
H       -2.76352506       0.33202488      -2.13085959
H       -1.12170004      -0.05096624      -2.69157119
H       -2.83079323      -0.63515523       0.39280766
19
Frame=10 idx=008074 GeodesicLength=1.0681993862790318 rxn_smarts="[C:1]([C:2]([C@@:3]([O:4][H:14])([C@@:5]([C:6]([H:16])([H:17])[H:18])([O:7][H:19])[H:15])[H:13])([H:11])[H:12])([H:8])([H:9])[H:10]>>[C:1]([C:2]([C:3](=[O:4])[H:13])([H:11])[H:12])([H:8])([H:9])[H:10].[C:5]([C:6]([H:16])([H:17])[H:18])([O:7][H:19])([H:14])[H:15]"
C        2.50255107       0.30057763       1.51941888
C        1.01607408       0.38583290       1.19229735
C        0.72751873      -0.17665709      -0.18117738
O        0.72157109      -1.49046515      -0.30522189
C       -1.30706261       0.17184624      -0.54402904
C       -1.85471224      -0.22343890      -1.90719128
O       -2.21218339       0.05240914       0.52783179
H        2.84573211      -0.73390440       1.48061278
H        3.09766095       0.87998565       0.80942898
H        2.70100137       0.68857409       2.51918122
H        0.42150138      -0.15800082       1.92937167
H        0.67793372       1.42679268       1.21624538
H        1.24528546       0.36432321      -0.99116765
H       -0.63520300      -1.13326085      -0.27732582
H       -1.08607703       1.24405550      -0.58373316
H       -2.10540727      -1.28683717      -1.93668938
H       -2.75693338       0.34530864      -2.14040451
H       -1.11385132      -0.04868839      -2.68882709
H       -2.88539972      -0.60845290       0.36137918
19
Frame=11 idx=008074 GeodesicLength=1.1738634555616538 rxn_smarts="[C:1]([C:2]([C@@:3]([O:4][H:14])([C@@:5]([C:6]([H:16])([H:17])[H:18])([O:7][H:19])[H:15])[H:13])([H:11])[H:12])([H:8])([H:9])[H:10]>>[C:1]([C:2]([C:3](=[O:4])[H:13])([H:11])[H:12])([H:8])([H:9])[H:10].[C:5]([C:6]([H:16])([H:17])[H:18])([O:7][H:19])([H:14])[H:15]"
C        2.51790357       0.31219547       1.51767333
C        1.02943935       0.38069874       1.19630357
C        0.73701827      -0.17602940      -0.17906125
O        0.70894581      -1.48799701      -0.30000194
C       -1.31544303       0.15630193      -0.54013429
C       -1.85533352      -0.21990920      -1.91190062
O       -2.23350119       0.03860449       0.52313437
H        2.87437555      -0.71766059       1.47395670
H        3.10306713       0.90167291       0.80767698
H        2.71572334       0.69886357       2.51810806
H        0.44387203      -0.17032250       1.93543064
H        0.67923244       1.41770464       1.22465544
H        1.26771352       0.35470486      -0.98709161
H       -0.66721628      -1.17051714      -0.24888516
H       -1.09701717       1.23032548      -0.57185022
H       -2.11456624      -1.28075795      -1.95252160
H       -2.75009950       0.35880631      -2.14944678
H       -1.10598911      -0.04619768      -2.68570141
H       -2.93812496      -0.58048693       0.32965580
19
Frame=12 idx=008074 GeodesicLength=1.2794052165061867 rxn_smarts="[C:1]([C:2]([C@@:3]([O:4][H:14])([C@@:5]([C:6]([H:16])([H:17])[H:18])([O:7][H:19])[H:15])[H:13])([H:11])[H:12])([H:8])([H:9])[H:10]>>[C:1]([C:2]([C:3](=[O:4])[H:13])([H:11])[H:12])([H:8])([H:9])[H:10].[C:5]([C:6]([H:16])([H:17])[H:18])([O:7][H:19])([H:14])[H:15]"
C        2.53320697       0.32399745       1.51600323
C        1.04304483       0.37596918       1.20000380
C        0.74712873      -0.17491236      -0.17730004
O        0.69443957      -1.48474144      -0.29410407
C       -1.32401641       0.13980990      -0.53600513
C       -1.85595811      -0.21623903      -1.91643589
O       -2.25549095       0.02331869       0.51803281
H        2.90274057      -0.70109582       1.46729448
H        3.10855687       0.92343425       0.80629704
H        2.73025881       0.70919609       2.51718906
H        0.46646139      -0.18205838       1.94111772
H        0.68092751       1.40890270       1.23267231
H        1.29129345       0.34429964      -0.98343280
H       -0.70057231      -1.20905725      -0.22103924
H       -1.10841463       1.21567213      -0.55912528
H       -2.12362493      -1.27434203      -1.96885901
H       -2.74302595       0.37268254      -2.15788531
H       -1.09812825      -0.04330545      -2.68216879
H       -2.98882717      -0.55153080       0.29774511
19
Frame=13 idx=008074 GeodesicLength=1.3848412118249658 rxn_smarts="[C:1]([C:2]([C@@:3]([O:4][H:14])([C@@:5]([C:6]([H:16])([H:17])[H:18])([O:7][H:19])[H:15])[H:13])([H:11])[H:12])([H:8])([H:9])[H:10]>>[C:1]([C:2]([C:3](=[O:4])[H:13])([H:11])[H:12])([H:8])([H:9])[H:10].[C:5]([C:6]([H:16])([H:17])[H:18])([O:7][H:19])([H:14])[H:15]"
C        2.54845906       0.33603837       1.51441977
C        1.05689097       0.37171723       1.20334066
C        0.75788139      -0.17340969      -0.17589855
O        0.67801026      -1.48067927      -0.28732323
C       -1.33280394       0.12228845      -0.53162598
C       -1.85659467      -0.21229472      -1.92078744
O       -2.27816314       0.00637566       0.51250263
H        2.93078550      -0.68418654       1.46081891
H        3.11418430       0.94519209       0.80521856
H        2.74458313       0.71977017       2.51638495
H        0.48920031      -0.19301208       1.94642564
H        0.68306966       1.40048968       1.24008833
H        1.31613341       0.33276157      -0.98021508
H       -0.73536907      -1.24910759      -0.19406156
H       -1.12025535       1.19999236      -0.54541672
H       -2.13262351      -1.26741442      -1.98584705
H       -2.73570654       0.38712259      -2.16560340
H       -1.09027771      -0.03980312      -2.67819371
H       -3.03740405      -0.52184073       0.26577328
19
Frame=14 idx=008074 GeodesicLength=1.4901925878560038 rxn_smarts="[C:1]([C:2]([C@@:3]([O:4][H:14])([C@@:5]([C:6]([H:16])([H:17])[H:18])([O:7][H:19])[H:15])[H:13])([H:11])[H:12])([H:8])([H:9])[H:10]>>[C:1]([C:2]([C:3](=[O:4])[H:13])([H:11])[H:12])([H:8])([H:9])[H:10].[C:5]([C:6]([H:16])([H:17])[H:18])([O:7][H:19])([H:14])[H:15]"
C        2.56366238       0.34836539       1.51291278
C        1.07098210       0.36805435       1.20624021
C        0.76928111      -0.17166527      -0.17484095
O        0.65959585      -1.47580864      -0.27937580
C       -1.34185549       0.10366695      -0.52695644
C       -1.85722553      -0.20789081      -1.92493628
O       -2.30159290      -0.01245002       0.50650922
H        2.95842800      -0.66694270       1.45479223
H        3.12003871       0.96677019       0.80429075
H        2.75869354       0.73085396       2.51560021
H        0.51199389      -0.20287403       1.95136740
H        0.68575688       1.39262871       1.24660867
H        1.34232329       0.31963425      -0.97744476
H       -0.77172041      -1.29089957      -0.16825802
H       -1.13255742       1.18318736      -0.53050606
H       -2.14150588      -1.25975476      -2.00368507
H       -2.72814150       0.40232477      -2.17245445
H       -1.08241313      -0.03535036      -2.67370878
H       -3.08374350      -0.49184979       0.23384516
19
Frame=15 idx=008074 GeodesicLength=1.5954790110936152 rxn_smarts="[C:1]([C:2]([C@@:3]([O:4][H:14])([C@@:5]([C:6]([H:16])([H:17])[H:18])([O:7][H:19])[H:15])[H:13])([H:11])[H:12])([H:8])([H:9])[H:10]>>[C:1]([C:2]([C:3](=[O:4])[H:13])([H:11])[H:12])([H:8])([H:9])[H:10].[C:5]([C:6]([H:16])([H:17])[H:18])([O:7][H:19])([H:14])[H:15]"
C        2.57881748       0.36104113       1.51146102
C        1.08531500       0.36508756       1.20862939
C        0.78132775      -0.16987085      -0.17410326
O        0.63916245      -1.47014673      -0.26996391
C       -1.35122525       0.08386421      -0.52196263
C       -1.85782350      -0.20282471      -1.92885258
O       -2.32583556      -0.03342662       0.50001324
H        2.98559834      -0.64936577       1.44948352
H        3.12620578       0.98800458       0.80332665
H        2.77257626       0.74275883       2.51472284
H        0.53473761      -0.21132877       1.95597675
H        0.68906967       1.38548487       1.25191919
H        1.36995102       0.30438263      -0.97510065
H       -0.80970783      -1.33468125      -0.14401085
H       -1.14534121       1.16513901      -0.51415017
H       -2.15021013      -1.25110766      -2.02257211
H       -2.72031636       0.41851300      -2.17827041
H       -1.07449573      -0.02958748      -2.66862293
H       -3.12780579      -0.46193596       0.20207689
19
Frame=16 idx=008074 GeodesicLength=1.7007220814605641 rxn_smarts="[C:1]([C:2]([C@@:3]([O:4][H:14])([C@@:5]([C:6]([H:16])([H:17])[H:18])([O:7][H:19])[H:15])[H:13])([H:11])[H:12])([H:8])([H:9])[H:10]>>[C:1]([C:2]([C:3](=[O:4])[H:13])([H:11])[H:12])([H:8])([H:9])[H:10].[C:5]([C:6]([H:16])([H:17])[H:18])([O:7][H:19])([H:14])[H:15]"
C        2.59392475       0.37413055       1.51002091
C        1.09988256       0.36294076       1.21042681
C        0.79399942      -0.16827137      -0.17364193
O        0.61668601      -1.46373284      -0.25874356
C       -1.36098693       0.06280334      -0.51660247
C       -1.85833815      -0.19685532      -1.93248972
O       -2.35097633      -0.05687405       0.49295736
H        3.01220838      -0.63147322       1.44520195
H        3.13278662       1.00867825       0.80206766
H        2.78622396       0.75585990       2.51359308
H        0.55730726      -0.21799500       1.96031136
H        0.69310325       1.37925508       1.25564516
H        1.39907952       0.28636361      -0.97312213
H       -0.84938733      -1.38070163      -0.12176481
H       -1.15865286       1.14572042      -0.49605045
H       -2.15860543      -1.24117147      -2.04272893
H       -2.71221329       0.43592729      -2.18285160
H       -1.06645598      -0.02206749      -2.66280315
H       -3.16958543      -0.43253680       0.17057445
