13
Frame=0 idx=002194 GeodesicLength=0.0 rxn_smarts="[C:1]([C:2](=[O:3])[C@@:4]1([H:10])[C:5]([H:11])([H:12])[N:6]1[H:13])([H:7])([H:8])[H:9]>>[C-:2]#[O+:3].[C:1]([N:6]([C:4](=[C:5]([H:11])[H:12])[H:10])[H:13])([H:7])([H:8])[H:9]"
C        1.74141508       0.04226708      -0.22881630
C        0.32385989       0.26143157       1.08277474
O        0.32715572       1.12596542       1.85538135
C       -0.72549616      -0.55390426       0.17155163
C       -2.03692630      -0.12787655      -0.01724904
N       -0.05368861      -0.16521980      -1.04412856
H        1.98962610       0.26364896      -1.27088820
H        2.08067643      -0.96714982      -0.00980905
H        2.29927714       0.76930660       0.36961986
H       -0.59726597      -1.61458692       0.37878592
H       -2.23812082       0.91775787      -0.21594296
H       -2.88808311      -0.78408135       0.10899211
H       -0.22242940       0.83244122      -1.18027156
13
Frame=1 idx=002194 GeodesicLength=0.09601494050816897 rxn_smarts="[C:1]([C:2](=[O:3])[C@@:4]1([H:10])[C:5]([H:11])([H:12])[N:6]1[H:13])([H:7])([H:8])[H:9]>>[C-:2]#[O+:3].[C:1]([N:6]([C:4](=[C:5]([H:11])[H:12])[H:10])[H:13])([H:7])([H:8])[H:9]"
C        1.73920551       0.02896819      -0.22610679
C        0.32795093       0.27306921       1.11242072
O        0.31849348       1.19112433       1.82070350
C       -0.72083638      -0.55865184       0.17553832
C       -2.03232390      -0.13805758      -0.02660412
N       -0.07479325      -0.14441475      -1.04249168
H        1.99540244       0.25702115      -1.26477614
H        2.06939083      -0.98674138      -0.01993695
H        2.31932072       0.73673513       0.37426818
H       -0.58288195      -1.62168922       0.36268788
H       -2.24634383       0.91259914      -0.18009803
H       -2.87734743      -0.80583262       0.07826527
H       -0.23523718       0.85587026      -1.16387015
13
Frame=2 idx=002194 GeodesicLength=0.19200631769257043 rxn_smarts="[C:1]([C:2](=[O:3])[C@@:4]1([H:10])[C:5]([H:11])([H:12])[N:6]1[H:13])([H:7])([H:8])[H:9]>>[C-:2]#[O+:3].[C:1]([N:6]([C:4](=[C:5]([H:11])[H:12])[H:10])[H:13])([H:7])([H:8])[H:9]"
C        1.73664938       0.01652064      -0.22325449
C        0.33155036       0.28641286       1.14195144
O        0.31139307       1.25040938       1.78638229
C       -0.71609150      -0.56305461       0.17893556
C       -2.02744994      -0.14706817      -0.03563460
N       -0.09565331      -0.12467711      -1.04091161
H        2.00137294       0.24982966      -1.25858843
H        2.05830681      -1.00475257      -0.02845356
H        2.33742180       0.70577773       0.37834936
H       -0.56869178      -1.62792799       0.34663485
H       -2.25438332       0.90639095      -0.14492142
H       -2.86619323      -0.82559124       0.04851211
H       -0.24823129       0.87773049      -1.14900149
13
Frame=3 idx=002194 GeodesicLength=0.2879910779951504 rxn_smarts="[C:1]([C:2](=[O:3])[C@@:4]1([H:10])[C:5]([H:11])([H:12])[N:6]1[H:13])([H:7])([H:8])[H:9]>>[C-:2]#[O+:3].[C:1]([N:6]([C:4](=[C:5]([H:11])[H:12])[H:10])[H:13])([H:7])([H:8])[H:9]"
C        1.73382669       0.00481706      -0.22028337
C        0.33475657       0.30123991       1.17133691
O        0.30547489       1.30464513       1.75259003
C       -0.71125774      -0.56718733       0.18169523
C       -2.02235644      -0.15502215      -0.04429136
N       -0.11630854      -0.10592430      -1.03948479
H        2.00755879       0.24218227      -1.25232613
H        2.04748841      -1.02141688      -0.03562986
H        2.35383359       0.67621928       0.38201862
H       -0.55470817      -1.63343634       0.33049651
H       -2.26217151       0.89918304      -0.11040475
H       -2.85471972      -0.84349961       0.01985758
H       -0.26141684       0.89819991      -1.13557462
13
Frame=4 idx=002194 GeodesicLength=0.3839795654754493 rxn_smarts="[C:1]([C:2](=[O:3])[C@@:4]1([H:10])[C:5]([H:11])([H:12])[N:6]1[H:13])([H:7])([H:8])[H:9]>>[C-:2]#[O+:3].[C:1]([N:6]([C:4](=[C:5]([H:11])[H:12])[H:10])[H:13])([H:7])([H:8])[H:9]"
C        1.73080297      -0.00623452      -0.21720991
C        0.33764886       0.31739125       1.20056807
O        0.30045465       1.35451839       1.71939367
C       -0.70633091      -0.57110904       0.18379190
C       -2.01709195      -0.16202405      -0.05252553
N       -0.13679850      -0.08807908      -1.03827422
H        2.01397838       0.23417103      -1.24597951
H        2.03697207      -1.03692839      -0.04168726
H        2.36877034       0.64786351       0.38541035
H       -0.54093956      -1.63832297       0.31416660
H       -2.26964621       0.89102887      -0.07651344
H       -2.84301805      -0.85970536      -0.00764686
H       -0.27480208       0.91743035      -1.12349386
13
Frame=5 idx=002194 GeodesicLength=0.47997084953405966 rxn_smarts="[C:1]([C:2](=[O:3])[C@@:4]1([H:10])[C:5]([H:11])([H:12])[N:6]1[H:13])([H:7])([H:8])[H:9]>>[C-:2]#[O+:3].[C:1]([N:6]([C:4](=[C:5]([H:11])[H:12])[H:10])[H:13])([H:7])([H:8])[H:9]"
C        1.72763306      -0.01671058      -0.21404414
C        0.34029017       0.33475471       1.22964055
O        0.29611164       1.40058441       1.68680488
C       -0.70130612      -0.57486742       0.18520657
C       -2.01169985      -0.16816873      -0.06030196
N       -0.15715938      -0.07107201      -1.03732309
H        2.02065080       0.22587785      -1.23952759
H        2.02677865      -1.05144558      -0.04680855
H        2.38240978       0.62053479       0.38864442
H       -0.52738921      -1.64267555       0.29755059
H       -2.27675118       0.88198158      -0.04321943
H       -2.83117235      -0.87434250      -0.03395428
H       -0.28839601       0.93554903      -1.11266796
13
Frame=6 idx=002194 GeodesicLength=0.5759719209883974 rxn_smarts="[C:1]([C:2](=[O:3])[C@@:4]1([H:10])[C:5]([H:11])([H:12])[N:6]1[H:13])([H:7])([H:8])[H:9]>>[C-:2]#[O+:3].[C:1]([N:6]([C:4](=[C:5]([H:11])[H:12])[H:10])[H:13])([H:7])([H:8])[H:9]"
C        1.72436608      -0.02667414      -0.21079482
C        0.34273378       0.35325690       1.25855564
O        0.29226408       1.44330458       1.65481485
C       -0.69618014      -0.57850519       0.18592519
C       -2.00621943      -0.17354467      -0.06759737
N       -0.17742266      -0.05484386      -1.03666483
H        2.02760071       0.21738211      -1.23294831
H        2.01691738      -1.06510230      -0.05115476
H        2.39490323       0.59407383       0.39183299
H       -0.51406303      -1.64657301       0.28056600
H       -2.28343155       0.87209584      -0.01050128
H       -2.81926396      -0.88753312      -0.05901604
H       -0.30220449       0.95266303      -1.10301726
13
Frame=7 idx=002194 GeodesicLength=0.6719827590146089 rxn_smarts="[C:1]([C:2](=[O:3])[C@@:4]1([H:10])[C:5]([H:11])([H:12])[N:6]1[H:13])([H:7])([H:8])[H:9]>>[C-:2]#[O+:3].[C:1]([N:6]([C:4](=[C:5]([H:11])[H:12])[H:10])[H:13])([H:7])([H:8])[H:9]"
C        1.72104238      -0.03618041      -0.20746731
C        0.34502449       0.37285300       1.28731640
O        0.28877835       1.48305908       1.62339554
C       -0.69094978      -0.58205788       0.18593844
C       -2.00068506      -0.17823089      -0.07439179
N       -0.19762050      -0.03934095      -1.03631968
H        2.03484985       0.20874287      -1.22621669
H        2.00739071      -1.07800953      -0.05485291
H        2.40637233       0.56834795       0.39506653
H       -0.50096344      -1.65007973       0.26313861
H       -2.28963743       0.86142626       0.02167499
H       -2.80736488      -0.89939352      -0.08281761
H       -0.31623702       0.96886377      -1.09446452
13
Frame=8 idx=002194 GeodesicLength=0.7680048532018613 rxn_smarts="[C:1]([C:2](=[O:3])[C@@:4]1([H:10])[C:5]([H:11])([H:12])[N:6]1[H:13])([H:7])([H:8])[H:9]>>[C-:2]#[O+:3].[C:1]([N:6]([C:4](=[C:5]([H:11])[H:12])[H:10])[H:13])([H:7])([H:8])[H:9]"
C        1.71769866      -0.04527739      -0.20406589
C        0.34720239       0.39352070       1.31592656
O        0.28554224       1.52016558       1.59251393
C       -0.68561307      -0.58555733       0.18523690
C       -1.99512718      -0.18229985      -0.08067286
N       -0.21778235      -0.02451524      -1.03630187
H        2.04242385       0.20001094      -1.21930689
H        1.99819716      -1.09026288      -0.05801273
H        2.41691980       0.54324053       0.39842600
H       -0.48809348      -1.65325225       0.24519760
H       -2.29532381       0.85002665       0.05333918
H       -2.79554254      -0.91003046      -0.10534135
H       -0.33050166       0.98423098      -1.08693860
13
Frame=9 idx=002194 GeodesicLength=0.8640307550576973 rxn_smarts="[C:1]([C:2](=[O:3])[C@@:4]1([H:10])[C:5]([H:11])([H:12])[N:6]1[H:13])([H:7])([H:8])[H:9]>>[C-:2]#[O+:3].[C:1]([N:6]([C:4](=[C:5]([H:11])[H:12])[H:10])[H:13])([H:7])([H:8])[H:9]"
C        1.71436153      -0.05400589      -0.20059392
C        0.34930758       0.41525031       1.34438907
O        0.28245299       1.55487951       1.56214604
C       -0.68016574      -0.58903060       0.18380864
C       -1.98956340      -0.18581688      -0.08643570
N       -0.23793599      -0.01032388      -1.03662324
H        2.05034196       0.19123399      -1.21219197
H        1.98932517      -1.10194132      -0.06073342
H        2.42662405       0.51864455       0.40198714
H       -0.47545346      -1.65613479       0.22667491
H       -2.30044068       0.83795218       0.08448992
H       -2.78384983      -0.91953897      -0.12654194
H       -0.34500418       0.99883179      -1.08037552
13
Frame=10 idx=002194 GeodesicLength=0.9600639591079251 rxn_smarts="[C:1]([C:2](=[O:3])[C@@:4]1([H:10])[C:5]([H:11])([H:12])[N:6]1[H:13])([H:7])([H:8])[H:9]>>[C-:2]#[O+:3].[C:1]([N:6]([C:4](=[C:5]([H:11])[H:12])[H:10])[H:13])([H:7])([H:8])[H:9]"
C        1.71105936      -0.06240556      -0.19705096
C        0.35136572       0.43805660       1.37270834
O        0.27946264       1.58744065       1.53223710
C       -0.67460979      -0.59250797       0.18164391
C       -1.98402171      -0.18884470      -0.09167394
N       -0.25811005       0.00327109      -1.03728570
H        2.05863217       0.18244243      -1.20484151
H        1.98077209      -1.11311614      -0.06308238
H        2.43555236       0.49447832       0.40580966
H       -0.46304794      -1.65877445       0.20750038
H       -2.30494663       0.82524761       0.11520167
H       -2.77234980      -0.92801291      -0.14645405
H       -0.35975843       1.01272504      -1.07471252
13
Frame=11 idx=002194 GeodesicLength=1.0560981285239552 rxn_smarts="[C:1]([C:2](=[O:3])[C@@:4]1([H:10])[C:5]([H:11])([H:12])[N:6]1[H:13])([H:7])([H:8])[H:9]>>[C-:2]#[O+:3].[C:1]([N:6]([C:4](=[C:5]([H:11])[H:12])[H:10])[H:13])([H:7])([H:8])[H:9]"
C        1.70781224      -0.07051063      -0.19343678
C        0.35340928       0.46196073       1.40088513
O        0.27650782       1.61803753       1.50275111
C       -0.66894382      -0.59601379       0.17872700
C       -1.97851518      -0.19143899      -0.09638874
N       -0.27833133       0.01630482      -1.03829287
H        2.06731730       0.17366921      -1.19722317
H        1.97252484      -1.12384783      -0.06513004
H        2.44375626       0.47065781       0.40995620
H       -0.45087762      -1.66120453       0.18760350
H       -2.30879747       0.81195832       0.14549775
H       -2.76108853      -0.93553459      -0.16505590
H       -0.37477380       1.02596194      -1.06989321
13
Frame=12 idx=002194 GeodesicLength=1.1521335408225108 rxn_smarts="[C:1]([C:2](=[O:3])[C@@:4]1([H:10])[C:5]([H:11])([H:12])[N:6]1[H:13])([H:7])([H:8])[H:9]>>[C-:2]#[O+:3].[C:1]([N:6]([C:4](=[C:5]([H:11])[H:12])[H:10])[H:13])([H:7])([H:8])[H:9]"
C        1.70463716      -0.07835443      -0.18974973
C        0.35546806       0.48699853       1.42892240
O        0.27354523       1.64683905       1.47364962
C       -0.66316793      -0.59957261       0.17504087
C       -1.97305581      -0.19365210      -0.10058102
N       -0.29862726       0.02881143      -1.03964609
H        2.07642015       0.16493651      -1.18930527
H        1.96457020      -1.13419291      -0.06693210
H        2.45127544       0.44711181       0.41448210
H       -0.43894340      -1.66345657       0.16691234
H       -2.31195128       0.79812434       0.17541905
H       -2.75010812      -0.94218460      -0.18234833
H       -0.39006244       1.03859153      -1.06586384
13
Frame=13 idx=002194 GeodesicLength=1.248168634598301 rxn_smarts="[C:1]([C:2](=[O:3])[C@@:4]1([H:10])[C:5]([H:11])([H:12])[N:6]1[H:13])([H:7])([H:8])[H:9]>>[C-:2]#[O+:3].[C:1]([N:6]([C:4](=[C:5]([H:11])[H:12])[H:10])[H:13])([H:7])([H:8])[H:9]"
C        1.70154739      -0.08596873      -0.18598675
C        0.35757107       0.51321690       1.45682073
O        0.27054019       1.67399084       1.44489444
C       -0.65728282      -0.60320788       0.17056430
C       -1.96765194      -0.19553281      -0.10425360
N       -0.31902517       0.04082346      -1.04134493
H        2.08596308       0.15626215      -1.18105307
H        1.95689350      -1.14420227      -0.06853682
H        2.45813852       0.42377440       0.41944019
H       -0.42724550      -1.66555629       0.14535159
H       -2.31436543       0.78378033       0.20500779
H       -2.73944517      -0.94803828      -0.19833115
H       -0.40563771       1.05065817      -1.06257274
13
Frame=14 idx=002194 GeodesicLength=1.3442029441569243 rxn_smarts="[C:1]([C:2](=[O:3])[C@@:4]1([H:10])[C:5]([H:11])([H:12])[N:6]1[H:13])([H:7])([H:8])[H:9]>>[C-:2]#[O+:3].[C:1]([N:6]([C:4](=[C:5]([H:11])[H:12])[H:10])[H:13])([H:7])([H:8])[H:9]"
C        1.69855259      -0.09338481      -0.18214332
C        0.35974767       0.54067589       1.48457863
O        0.26746720       1.69962207       1.41644695
C       -0.65128969      -0.60694219       0.16527257
C       -1.96230866      -0.19712722      -0.10740910
N       -0.33955330       0.05237278      -1.04338740
H        2.09596748       0.14765886      -1.17242921
H        1.94947812      -1.15392362      -0.06998565
H        2.46436442       0.40058306       0.42488187
H       -0.41578330      -1.66752444       0.12284262
H       -2.31599704       0.76895353       0.23431324
H       -2.72912980      -0.95316750      -0.21301128
H       -0.42151569       1.06220360      -1.05996991
13
Frame=15 idx=002194 GeodesicLength=1.4402351809432956 rxn_smarts="[C:1]([C:2](=[O:3])[C@@:4]1([H:10])[C:5]([H:11])([H:12])[N:6]1[H:13])([H:7])([H:8])[H:9]>>[C-:2]#[O+:3].[C:1]([N:6]([C:4](=[C:5]([H:11])[H:12])[H:10])[H:13])([H:7])([H:8])[H:9]"
C        1.69565833      -0.10063316      -0.17821380
C        0.36203161       0.56944590       1.51219139
O        0.26430227       1.72384354       1.38827264
C       -0.64518978      -0.61079720       0.15913625
C       -1.95702649      -0.19847860      -0.11005068
N       -0.36024084       0.06348976      -1.04577075
H        2.10645264       0.13913687      -1.16339278
H        1.94230523      -1.16340088      -0.07131684
H        2.46996210       0.37747686       0.43085860
H       -0.40455497      -1.66937584       0.09930363
H       -2.31680017       0.75366635       0.26338083
H       -2.71918587      -0.95763942      -0.22639133
H       -0.43771406       1.07326582      -1.05800715
13
Frame=16 idx=002194 GeodesicLength=1.5362643782187417 rxn_smarts="[C:1]([C:2](=[O:3])[C@@:4]1([H:10])[C:5]([H:11])([H:12])[N:6]1[H:13])([H:7])([H:8])[H:9]>>[C-:2]#[O+:3].[C:1]([N:6]([C:4](=[C:5]([H:11])[H:12])[H:10])[H:13])([H:7])([H:8])[H:9]"
C        1.69286700      -0.10774457      -0.17419049
C        0.36445351       0.59961021       1.53965157
O        0.26103227       1.74675515       1.36033523
C       -0.63898573      -0.61479507       0.15211995
C       -1.95180381      -0.19962848      -0.11218130
N       -0.38111742       0.07420528      -1.04849211
H        2.11743820       0.13070109      -1.15389937
H        1.93535540      -1.17267636      -0.07256106
H        2.47493066       0.35439896       0.43742137
H       -0.39355872      -1.67112185       0.07464531
H       -2.31672582       0.73793184       0.29226718
H       -2.70963275      -0.96151856      -0.23847886
H       -0.45425279       1.08388236      -1.05663744
