11
Frame=0 idx=003138 GeodesicLength=0.0 rxn_smarts="[c:1]1([H:7])[c:2]([H:8])[c:3]([H:9])[n:4][c:5]([H:10])[c:6]1[H:11]>>[C:1]1([H:7])=[C:2]([H:8])[C@:3]2([H:9])[N:4]=[C:5]([H:10])[C@:6]12[H:11]"
C       -0.36407059       1.17096666      -0.01642922
C       -1.36125902       0.35382392       0.37647591
C       -0.73566355      -0.86221812      -0.11800963
N        0.13791097      -1.51221032       0.71738477
C        1.15734642      -0.81624315       0.27595005
C        0.78735708       0.37411632      -0.46020559
H       -0.33593842       2.25486704       0.03159632
H       -2.18782926       0.48818462       1.05639731
H       -0.78113962      -1.14113959      -1.16932395
H        2.18678832      -1.11656796       0.46623171
H        1.49649766       0.80642058      -1.16006767
11
Frame=1 idx=003138 GeodesicLength=0.04092279814675568 rxn_smarts="[c:1]1([H:7])[c:2]([H:8])[c:3]([H:9])[n:4][c:5]([H:10])[c:6]1[H:11]>>[C:1]1([H:7])=[C:2]([H:8])[C@:3]2([H:9])[N:4]=[C:5]([H:10])[C@:6]12[H:11]"
C       -0.35476922       1.17526800      -0.00200853
C       -1.35496032       0.35489830       0.37745381
C       -0.73518943      -0.86346478      -0.11570209
N        0.14883351      -1.51457129       0.71139472
C        1.16635008      -0.81056013       0.28019567
C        0.78671313       0.37437068      -0.45973152
H       -0.32924804       2.25899012       0.04548417
H       -2.20648717       0.49377292       1.02472170
H       -0.81015017      -1.16196088      -1.15951990
H        2.19642429      -1.11424729       0.46020827
H        1.49248333       0.80750437      -1.16249630
11
Frame=2 idx=003138 GeodesicLength=0.0817947845846203 rxn_smarts="[c:1]1([H:7])[c:2]([H:8])[c:3]([H:9])[n:4][c:5]([H:10])[c:6]1[H:11]>>[C:1]1([H:7])=[C:2]([H:8])[C@:3]2([H:9])[N:4]=[C:5]([H:10])[C@:6]12[H:11]"
C       -0.34531226       1.17942921       0.01305127
C       -1.34840504       0.35584460       0.37900420
C       -0.73461539      -0.86467742      -0.11349594
N        0.16001470      -1.51723887       0.70468484
C        1.17553099      -0.80493176       0.28429503
C        0.78617524       0.37484154      -0.45881263
H       -0.32289600       2.26302152       0.05914326
H       -2.22465780       0.49972119       0.99109933
H       -0.84039466      -1.18308421      -1.14832874
H        2.20618444      -1.11188020       0.45391538
H        1.48837578       0.80895440      -1.16455598
11
Frame=3 idx=003138 GeodesicLength=0.12259025850692207 rxn_smarts="[c:1]1([H:7])[c:2]([H:8])[c:3]([H:9])[n:4][c:5]([H:10])[c:6]1[H:11]>>[C:1]1([H:7])=[C:2]([H:8])[C@:3]2([H:9])[N:4]=[C:5]([H:10])[C@:6]12[H:11]"
C       -0.33573514       1.18343203       0.02871925
C       -1.34161810       0.35663568       0.38112957
C       -0.73395993      -0.86584840      -0.11149259
N        0.17140969      -1.52024943       0.69712530
C        1.18485555      -0.79938273       0.28822898
C        0.78574823       0.37554544      -0.45743155
H       -0.31695544       2.26694063       0.07249205
H       -2.24204466       0.50601856       0.95560222
H       -0.87193530      -1.20449027      -1.13567308
H        2.21603324      -1.10940656       0.44749186
H        1.48420186       0.81080505      -1.16619201
11
Frame=4 idx=003138 GeodesicLength=0.16329233950955913 rxn_smarts="[c:1]1([H:7])[c:2]([H:8])[c:3]([H:9])[n:4][c:5]([H:10])[c:6]1[H:11]>>[C:1]1([H:7])=[C:2]([H:8])[C@:3]2([H:9])[N:4]=[C:5]([H:10])[C@:6]12[H:11]"
C       -0.32609887       1.18726190       0.04490577
C       -1.33464570       0.35724505       0.38378228
C       -0.73323255      -0.86697683      -0.10978236
N        0.18298362      -1.52358364       0.68864663
C        1.19429374      -0.79390179       0.29200322
C        0.78542844       0.37650062      -0.45559429
H       -0.31143362       2.27071647       0.08562534
H       -2.25840785       0.51267595       0.91822433
H       -0.90480922      -1.22623248      -1.12141822
H        2.22594415      -1.10679048       0.44098700
H        1.47997787       0.81308521      -1.16737972
11
Frame=5 idx=003138 GeodesicLength=0.20385033969390765 rxn_smarts="[c:1]1([H:7])[c:2]([H:8])[c:3]([H:9])[n:4][c:5]([H:10])[c:6]1[H:11]>>[C:1]1([H:7])=[C:2]([H:8])[C@:3]2([H:9])[N:4]=[C:5]([H:10])[C@:6]12[H:11]"
C       -0.31646678       1.19092522       0.06150482
C       -1.32759862       0.35767330       0.38672806
C       -0.73247370      -0.86802709      -0.10863043
N        0.19457662      -1.52726703       0.67904962
C        1.20373974      -0.78849178       0.29569750
C        0.78525151       0.37774418      -0.45324430
H       -0.30650287       2.27435570       0.09819314
H       -2.27316579       0.51951687       0.87965359
H       -0.93897553      -1.24822838      -1.10563160
H        2.23579647      -1.10401060       0.43467494
H        1.47581895       0.81580963      -1.16799534
11
Frame=6 idx=003138 GeodesicLength=0.24425943339879058 rxn_smarts="[c:1]1([H:7])[c:2]([H:8])[c:3]([H:9])[n:4][c:5]([H:10])[c:6]1[H:11]>>[C:1]1([H:7])=[C:2]([H:8])[C@:3]2([H:9])[N:4]=[C:5]([H:10])[C@:6]12[H:11]"
C       -0.30693533       1.19441152       0.07828333
C       -1.32058140       0.35790148       0.38968686
C       -0.73170094      -0.86900582      -0.10824716
N        0.20610356      -1.53123518       0.66824980
C        1.21312368      -0.78312425       0.29933026
C        0.78521791       0.37928074      -0.45045363
H       -0.30212040       2.27781889       0.11035593
H       -2.28601433       0.52652100       0.84029088
H       -0.97443609      -1.27059530      -1.08823043
H        2.24552682      -1.10097786       0.42874268
H        1.47181652       0.81900477      -1.16800851
11
Frame=7 idx=003138 GeodesicLength=0.28450584084935965 rxn_smarts="[c:1]1([H:7])[c:2]([H:8])[c:3]([H:9])[n:4][c:5]([H:10])[c:6]1[H:11]>>[C:1]1([H:7])=[C:2]([H:8])[C@:3]2([H:9])[N:4]=[C:5]([H:10])[C@:6]12[H:11]"
C       -0.29758034       1.19774668       0.09500854
C       -1.31372617       0.35796445       0.39222324
C       -0.73093939      -0.86988616      -0.10892702
N        0.21742115      -1.53541111       0.65613399
C        1.22234420      -0.77775688       0.30299166
C        0.78536673       0.38113385      -0.44725439
H       -0.29827072       2.28111408       0.12208134
H       -2.29663425       0.53348358       0.80090446
H       -1.01112126      -1.29338392      -1.06920334
H        2.25502955      -1.09765681       0.42342273
H        1.46811050       0.82265224      -1.16738122
11
Frame=8 idx=003138 GeodesicLength=0.32459413478677607 rxn_smarts="[c:1]1([H:7])[c:2]([H:8])[c:3]([H:9])[n:4][c:5]([H:10])[c:6]1[H:11]>>[C:1]1([H:7])=[C:2]([H:8])[C@:3]2([H:9])[N:4]=[C:5]([H:10])[C@:6]12[H:11]"
C       -0.28845419       1.20093337       0.11151451
C       -1.30706977       0.35784799       0.39410625
C       -0.73018106      -0.87066618      -0.11090096
N        0.22848106      -1.53974489       0.64260170
C        1.23135998      -0.77239479       0.30667813
C        0.78573779       0.38331270      -0.44370031
H       -0.29492467       2.28422939       0.13343640
H       -2.30500057       0.54037452       0.76189447
H       -1.04903272      -1.31665307      -1.04840996
H        2.26427510      -1.09401047       0.41888041
H        1.46480905       0.82677143      -1.16610064
11
Frame=9 idx=003138 GeodesicLength=0.36449154827474334 rxn_smarts="[c:1]1([H:7])[c:2]([H:8])[c:3]([H:9])[n:4][c:5]([H:10])[c:6]1[H:11]>>[C:1]1([H:7])=[C:2]([H:8])[C@:3]2([H:9])[N:4]=[C:5]([H:10])[C@:6]12[H:11]"
C       -0.27967191       1.20402870       0.12749815
C       -1.30073856       0.35761465       0.39486515
C       -0.72938800      -0.87130991      -0.11434689
N        0.23920614      -1.54393535       0.62787693
C        1.24011999      -0.76689818       0.31053662
C        0.78636821       0.38587257      -0.43983236
H       -0.29185727       2.28720106       0.14496184
H       -2.31130590       0.54707697       0.72337210
H       -1.08793898      -1.34075964      -1.02547163
H        2.27317190      -1.09027556       0.41469215
H        1.46203438       0.83138469      -1.16415205
11
Frame=10 idx=003138 GeodesicLength=0.4042029340360199 rxn_smarts="[c:1]1([H:7])[c:2]([H:8])[c:3]([H:9])[n:4][c:5]([H:10])[c:6]1[H:11]>>[C:1]1([H:7])=[C:2]([H:8])[C@:3]2([H:9])[N:4]=[C:5]([H:10])[C@:6]12[H:11]"
C       -0.27118463       1.20701347       0.14289755
C       -1.29467321       0.35722792       0.39427875
C       -0.72858279      -0.87179363      -0.11976718
N        0.24948708      -1.54818066       0.61142975
C        1.24853338      -0.76142917       0.31445602
C        0.78736466       0.38879149      -0.43570152
H       -0.28930470       2.29002738       0.15589570
H       -2.31534651       0.55338768       0.68664741
H       -1.12802756      -1.36536816      -1.00047441
H        2.28166876      -1.08620130       0.41173724
H        1.46006551       0.83652497      -1.16139930
11
Frame=11 idx=003138 GeodesicLength=0.4437142739818957 rxn_smarts="[c:1]1([H:7])[c:2]([H:8])[c:3]([H:9])[n:4][c:5]([H:10])[c:6]1[H:11]>>[C:1]1([H:7])=[C:2]([H:8])[C@:3]2([H:9])[N:4]=[C:5]([H:10])[C@:6]12[H:11]"
C       -0.26299426       1.20987785       0.15769544
C       -1.28879294       0.35664841       0.39237714
C       -0.72772452      -0.87211194      -0.12731396
N        0.25938492      -1.55243048       0.59318459
C        1.25662185      -0.75602225       0.31836876
C        0.78877030       0.39208006      -0.43134279
H       -0.28719493       2.29269181       0.16643800
H       -2.31751258       0.55932720       0.65143244
H       -1.16931277      -1.39044692      -0.97291257
H        2.28980745      -1.08183764       0.40994140
H        1.45894747       0.84222390      -1.15786845
11
Frame=12 idx=003138 GeodesicLength=0.48296985497969813 rxn_smarts="[c:1]1([H:7])[c:2]([H:8])[c:3]([H:9])[n:4][c:5]([H:10])[c:6]1[H:11]>>[C:1]1([H:7])=[C:2]([H:8])[C@:3]2([H:9])[N:4]=[C:5]([H:10])[C@:6]12[H:11]"
C       -0.25518947       1.21266879       0.17173785
C       -1.28318290       0.35593311       0.38878996
C       -0.72675720      -0.87220926      -0.13714878
N        0.26884440      -1.55629934       0.57351404
C        1.26435342      -0.75055837       0.32234541
C        0.79060292       0.39581506      -0.42677900
H       -0.28525909       2.29523530       0.17737557
H       -2.31826575       0.56487446       0.61713042
H       -1.21140664      -1.41645261      -0.94193764
H        2.29748374      -1.07759885       0.40846661
H        1.45877657       0.84859171      -1.15349444
11
Frame=13 idx=003138 GeodesicLength=0.5220121233403854 rxn_smarts="[c:1]1([H:7])[c:2]([H:8])[c:3]([H:9])[n:4][c:5]([H:10])[c:6]1[H:11]>>[C:1]1([H:7])=[C:2]([H:8])[C@:3]2([H:9])[N:4]=[C:5]([H:10])[C@:6]12[H:11]"
C       -0.24773540       1.21534351       0.18508042
C       -1.27771503       0.35499078       0.38361368
C       -0.72569001      -0.87209227      -0.14966586
N        0.27787250      -1.55994945       0.55201501
C        1.27170676      -0.74521967       0.32620086
C        0.79291551       0.39997501      -0.42205767
H       -0.28367988       2.29763300       0.18833539
H       -2.31770821       0.56997670       0.58399476
H       -1.25437226      -1.44297296      -0.90710630
H        2.30472221      -1.07338068       0.40779002
H        1.45968382       0.85569604      -1.14820031
11
Frame=14 idx=003138 GeodesicLength=0.5608099630763236 rxn_smarts="[c:1]1([H:7])[c:2]([H:8])[c:3]([H:9])[n:4][c:5]([H:10])[c:6]1[H:11]>>[C:1]1([H:7])=[C:2]([H:8])[C@:3]2([H:9])[N:4]=[C:5]([H:10])[C@:6]12[H:11]"
C       -0.24059433       1.21781227       0.19780494
C       -1.27223936       0.35368490       0.37703527
C       -0.72454908      -0.87174873      -0.16522845
N        0.28644615      -1.56350294       0.52826275
C        1.27861277      -0.74016820       0.32976912
C        0.79573900       0.40452386      -0.41720253
H       -0.28269053       2.29978849       0.19881981
H       -2.31592124       0.57451415       0.55221232
H       -1.29807490      -1.46936377      -0.86790225
H        2.31147966      -1.06913748       0.40829218
H        1.46179186       0.86359746      -1.14186316
11
Frame=15 idx=003138 GeodesicLength=0.5993946690116378 rxn_smarts="[c:1]1([H:7])[c:2]([H:8])[c:3]([H:9])[n:4][c:5]([H:10])[c:6]1[H:11]>>[C:1]1([H:7])=[C:2]([H:8])[C@:3]2([H:9])[N:4]=[C:5]([H:10])[C@:6]12[H:11]"
C       -0.23395357       1.22009506       0.20977698
C       -1.26701016       0.35211735       0.36856688
C       -0.72340361      -0.87124013      -0.18380827
N        0.29446786      -1.56643983       0.50312651
C        1.28502489      -0.73528682       0.33308878
C        0.79891703       0.40946070      -0.41231927
H       -0.28183937       2.30173978       0.21026429
H       -2.31348351       0.57869106       0.52047601
H       -1.34130781      -1.49600450      -0.82325110
H        2.31761514      -1.06548029       0.40859864
H        1.46497309       0.87234762      -1.13451945
11
Frame=16 idx=003138 GeodesicLength=0.6376474010498668 rxn_smarts="[c:1]1([H:7])[c:2]([H:8])[c:3]([H:9])[n:4][c:5]([H:10])[c:6]1[H:11]>>[C:1]1([H:7])=[C:2]([H:8])[C@:3]2([H:9])[N:4]=[C:5]([H:10])[C@:6]12[H:11]"
C       -0.22770330       1.22194471       0.22118496
C       -1.26170672       0.35000544       0.35902873
C       -0.72245327      -0.87063958      -0.20548693
N        0.30191946      -1.56926076       0.47575850
C        1.29076218      -0.73093193       0.33592818
C        0.80236697       0.41452665      -0.40746143
H       -0.28181335       2.30319153       0.22083728
H       -2.31011246       0.58222747       0.49013998
H       -1.38347722      -1.52081247      -0.77386644
H        2.32303796      -1.06196427       0.41009426
H        1.46917976       0.88171322      -1.12615708
