12
Frame=0 idx=004416 GeodesicLength=0.0 rxn_smarts="[C:1]([C@@:2]([C:3](=[O:4])[H:11])([C:5]#[C:6][H:12])[H:10])([H:7])([H:8])[H:9]>>[C:1](/[C:2](=[C:3](\[O:4][C:5]#[C:6][H:12])[H:11])[H:10])([H:7])([H:8])[H:9]"
C        0.00786826       1.33099066       0.26315461
C       -0.38944532      -0.07830229       0.71244389
C       -1.35893348      -0.79819555       0.00721940
O       -0.76020150      -1.26575024      -1.05447893
C        0.55679981      -0.95530722      -0.61136008
C        1.71085499      -1.15690080      -1.06250311
H        1.06822410       1.48870629       0.46245253
H       -0.15845763       1.48280505      -0.80248143
H       -0.57282429       2.06928835       0.81970148
H       -0.41337584      -0.16572001       1.79851452
H       -2.37182223      -1.12997402       0.20983000
H        2.68131318      -0.82164022      -0.74249284
12
Frame=1 idx=004416 GeodesicLength=0.08520588283249309 rxn_smarts="[C:1]([C@@:2]([C:3](=[O:4])[H:11])([C:5]#[C:6][H:12])[H:10])([H:7])([H:8])[H:9]>>[C:1](/[C:2](=[C:3](\[O:4][C:5]#[C:6][H:12])[H:11])[H:10])([H:7])([H:8])[H:9]"
C        0.00585120       1.33920377       0.26565466
C       -0.39146662      -0.07083526       0.70750567
C       -1.36642340      -0.78342611      -0.00067036
O       -0.78424193      -1.23398389      -1.07824306
C        0.56183648      -0.95551449      -0.61834888
C        1.71619053      -1.17721038      -1.04903339
H        1.06151652       1.50212479       0.48494375
H       -0.13856290       1.49206926      -0.80301447
H       -0.59057936       2.07517022       0.80820493
H       -0.42263921      -0.16447259       1.79283656
H       -2.34768712      -1.17596235       0.24660546
H        2.69620582      -0.84716297      -0.75644086
12
Frame=2 idx=004416 GeodesicLength=0.17097790459276938 rxn_smarts="[C:1]([C@@:2]([C:3](=[O:4])[H:11])([C:5]#[C:6][H:12])[H:10])([H:7])([H:8])[H:9]>>[C:1](/[C:2](=[C:3](\[O:4][C:5]#[C:6][H:12])[H:11])[H:10])([H:7])([H:8])[H:9]"
C        0.00183785       1.34842443       0.26847009
C       -0.39249447      -0.06318487       0.70287953
C       -1.37284516      -0.77009016      -0.00682411
O       -0.80809890      -1.20134418      -1.10097283
C        0.56748055      -0.95351415      -0.62671900
C        1.72112427      -1.19776898      -1.03637073
H        1.05241795       1.51822614       0.50640283
H       -0.12236402       1.50238907      -0.80257385
H       -0.61058063       2.08076037       0.79768452
H       -0.42918095      -0.16345510       1.78741549
H       -2.31917516      -1.21931884       0.27957641
H        2.71187868      -0.88112372      -0.76896836
12
Frame=3 idx=004416 GeodesicLength=0.2569255112537179 rxn_smarts="[C:1]([C@@:2]([C:3](=[O:4])[H:11])([C:5]#[C:6][H:12])[H:10])([H:7])([H:8])[H:9]>>[C:1](/[C:2](=[C:3](\[O:4][C:5]#[C:6][H:12])[H:11])[H:10])([H:7])([H:8])[H:9]"
C       -0.00332489       1.35804878       0.27145686
C       -0.39294394      -0.05548683       0.69873869
C       -1.37861944      -0.75795112      -0.01142463
O       -0.83201926      -1.16841237      -1.12225668
C        0.57360973      -0.95058228      -0.63539131
C        1.72548821      -1.21709824      -1.02496956
H        1.04174756       1.53576800       0.52738709
H       -0.10812770       1.51290955      -0.80152689
H       -0.63187439       2.08604213       0.78729871
H       -0.43415138      -0.16237047       1.78245745
H       -2.28731469      -1.26041101       0.30891026
H        2.72753019      -0.92045615      -0.78067999
12
Frame=4 idx=004416 GeodesicLength=0.34293182443955683 rxn_smarts="[C:1]([C@@:2]([C:3](=[O:4])[H:11])([C:5]#[C:6][H:12])[H:10])([H:7])([H:8])[H:9]>>[C:1](/[C:2](=[C:3](\[O:4][C:5]#[C:6][H:12])[H:11])[H:10])([H:7])([H:8])[H:9]"
C       -0.00938458       1.36781383       0.27463917
C       -0.39284845      -0.04789316       0.69517806
C       -1.38366722      -0.74705021      -0.01461468
O       -0.85584114      -1.13574956      -1.14186803
C        0.58044945      -0.94713524      -0.64391738
C        1.72963761      -1.23613924      -1.01377212
H        1.02974258       1.55436274       0.54807539
H       -0.09540724       1.52330642      -0.79992128
H       -0.65417077       2.09085471       0.77693793
H       -0.43792751      -0.16126197       1.77806541
H       -2.25351691      -1.29834625       0.33433805
H        2.74293418      -0.96276207      -0.79314052
12
Frame=5 idx=004416 GeodesicLength=0.4285843430078327 rxn_smarts="[C:1]([C@@:2]([C:3](=[O:4])[H:11])([C:5]#[C:6][H:12])[H:10])([H:7])([H:8])[H:9]>>[C:1](/[C:2](=[C:3](\[O:4][C:5]#[C:6][H:12])[H:11])[H:10])([H:7])([H:8])[H:9]"
C       -0.01530244       1.37687719       0.27794510
C       -0.39292729      -0.04065396       0.69249982
C       -1.38863569      -0.73705069      -0.01676439
O       -0.87955447      -1.10424673      -1.15940054
C        0.58780801      -0.94503890      -0.65053257
C        1.73377130      -1.25475411      -1.00150332
H        1.01732392       1.57234145       0.56935224
H       -0.08191007       1.53226394      -0.79801069
H       -0.67624618       2.09520633       0.76548603
H       -0.44243698      -0.15976341       1.77456398
H       -2.21943700      -1.33271330       0.35589994
H        2.75754689      -1.00246780      -0.80953560
12
Frame=6 idx=004416 GeodesicLength=0.5133864998839281 rxn_smarts="[C:1]([C@@:2]([C:3](=[O:4])[H:11])([C:5]#[C:6][H:12])[H:10])([H:7])([H:8])[H:9]>>[C:1](/[C:2](=[C:3](\[O:4][C:5]#[C:6][H:12])[H:11])[H:10])([H:7])([H:8])[H:9]"
C       -0.01999878       1.38418682       0.28110015
C       -0.39379146      -0.03420452       0.69107839
C       -1.39421049      -0.72788069      -0.01786374
O       -0.90341649      -1.07496025      -1.17436792
C        0.59520299      -0.94654784      -0.65352705
C        1.73824241      -1.26969016      -0.98938007
H        1.00549840       1.58787873       0.59157320
H       -0.06555455       1.53808073      -0.79617165
H       -0.69665046       2.09899435       0.75166075
H       -0.44927520      -0.15755179       1.77236882
H       -2.18721746      -1.36281984       0.37397355
H        2.77117108      -1.03548554      -0.83044445
12
Frame=7 idx=004416 GeodesicLength=0.5980508509469892 rxn_smarts="[C:1]([C@@:2]([C:3](=[O:4])[H:11])([C:5]#[C:6][H:12])[H:10])([H:7])([H:8])[H:9]>>[C:1](/[C:2](=[C:3](\[O:4][C:5]#[C:6][H:12])[H:11])[H:10])([H:7])([H:8])[H:9]"
C       -0.02448015       1.39096086       0.28435608
C       -0.39503303      -0.02795395       0.69036573
C       -1.39991307      -0.71919367      -0.01836213
O       -0.92728264      -1.04630882      -1.18785568
C        0.60296437      -0.94934190      -0.65461846
C        1.74315657      -1.28401087      -0.97583356
H        0.99322212       1.60288361       0.61448049
H       -0.04809740       1.54265105      -0.79393958
H       -0.71664263       2.10253455       0.73657321
H       -0.45726553      -0.15483870       1.77087568
H       -2.15481095      -1.39081940       0.38940147
H        2.78418234      -1.06656275      -0.85544326
12
Frame=8 idx=004416 GeodesicLength=0.6829228378606166 rxn_smarts="[C:1]([C@@:2]([C:3](=[O:4])[H:11])([C:5]#[C:6][H:12])[H:10])([H:7])([H:8])[H:9]>>[C:1](/[C:2](=[C:3](\[O:4][C:5]#[C:6][H:12])[H:11])[H:10])([H:7])([H:8])[H:9]"
C       -0.02998526       1.39831740       0.28783136
C       -0.39566093      -0.02154819       0.68986698
C       -1.40478326      -0.71122896      -0.01811339
O       -0.95123389      -1.01721616      -1.20049173
C        0.61161598      -0.95087625      -0.65613094
C        1.74851919      -1.29774394      -0.96252774
H        0.97930259       1.61953501       0.63724743
H       -0.03210732       1.54784631      -0.79103359
H       -0.73784875       2.10572593       0.72155912
H       -0.46398722      -0.15217691       1.76956394
H       -2.12083227      -1.41769256       0.40272388
H        2.79700115      -1.10294169      -0.88049534
12
Frame=9 idx=004416 GeodesicLength=0.7685135366349471 rxn_smarts="[C:1]([C@@:2]([C:3](=[O:4])[H:11])([C:5]#[C:6][H:12])[H:10])([H:7])([H:8])[H:9]>>[C:1](/[C:2](=[C:3](\[O:4][C:5]#[C:6][H:12])[H:11])[H:10])([H:7])([H:8])[H:9]"
C       -0.03803206       1.40773297       0.29163595
C       -0.39442635      -0.01444396       0.68878681
C       -1.40775833      -0.70418175      -0.01693751
O       -0.97587228      -0.98592436      -1.21306498
C        0.62161719      -0.94770033      -0.66149575
C        1.75376535      -1.31087165      -0.95256159
H        0.96244643       1.64039623       0.65861801
H       -0.02105329       1.55635803      -0.78723687
H       -0.76215127       2.10849428       0.70864240
H       -0.46618469      -0.15026928       1.76762671
H       -2.08212256      -1.44554438       0.41463018
H        2.80977185      -1.15404579      -0.89864336
12
Frame=10 idx=004416 GeodesicLength=0.8542054230374155 rxn_smarts="[C:1]([C@@:2]([C:3](=[O:4])[H:11])([C:5]#[C:6][H:12])[H:10])([H:7])([H:8])[H:9]>>[C:1](/[C:2](=[C:3](\[O:4][C:5]#[C:6][H:12])[H:11])[H:10])([H:7])([H:8])[H:9]"
C       -0.04666069       1.41740835       0.29571426
C       -0.39303768      -0.00716593       0.68808605
C       -1.41005220      -0.69765310      -0.01546455
O       -1.00021157      -0.95480884      -1.22449943
C        0.63292518      -0.94400973      -0.66598156
C        1.75983634      -1.32490917      -0.93993062
H        0.94420090       1.66215450       0.68058729
H       -0.01021146       1.56498863      -0.78283751
H       -0.78722176       2.11092798       0.69521278
H       -0.46837870      -0.14813987       1.76602987
H       -2.04248804      -1.47177833       0.42397757
H        2.82129968      -1.20701449      -0.92089415
12
Frame=11 idx=004416 GeodesicLength=0.9399416594695877 rxn_smarts="[C:1]([C@@:2]([C:3](=[O:4])[H:11])([C:5]#[C:6][H:12])[H:10])([H:7])([H:8])[H:9]>>[C:1](/[C:2](=[C:3](\[O:4][C:5]#[C:6][H:12])[H:11])[H:10])([H:7])([H:8])[H:9]"
C       -0.05633299       1.42771402       0.29981511
C       -0.39060634       0.00027201       0.68722363
C       -1.41133233      -0.69194398      -0.01314512
O       -1.02572305      -0.92283661      -1.23506537
C        0.64504239      -0.93846259      -0.67213644
C        1.76617140      -1.33580412      -0.93104615
H        0.92445981       1.68549124       0.70168132
H       -0.00156151       1.57478294      -0.77805341
H       -0.81334069       2.11274077       0.68239259
H       -0.46813404      -0.14637762       1.76426891
H       -2.00010233      -1.49785987       0.43174891
H        2.83145967      -1.26771619      -0.93768399
12
Frame=12 idx=004416 GeodesicLength=1.0255518150725624 rxn_smarts="[C:1]([C@@:2]([C:3](=[O:4])[H:11])([C:5]#[C:6][H:12])[H:10])([H:7])([H:8])[H:9]>>[C:1](/[C:2](=[C:3](\[O:4][C:5]#[C:6][H:12])[H:11])[H:10])([H:7])([H:8])[H:9]"
C       -0.06637404       1.43802925       0.30401513
C       -0.38800947       0.00777211       0.68670949
C       -1.41199708      -0.68682565      -0.01046172
O       -1.05143343      -0.89117276      -1.24436487
C        0.65833317      -0.93272252      -0.67739804
C        1.77368687      -1.34522880      -0.92137751
H        0.90359848       1.70925145       0.72300542
H        0.00695447       1.58443365      -0.77286763
H       -0.83976351       2.11408401       0.66897096
H       -0.46786963      -0.14438764       1.76283693
H       -1.95695545      -1.52247166       0.43732596
H        2.83982962      -1.33076143      -0.95639412
12
Frame=13 idx=004416 GeodesicLength=1.110925445848528 rxn_smarts="[C:1]([C@@:2]([C:3](=[O:4])[H:11])([C:5]#[C:6][H:12])[H:10])([H:7])([H:8])[H:9]>>[C:1](/[C:2](=[C:3](\[O:4][C:5]#[C:6][H:12])[H:11])[H:10])([H:7])([H:8])[H:9]"
C       -0.07645308       1.44802107       0.30831041
C       -0.38579866       0.01529971       0.68691312
C       -1.41225091      -0.68221820      -0.00764939
O       -1.07669478      -0.86041577      -1.25226030
C        0.67306469      -0.92779341      -0.68007539
C        1.78325718      -1.35314367      -0.90841783
H        0.88171507       1.73285136       0.74512223
H        0.01653163       1.59315296      -0.76725849
H       -0.86607854       2.11508391       0.65410858
H       -0.46910743      -0.14173026       1.76209897
H       -1.91434438      -1.54507082       0.44053618
H        2.84615921      -1.39403687      -0.98142809
12
Frame=14 idx=004416 GeodesicLength=1.195743663928794 rxn_smarts="[C:1]([C@@:2]([C:3](=[O:4])[H:11])([C:5]#[C:6][H:12])[H:10])([H:7])([H:8])[H:9]>>[C:1](/[C:2](=[C:3](\[O:4][C:5]#[C:6][H:12])[H:11])[H:10])([H:7])([H:8])[H:9]"
C       -0.08556882       1.45680061       0.31243256
C       -0.38467922       0.02247939       0.68823964
C       -1.41290590      -0.67796623      -0.00469611
O       -1.10166263      -0.83124212      -1.25853617
C        0.68863397      -0.92592503      -0.67832190
C        1.79559958      -1.35777969      -0.89208556
H        0.85963392       1.75479228       0.76835749
H        0.02925922       1.59927692      -0.76141939
H       -0.89088621       2.11580719       0.63633880
H       -0.47369670      -0.13795472       1.76249251
H       -1.87391832      -1.56521403       0.44185599
H        2.85019110      -1.45307458      -1.01465787
12
Frame=15 idx=004416 GeodesicLength=1.2805327697016398 rxn_smarts="[C:1]([C@@:2]([C:3](=[O:4])[H:11])([C:5]#[C:6][H:12])[H:10])([H:7])([H:8])[H:9]>>[C:1](/[C:2](=[C:3](\[O:4][C:5]#[C:6][H:12])[H:11])[H:10])([H:7])([H:8])[H:9]"
C       -0.09625522       1.46643717       0.31675308
C       -0.38190138       0.02976512       0.68915757
C       -1.41188025      -0.67489649      -0.00085169
O       -1.12853481      -0.80099603      -1.26389793
C        0.70538284      -0.92084698      -0.67949864
C        1.81061499      -1.35155566      -0.88562667
H        0.83549807       1.77886799       0.79040386
H        0.03850407       1.60737587      -0.75502706
H       -0.91740551       2.11539200       0.62004418
H       -0.47469370      -0.13499930       1.76246993
H       -1.82957642      -1.58601558       0.44207725
H        2.85024729      -1.52852811      -1.03600390
12
Frame=16 idx=004416 GeodesicLength=1.364220097523487 rxn_smarts="[C:1]([C@@:2]([C:3](=[O:4])[H:11])([C:5]#[C:6][H:12])[H:10])([H:7])([H:8])[H:9]>>[C:1](/[C:2](=[C:3](\[O:4][C:5]#[C:6][H:12])[H:11])[H:10])([H:7])([H:8])[H:9]"
C       -0.10384088       1.47301015       0.32011649
C       -0.38109404       0.03574255       0.69170333
C       -1.41255899      -0.67195448       0.00314702
O       -1.15550477      -0.77388499      -1.26723322
C        0.72182407      -0.92338969      -0.67335823
C        1.82944879      -1.34106240      -0.87437076
H        0.81313711       1.79839247       0.81350714
H        0.05463053       1.60956823      -0.74902961
H       -0.93936867       2.11458518       0.59825604
H       -0.48121598      -0.13073475       1.76412256
H       -1.79203403      -1.60272332       0.44134550
H        2.84657687      -1.58754895      -1.06820626
