15
Frame=0 idx=009918 GeodesicLength=0.0 rxn_smarts="[N:1]([C@@:2]([C:3]([C:4]([O:5][H:15])([H:13])[H:14])([H:11])[H:12])([C:6]#[N:7])[H:10])([H:8])[H:9]>>[N:1]([N:7]=[C:6]=[C:2]([C:3]([C:4]([O:5][H:15])([H:13])[H:14])([H:11])[H:12])[H:10])([H:8])[H:9]"
N       -2.75674052      -0.56245529      -0.14421058
C       -0.39857318       0.16512498       0.53470077
C        0.53947423      -0.46541137      -0.44016379
C        1.92636555       0.16264515      -0.40032919
O        2.45075421      -0.02167864       0.90026230
C       -1.25008644       1.15213891       0.16507373
N       -2.25774180       1.62996070      -0.21844313
H       -3.55865610      -1.18426895      -0.34120478
H       -2.92858124      -0.29655233       0.82631086
H       -0.23437563       0.00256458       1.59385233
H        0.12810672      -0.38661021      -1.44711928
H        0.63244991      -1.52458452      -0.19141481
H        1.85552092       1.22828404      -0.65033763
H        2.55724471      -0.32521280      -1.15311218
H        3.29483871       0.42605575       0.96613539
15
Frame=1 idx=009918 GeodesicLength=0.06037299210145324 rxn_smarts="[N:1]([C@@:2]([C:3]([C:4]([O:5][H:15])([H:13])[H:14])([H:11])[H:12])([C:6]#[N:7])[H:10])([H:8])[H:9]>>[N:1]([N:7]=[C:6]=[C:2]([C:3]([C:4]([O:5][H:15])([H:13])[H:14])([H:11])[H:12])[H:10])([H:8])[H:9]"
N       -2.75196161      -0.53088343      -0.12591291
C       -0.41254052       0.14898219       0.52766843
C        0.53404201      -0.46953751      -0.44888122
C        1.91899434       0.16100856      -0.40005658
O        2.44022165      -0.03135634       0.90074794
C       -1.23656538       1.16513948       0.16673711
N       -2.24242302       1.64306696      -0.22331089
H       -3.47104530      -1.24425593      -0.32343680
H       -2.97979705      -0.25453555       0.82926532
H       -0.23528645      -0.00577828       1.58619740
H        0.12668799      -0.38367619      -1.45701454
H        0.62861545      -1.53061186      -0.20841064
H        1.84697805       1.22836399      -0.64241486
H        2.55376332      -0.31869338      -1.15482425
H        3.28031651       0.42276731       0.97364650
15
Frame=2 idx=009918 GeodesicLength=0.12071057797083498 rxn_smarts="[N:1]([C@@:2]([C:3]([C:4]([O:5][H:15])([H:13])[H:14])([H:11])[H:12])([C:6]#[N:7])[H:10])([H:8])[H:9]>>[N:1]([N:7]=[C:6]=[C:2]([C:3]([C:4]([O:5][H:15])([H:13])[H:14])([H:11])[H:12])[H:10])([H:8])[H:9]"
N       -2.74613856      -0.50334956      -0.10933672
C       -0.42619650       0.13377102       0.52115436
C        0.52847473      -0.47376312      -0.45676829
C        1.91143287       0.15934055      -0.39991556
O        2.42997493      -0.04008900       0.90101652
C       -1.22408853       1.17648060       0.16871399
N       -2.22922988       1.65312553      -0.22676703
H       -3.38168909      -1.29099055      -0.30297551
H       -3.03002125      -0.21800396       0.82728316
H       -0.23623006      -0.01386294       1.57887409
H        0.12484007      -0.38178829      -1.46599077
H        0.62480723      -1.53647525      -0.22371281
H        1.83804737       1.22818532      -0.63535938
H        2.54983137      -0.31269577      -1.15647536
H        3.26618531       0.42011541       0.98025929
15
Frame=3 idx=009918 GeodesicLength=0.18139034428728207 rxn_smarts="[N:1]([C@@:2]([C:3]([C:4]([O:5][H:15])([H:13])[H:14])([H:11])[H:12])([C:6]#[N:7])[H:10])([H:8])[H:9]>>[N:1]([N:7]=[C:6]=[C:2]([C:3]([C:4]([O:5][H:15])([H:13])[H:14])([H:11])[H:12])[H:10])([H:8])[H:9]"
N       -2.74117795      -0.47917654      -0.09269582
C       -0.43981444       0.11861690       0.51303239
C        0.52371407      -0.47749123      -0.46564420
C        1.90452151       0.15825083      -0.39927832
O        2.41959008      -0.04955038       0.90181272
C       -1.21279743       1.18560437       0.16885397
N       -2.21785590       1.65971070      -0.23188255
H       -3.29363536      -1.32823598      -0.27268273
H       -3.07999463      -0.18395097       0.82146835
H       -0.23781471      -0.02258512       1.56976032
H        0.12471935      -0.37900908      -1.47619893
H        0.62169949      -1.54186972      -0.24053690
H        1.82974612       1.22875241      -0.62665541
H        2.54704881      -0.30519021      -1.15764422
H        3.25205099       0.41612403       0.98829133
15
Frame=4 idx=009918 GeodesicLength=0.24228896455092963 rxn_smarts="[N:1]([C@@:2]([C:3]([C:4]([O:5][H:15])([H:13])[H:14])([H:11])[H:12])([C:6]#[N:7])[H:10])([H:8])[H:9]>>[N:1]([N:7]=[C:6]=[C:2]([C:3]([C:4]([O:5][H:15])([H:13])[H:14])([H:11])[H:12])[H:10])([H:8])[H:9]"
N       -2.73303001      -0.45859518      -0.07866810
C       -0.45225136       0.10546377       0.50740668
C        0.51843898      -0.48148368      -0.47220243
C        1.89727596       0.15671621      -0.39922912
O        2.41042708      -0.05703919       0.90177283
C       -1.20203643       1.19427646       0.17095251
N       -2.20848920       1.66452809      -0.23287975
H       -3.20816745      -1.35384158      -0.24669044
H       -3.12818929      -0.15740869       0.80974876
H       -0.23827663      -0.02961364       1.56297126
H        0.12277677      -0.37828205      -1.48371265
H        0.61818196      -1.54709885      -0.25318470
H        1.82097909       1.22841582      -0.62052804
H        2.54288511      -0.29975412      -1.15922581
H        3.23947542       0.41371664       0.99346899
15
Frame=5 idx=009918 GeodesicLength=0.3044497975597384 rxn_smarts="[N:1]([C@@:2]([C:3]([C:4]([O:5][H:15])([H:13])[H:14])([H:11])[H:12])([C:6]#[N:7])[H:10])([H:8])[H:9]>>[N:1]([N:7]=[C:6]=[C:2]([C:3]([C:4]([O:5][H:15])([H:13])[H:14])([H:11])[H:12])[H:10])([H:8])[H:9]"
N       -2.72214817      -0.44024876      -0.06795804
C       -0.46369626       0.09496532       0.50433971
C        0.51211613      -0.48525881      -0.47662237
C        1.88948709       0.15453440      -0.39969468
O        2.40227415      -0.06376769       0.90080822
C       -1.19183187       1.20343384       0.17497007
N       -2.20095249       1.66887825      -0.22984653
H       -3.12121518      -1.37259710      -0.22276540
H       -3.17521111      -0.13738194       0.79090297
H       -0.23777563      -0.03430036       1.55852188
H        0.11854247      -0.37858835      -1.48869235
H        0.61314230      -1.55180960      -0.26222439
H        1.81203190       1.22713259      -0.61627141
H        2.53685921      -0.29644587      -1.16146825
H        3.22837746       0.41145409       0.99600057
15
Frame=6 idx=009918 GeodesicLength=0.3667036018002382 rxn_smarts="[N:1]([C@@:2]([C:3]([C:4]([O:5][H:15])([H:13])[H:14])([H:11])[H:12])([C:6]#[N:7])[H:10])([H:8])[H:9]>>[N:1]([N:7]=[C:6]=[C:2]([C:3]([C:4]([O:5][H:15])([H:13])[H:14])([H:11])[H:12])[H:10])([H:8])[H:9]"
N       -2.71045433      -0.42433463      -0.05715759
C       -0.47426190       0.08516895       0.50184521
C        0.50625986      -0.48895719      -0.48049723
C        1.88216681       0.15250267      -0.40025743
O        2.39500247      -0.06994308       0.89965381
C       -1.18197308       1.21162675       0.17906934
N       -2.19456444       1.67155258      -0.22549212
H       -3.03978342      -1.38428757      -0.19737079
H       -3.22179847      -0.12140105       0.76740297
H       -0.23655231      -0.03847517       1.55450432
H        0.11453969      -0.37936026      -1.49308621
H        0.60862654      -1.55633527      -0.27024159
H        1.80342701       1.22592778      -0.61239192
H        2.53106214      -0.29320357      -1.16385789
H        3.21830344       0.40951905       0.99787711
15
Frame=7 idx=009918 GeodesicLength=0.42846296194332 rxn_smarts="[N:1]([C@@:2]([C:3]([C:4]([O:5][H:15])([H:13])[H:14])([H:11])[H:12])([C:6]#[N:7])[H:10])([H:8])[H:9]>>[N:1]([N:7]=[C:6]=[C:2]([C:3]([C:4]([O:5][H:15])([H:13])[H:14])([H:11])[H:12])[H:10])([H:8])[H:9]"
N       -2.69919847      -0.41050026      -0.04466851
C       -0.48413677       0.07523618       0.49866299
C        0.50148596      -0.49237125      -0.48488350
C        1.87574817       0.15102643      -0.40062437
O        2.38837823      -0.07625983       0.89864981
C       -1.17245261       1.21835015       0.18225566
N       -2.18888037       1.67220154      -0.22166016
H       -2.96567916      -1.39074509      -0.16673159
H       -3.26852388      -0.10742932       0.73996454
H       -0.23492452      -0.04307833       1.54967545
H        0.11200885      -0.37967556      -1.49809922
H        0.60532793      -1.56059426      -0.27910120
H        1.79550732       1.22536251      -0.60762124
H        2.52643444      -0.28874957      -1.16614205
H        3.20890489       0.40722666       1.00032339
15
Frame=8 idx=009918 GeodesicLength=0.4898065786831132 rxn_smarts="[N:1]([C@@:2]([C:3]([C:4]([O:5][H:15])([H:13])[H:14])([H:11])[H:12])([C:6]#[N:7])[H:10])([H:8])[H:9]>>[N:1]([N:7]=[C:6]=[C:2]([C:3]([C:4]([O:5][H:15])([H:13])[H:14])([H:11])[H:12])[H:10])([H:8])[H:9]"
N       -2.68761740      -0.39797818      -0.03130101
C       -0.49316900       0.06569040       0.49593430
C        0.49725799      -0.49580376      -0.48886846
C        1.86984118       0.14966598      -0.40114168
O        2.38258731      -0.08194015       0.89746479
C       -1.16291540       1.22434963       0.18557687
N       -2.18386061       1.67196153      -0.21604289
H       -2.89783742      -1.39248179      -0.13508478
H       -3.31465874      -0.09677048       0.70777978
H       -0.23255354      -0.04748511       1.54517384
H        0.10980075      -0.38047467      -1.50267595
H        0.60271210      -1.56478150      -0.28715642
H        1.78794213       1.22482291      -0.60338093
H        2.52217297      -0.28441999      -1.16853374
H        3.20029766       0.40564519       1.00225627
15
Frame=9 idx=009918 GeodesicLength=0.5511722789897323 rxn_smarts="[N:1]([C@@:2]([C:3]([C:4]([O:5][H:15])([H:13])[H:14])([H:11])[H:12])([C:6]#[N:7])[H:10])([H:8])[H:9]>>[N:1]([N:7]=[C:6]=[C:2]([C:3]([C:4]([O:5][H:15])([H:13])[H:14])([H:11])[H:12])[H:10])([H:8])[H:9]"
N       -2.67499615      -0.38603745      -0.01841005
C       -0.50130237       0.05749948       0.49473275
C        0.49278246      -0.49931367      -0.49155340
C        1.86394999       0.14787683      -0.40206243
O        2.37769582      -0.08668252       0.89573652
C       -1.15320887       1.23056438       0.18973931
N       -2.17987498       1.67200401      -0.20624572
H       -2.83340238      -1.39026575      -0.10588005
H       -3.35908734      -0.09107840       0.66982427
H       -0.22918846      -0.05050334       1.54200084
H        0.10657739      -0.38235763      -1.50574241
H        0.59970179      -1.56881952      -0.29283025
H        1.78052809       1.22358948      -0.60076239
H        2.51724504      -0.28163133      -1.17120652
H        3.19257996       0.40515543       1.00265951
15
Frame=10 idx=009918 GeodesicLength=0.6118533361094494 rxn_smarts="[N:1]([C@@:2]([C:3]([C:4]([O:5][H:15])([H:13])[H:14])([H:11])[H:12])([C:6]#[N:7])[H:10])([H:8])[H:9]>>[N:1]([N:7]=[C:6]=[C:2]([C:3]([C:4]([O:5][H:15])([H:13])[H:14])([H:11])[H:12])[H:10])([H:8])[H:9]"
N       -2.66275549      -0.37467733      -0.00368214
C       -0.50877215       0.04947290       0.49362229
C        0.48887538      -0.50280064      -0.49417964
C        1.85859368       0.14621568      -0.40310643
O        2.37344874      -0.09107541       0.89389272
C       -1.14338299       1.23616056       0.19370945
N       -2.17637496       1.67155695      -0.19464352
H       -2.77477029      -1.38505239      -0.07476987
H       -3.40259700      -0.08793562       0.62685684
H       -0.22521631      -0.05350457       1.53878910
H        0.10387674      -0.38445924      -1.50876689
H        0.59735642      -1.57280158      -0.29827285
H        1.77354597       1.22245170      -0.59842396
H        2.51283682      -0.27879180      -1.17396126
H        3.18533544       0.40524077       1.00293616
15
Frame=11 idx=009918 GeodesicLength=0.6715114491750367 rxn_smarts="[N:1]([C@@:2]([C:3]([C:4]([O:5][H:15])([H:13])[H:14])([H:11])[H:12])([C:6]#[N:7])[H:10])([H:8])[H:9]>>[N:1]([N:7]=[C:6]=[C:2]([C:3]([C:4]([O:5][H:15])([H:13])[H:14])([H:11])[H:12])[H:10])([H:8])[H:9]"
N       -2.65166887      -0.36379659       0.01420146
C       -0.51573504       0.04107025       0.49184978
C        0.48585282      -0.50611665      -0.49739319
C        1.85396790       0.14495724      -0.40411833
O        2.36969668      -0.09557581       0.89206639
C       -1.13351563       1.24075205       0.19702341
N       -2.17307013       1.67025582      -0.18253996
H       -2.72260253      -1.37763760      -0.03883790
H       -3.44543439      -0.08612354       0.57859819
H       -0.22081988      -0.05710883       1.53478414
H        0.10236417      -0.38616578      -1.51245732
H        0.59606183      -1.57664485      -0.30467099
H        1.76711266       1.22177176      -0.59554155
H        2.50942293      -0.27502250      -1.17670497
H        3.17836748       0.40538503       1.00374084
15
Frame=12 idx=009918 GeodesicLength=0.7305858159660931 rxn_smarts="[N:1]([C@@:2]([C:3]([C:4]([O:5][H:15])([H:13])[H:14])([H:11])[H:12])([C:6]#[N:7])[H:10])([H:8])[H:9]>>[N:1]([N:7]=[C:6]=[C:2]([C:3]([C:4]([O:5][H:15])([H:13])[H:14])([H:11])[H:12])[H:10])([H:8])[H:9]"
N       -2.64081490      -0.35295416       0.03433381
C       -0.52207879       0.03319952       0.49078395
C        0.48292008      -0.50937067      -0.50015643
C        1.84954121       0.14363134      -0.40539880
O        2.36661939      -0.09977538       0.88984712
C       -1.12348865       1.24520793       0.20074421
N       -2.17024267       1.66905776      -0.16753480
H       -2.67451248      -1.36812281      -0.00155430
H       -3.48650355      -0.08740780       0.52276570
H       -0.21561530      -0.06021938       1.53128723
H        0.10058551      -0.38815063      -1.51559938
H        0.59482505      -1.58036662      -0.31029932
H        1.76090449       1.22095620      -0.59325657
H        2.50587342      -0.27165311      -1.17978839
H        3.17198719       0.40596780       1.00382597
15
Frame=13 idx=009918 GeodesicLength=0.7885124190791026 rxn_smarts="[N:1]([C@@:2]([C:3]([C:4]([O:5][H:15])([H:13])[H:14])([H:11])[H:12])([C:6]#[N:7])[H:10])([H:8])[H:9]>>[N:1]([N:7]=[C:6]=[C:2]([C:3]([C:4]([O:5][H:15])([H:13])[H:14])([H:11])[H:12])[H:10])([H:8])[H:9]"
N       -2.63133783      -0.34172154       0.05801431
C       -0.52812881       0.02533193       0.48932480
C        0.48041353      -0.51261310      -0.50318754
C        1.84552151       0.14234020      -0.40679397
O        2.36379889      -0.10381760       0.88758913
C       -1.11335440       1.24917796       0.20373574
N       -2.16791989       1.66785492      -0.15031533
H       -2.63151024      -1.35654674       0.03786801
H       -3.52430599      -0.09136243       0.46151134
H       -0.21008739      -0.06329878       1.52726271
H        0.09940530      -0.39026937      -1.51908619
H        0.59405321      -1.58405097      -0.31611190
H        1.75508726       1.22014071      -0.59119527
H        2.50286832      -0.26829639      -1.18281013
H        3.16549653       0.40713120       1.00419429
15
Frame=14 idx=009918 GeodesicLength=0.8455918785720189 rxn_smarts="[N:1]([C@@:2]([C:3]([C:4]([O:5][H:15])([H:13])[H:14])([H:11])[H:12])([C:6]#[N:7])[H:10])([H:8])[H:9]>>[N:1]([N:7]=[C:6]=[C:2]([C:3]([C:4]([O:5][H:15])([H:13])[H:14])([H:11])[H:12])[H:10])([H:8])[H:9]"
N       -2.62288394      -0.32985908       0.08604440
C       -0.53382885       0.01783398       0.48843884
C        0.47783578      -0.51587388      -0.50586269
C        1.84152934       0.14092510      -0.40849131
O        2.36142404      -0.10757755       0.88493368
C       -1.10310336       1.25303057       0.20696597
N       -2.16598083       1.66695977      -0.12993536
H       -2.59222925      -1.34305854       0.07802015
H       -3.55811203      -0.09863927       0.39171418
H       -0.20386612      -0.06591110       1.52357380
H        0.09784897      -0.39275087      -1.52214041
H        0.59320473      -1.58769609      -0.32126031
H        1.74932105       1.21913105      -0.58979466
H        2.49961516      -0.26539776      -1.18616159
H        3.15922532       0.40888366       1.00395531
15
Frame=15 idx=009918 GeodesicLength=0.901658187580939 rxn_smarts="[N:1]([C@@:2]([C:3]([C:4]([O:5][H:15])([H:13])[H:14])([H:11])[H:12])([C:6]#[N:7])[H:10])([H:8])[H:9]>>[N:1]([N:7]=[C:6]=[C:2]([C:3]([C:4]([O:5][H:15])([H:13])[H:14])([H:11])[H:12])[H:10])([H:8])[H:9]"
N       -2.61639607      -0.31689530       0.12104666
C       -0.53944273       0.01037297       0.48784629
C        0.47517278      -0.51921875      -0.50837843
C        1.83747253       0.13945455      -0.41043797
O        2.35927973      -0.11110888       0.88195541
C       -1.09287290       1.25654355       0.21024153
N       -2.16418060       1.66613737      -0.10743320
H       -2.55678130      -1.32751060       0.11803702
H       -3.58597774      -0.10910333       0.31353567
H       -0.19711028      -0.06830659       1.51990856
H        0.09602653      -0.39556415      -1.52499281
H        0.59235610      -1.59137743      -0.32607982
H        1.74343323       1.21801161      -0.58885441
H        2.49616117      -0.26269834      -1.18977053
H        3.15285954       0.41126331       1.00337602
15
Frame=16 idx=009918 GeodesicLength=0.9575557746297667 rxn_smarts="[N:1]([C@@:2]([C:3]([C:4]([O:5][H:15])([H:13])[H:14])([H:11])[H:12])([C:6]#[N:7])[H:10])([H:8])[H:9]>>[N:1]([N:7]=[C:6]=[C:2]([C:3]([C:4]([O:5][H:15])([H:13])[H:14])([H:11])[H:12])[H:10])([H:8])[H:9]"
N       -2.61202770      -0.30219251       0.16699118
C       -0.54507498       0.00425872       0.48934037
C        0.47130326      -0.52286861      -0.50914599
C        1.83251971       0.13734279      -0.41275948
O        2.35742477      -0.11390803       0.87838552
C       -1.08308483       1.26064637       0.21418805
N       -2.16310097       1.66554712      -0.08229209
H       -2.52144325      -1.30901087       0.14553989
H       -3.60407872      -0.12501611       0.22811278
H       -0.18939577      -0.06822761       1.51791090
H        0.09211641      -0.39991292      -1.52591591
H        0.59010624      -1.59516456      -0.32788085
H        1.73681129       1.21606022      -0.58947634
H        2.49092952      -0.26180655      -1.19387497
H        3.14699502       0.41425254       1.00087693
