12
Frame=0 idx=000542 GeodesicLength=0.0 rxn_smarts="[C:1]1([H:7])([H:8])[C@:2]2([H:9])[O:3][C:4]([H:10])([H:11])[O:5][C@:6]12[H:12]>>[C:1]([C:2](=[O:3])[H:9])([C@@:6]1([H:12])[C:4]([H:10])([H:11])[O:5]1)([H:7])[H:8]"
C        1.27344693       0.17261940       0.22137437
C        0.42965133      -0.84604988       0.89293100
O       -0.62409412      -0.57746877       1.47849653
C       -1.69957127       0.36382175      -0.23543958
O       -0.73343085       0.99018688      -0.68444674
C        0.43543829       0.06457583      -1.04676823
H        2.27297156      -0.20658139       0.00929426
H        1.31402936       1.14310796       0.72470536
H        0.73109389      -1.89608746       0.76035935
H       -1.81979012      -0.68867333      -0.48354752
H       -2.47519543       0.93513976       0.27114713
H        0.89545043       0.54540927      -1.90810589
12
Frame=1 idx=000542 GeodesicLength=0.08462245928963331 rxn_smarts="[C:1]1([H:7])([H:8])[C@:2]2([H:9])[O:3][C:4]([H:10])([H:11])[O:5][C@:6]12[H:12]>>[C:1]([C:2](=[O:3])[H:9])([C@@:6]1([H:12])[C:4]([H:10])([H:11])[O:5]1)([H:7])[H:8]"
C        1.27217605       0.18347637       0.22917109
C        0.43419648      -0.85025841       0.88686294
O       -0.62401949      -0.59094226       1.47682170
C       -1.68282421       0.36431603      -0.23035713
O       -0.72877531       1.01331191      -0.69777512
C        0.41937571       0.06667929      -1.02620088
H        2.27489919      -0.18342507       0.01176489
H        1.29863377       1.14856187       0.74223475
H        0.74271490      -1.89738636       0.75010498
H       -1.83578613      -0.67490278      -0.51355578
H       -2.45341462       0.93324113       0.28665806
H        0.88282366       0.48732828      -1.91572950
12
Frame=2 idx=000542 GeodesicLength=0.16930809378060144 rxn_smarts="[C:1]1([H:7])([H:8])[C@:2]2([H:9])[O:3][C:4]([H:10])([H:11])[O:5][C@:6]12[H:12]>>[C:1]([C:2](=[O:3])[H:9])([C@@:6]1([H:12])[C:4]([H:10])([H:11])[O:5]1)([H:7])[H:8]"
C        1.27081626       0.19459534       0.23705446
C        0.43923061      -0.85444753       0.88060895
O       -0.62357634      -0.60490087       1.47481628
C       -1.66592109       0.36429979      -0.22574538
O       -0.72409482       1.03503233      -0.71192249
C        0.40402792       0.06952439      -1.00581940
H        2.27673063      -0.15943318       0.01430220
H        1.28278001       1.15384328       0.76008702
H        0.75468938      -1.89851692       0.73884416
H       -1.85265197      -0.65944334      -0.54303575
H       -2.43062002       0.93178611       0.30164432
H        0.86858945       0.42766060      -1.92083437
12
Frame=3 idx=000542 GeodesicLength=0.253919336120687 rxn_smarts="[C:1]1([H:7])([H:8])[C@:2]2([H:9])[O:3][C:4]([H:10])([H:11])[O:5][C@:6]12[H:12]>>[C:1]([C:2](=[O:3])[H:9])([C@@:6]1([H:12])[C:4]([H:10])([H:11])[O:5]1)([H:7])[H:8]"
C        1.26948636       0.20594454       0.24501587
C        0.44477083      -0.85860048       0.87416993
O       -0.62283251      -0.61927084       1.47252737
C       -1.64908860       0.36376620      -0.22164890
O       -0.71944320       1.05535807      -0.72685717
C        0.38943771       0.07303153      -0.98577288
H        2.27864208      -0.13469986       0.01686883
H        1.26661089       1.15895955       0.77826223
H        0.76705780      -1.89949824       0.72659742
H       -1.87041863      -0.64230622      -0.57200418
H       -2.40711221       0.93075948       0.31614613
H        0.85288947       0.36655628      -1.92330462
12
Frame=4 idx=000542 GeodesicLength=0.3387185837871284 rxn_smarts="[C:1]1([H:7])([H:8])[C@:2]2([H:9])[O:3][C:4]([H:10])([H:11])[O:5][C@:6]12[H:12]>>[C:1]([C:2](=[O:3])[H:9])([C@@:6]1([H:12])[C:4]([H:10])([H:11])[O:5]1)([H:7])[H:8]"
C        1.26786760       0.21746651       0.25300937
C        0.45079331      -0.86274429       0.86750933
O       -0.62155161      -0.63418494       1.46974490
C       -1.63203064       0.36273970      -0.21813820
O       -0.71473271       1.07430073      -0.74261749
C        0.37544493       0.07721472      -0.96599145
H        2.28007105      -0.10921214       0.01952951
H        1.24976999       1.16372682       0.79647746
H        0.77982904      -1.90025177       0.71355355
H       -1.88853640      -0.62329657      -0.60037521
H       -2.38232429       0.93007460       0.33004715
H        0.83539974       0.30416662      -1.92274891
12
Frame=5 idx=000542 GeodesicLength=0.4234748656572757 rxn_smarts="[C:1]1([H:7])([H:8])[C@:2]2([H:9])[O:3][C:4]([H:10])([H:11])[O:5][C@:6]12[H:12]>>[C:1]([C:2](=[O:3])[H:9])([C@@:6]1([H:12])[C:4]([H:10])([H:11])[O:5]1)([H:7])[H:8]"
C        1.26628566       0.22914448       0.26100470
C        0.45728696      -0.86676970       0.86054198
O       -0.62002037      -0.64940248       1.46648320
C       -1.61519018       0.36116073      -0.21519265
O       -0.70998338       1.09176637      -0.75902420
C        0.36222516       0.08185133      -0.94662687
H        2.28155772      -0.08306995       0.02217159
H        1.23265727       1.16820809       0.81482916
H        0.79301390      -1.90071172       0.69954741
H       -1.90735531      -0.60254632      -0.62812843
H       -2.35694961       0.92972400       0.34341631
H        0.81647217       0.24064517      -1.91902219
12
Frame=6 idx=000542 GeodesicLength=0.508319848143639 rxn_smarts="[C:1]1([H:7])([H:8])[C@:2]2([H:9])[O:3][C:4]([H:10])([H:11])[O:5][C@:6]12[H:12]>>[C:1]([C:2](=[O:3])[H:9])([C@@:6]1([H:12])[C:4]([H:10])([H:11])[O:5]1)([H:7])[H:8]"
C        1.26463912       0.24094175       0.26897387
C        0.46421459      -0.87073232       0.85331762
O       -0.61816244      -0.66498768       1.46275617
C       -1.59849521       0.35901441      -0.21287679
O       -0.70511434       1.10779863      -0.77614069
C        0.34970253       0.08686320      -0.92777340
H        2.28289023      -0.05631339       0.02480999
H        1.21520733       1.17238188       0.83319191
H        0.80656895      -1.90095450       0.68478829
H       -1.92667709      -0.58008313      -0.65519003
H       -2.33078655       0.92967054       0.35618858
H        0.79601286       0.17640060      -1.91204551
12
Frame=7 idx=000542 GeodesicLength=0.5932813437823001 rxn_smarts="[C:1]1([H:7])([H:8])[C@:2]2([H:9])[O:3][C:4]([H:10])([H:11])[O:5][C@:6]12[H:12]>>[C:1]([C:2](=[O:3])[H:9])([C@@:6]1([H:12])[C:4]([H:10])([H:11])[O:5]1)([H:7])[H:8]"
C        1.26289962       0.25278384       0.27685438
C        0.47153673      -0.87461065       0.84582457
O       -0.61597550      -0.68084566       1.45853630
C       -1.58197648       0.35625794      -0.21121659
O       -0.70007385       1.12235344      -0.79392309
C        0.33785040       0.09209487      -0.90948233
H        2.28399458      -0.02907220       0.02740522
H        1.19743661       1.17618707       0.85141344
H        0.82044410      -1.90096286       0.66938109
H       -1.94637191      -0.55597432      -0.68141389
H       -2.30386467       0.92985809       0.36826979
H        0.77410036       0.11193043      -1.90164890
12
Frame=8 idx=000542 GeodesicLength=0.6783105653293178 rxn_smarts="[C:1]1([H:7])([H:8])[C@:2]2([H:9])[O:3][C:4]([H:10])([H:11])[O:5][C@:6]12[H:12]>>[C:1]([C:2](=[O:3])[H:9])([C@@:6]1([H:12])[C:4]([H:10])([H:11])[O:5]1)([H:7])[H:8]"
C        1.26109498       0.26459213       0.28460096
C        0.47923046      -0.87839034       0.83809171
O       -0.61349073      -0.69687856       1.45387238
C       -1.56574397       0.35284991      -0.21022412
O       -0.69485892       1.13538813      -0.81234534
C        0.32663536       0.09737555      -0.89183809
H        2.28490563      -0.00149200       0.02992502
H        1.17942741       1.17958187       0.86939391
H        0.83462500      -1.90073939       0.65345550
H       -1.96643049      -0.53028293      -0.70672878
H       -2.27631764       0.93024086       0.37962232
H        0.75092291       0.04775476      -1.88782547
12
Frame=9 idx=000542 GeodesicLength=0.7634089531963147 rxn_smarts="[C:1]1([H:7])([H:8])[C@:2]2([H:9])[O:3][C:4]([H:10])([H:11])[O:5][C@:6]12[H:12]>>[C:1]([C:2](=[O:3])[H:9])([C@@:6]1([H:12])[C:4]([H:10])([H:11])[O:5]1)([H:7])[H:8]"
C        1.25921805       0.27628347       0.29215519
C        0.48724500      -0.88206412       0.83016667
O       -0.61073270      -0.71298319       1.44882885
C       -1.54986129       0.34873323      -0.20989864
O       -0.68943383       1.14684771      -0.83137927
C        0.31599956       0.10250940      -0.87489582
H        2.28559482       0.02626948       0.03233303
H        1.16124173       1.18253267       0.88699490
H        0.84903903      -1.90030343       0.63717697
H       -1.98680570      -0.50311243      -0.73100946
H       -2.24821584       0.93076012       0.39018681
H        0.72671118      -0.01547291      -1.87065924
12
Frame=10 idx=000542 GeodesicLength=0.8487594729065039 rxn_smarts="[C:1]1([H:7])([H:8])[C@:2]2([H:9])[O:3][C:4]([H:10])([H:11])[O:5][C@:6]12[H:12]>>[C:1]([C:2](=[O:3])[H:9])([C@@:6]1([H:12])[C:4]([H:10])([H:11])[O:5]1)([H:7])[H:8]"
C        1.25715215       0.28778650       0.29941727
C        0.49549865      -0.88566866       0.82209407
O       -0.60768341      -0.72916193       1.44341096
C       -1.53428139       0.34385164      -0.21020960
O       -0.68373791       1.15670788      -0.85100897
C        0.30584013       0.10734377      -0.85863335
H        2.28586057       0.05410777       0.03458853
H        1.14282416       1.18500405       0.90393415
H        0.86358447      -1.89970728       0.62078396
H       -2.00734855      -0.47450660      -0.75406670
H       -2.21943988       0.93133858       0.39988366
H        0.70173100      -0.07709571      -1.85019398
12
Frame=11 idx=000542 GeodesicLength=0.9341281578641029 rxn_smarts="[C:1]1([H:7])([H:8])[C@:2]2([H:9])[O:3][C:4]([H:10])([H:11])[O:5][C@:6]12[H:12]>>[C:1]([C:2](=[O:3])[H:9])([C@@:6]1([H:12])[C:4]([H:10])([H:11])[O:5]1)([H:7])[H:8]"
C        1.25496699       0.29904262       0.30637138
C        0.50389921      -0.88918574       0.81399486
O       -0.60453369      -0.74521318       1.43789661
C       -1.51918426       0.33815423      -0.21110615
O       -0.67771787       1.16488310      -0.87122854
C        0.29618174       0.11162127      -0.84315574
H        2.28585523       0.08186608       0.03661291
H        1.12424019       1.18704980       0.92027409
H        0.87808390      -1.89902620       0.60432262
H       -2.02800219      -0.44474965      -0.77576634
H       -2.19023126       0.93200532       0.40883206
H        0.67644201      -0.13644765      -1.82704775
12
Frame=12 idx=000542 GeodesicLength=1.0198031211103185 rxn_smarts="[C:1]1([H:7])([H:8])[C@:2]2([H:9])[O:3][C:4]([H:10])([H:11])[O:5][C@:6]12[H:12]>>[C:1]([C:2](=[O:3])[H:9])([C@@:6]1([H:12])[C:4]([H:10])([H:11])[O:5]1)([H:7])[H:8]"
C        1.25256490       0.30995192       0.31305416
C        0.51246943      -0.89252506       0.80587513
O       -0.60105546      -0.76111056       1.43215417
C       -1.50447018       0.33158662      -0.21261642
O       -0.67139298       1.17127717      -0.89192448
C        0.28676560       0.11526980      -0.82835475
H        2.28533029       0.10943351       0.03857110
H        1.10559669       1.18845312       0.93595531
H        0.89263514      -1.89799549       0.58802200
H       -2.04885723      -0.41360040      -0.79612121
H       -2.16041192       0.93251845       0.41682683
H        0.65082572      -0.19325909      -1.80144183
12
Frame=13 idx=000542 GeodesicLength=1.1055132742316987 rxn_smarts="[C:1]1([H:7])([H:8])[C@:2]2([H:9])[O:3][C:4]([H:10])([H:11])[O:5][C@:6]12[H:12]>>[C:1]([C:2](=[O:3])[H:9])([C@@:6]1([H:12])[C:4]([H:10])([H:11])[O:5]1)([H:7])[H:8]"
C        1.25008738       0.32054172       0.31943960
C        0.52114605      -0.89580259       0.79786744
O       -0.59754830      -0.77688517       1.42644323
C       -1.49041268       0.32415775      -0.21465825
O       -0.66475611       1.17598621      -0.91315863
C        0.27766826       0.11817793      -0.81428135
H        2.28462131       0.13679609       0.04037890
H        1.08694431       1.18941272       0.95098140
H        0.90718252      -1.89690742       0.57197581
H       -2.07000869      -0.38124621      -0.81501066
H       -2.13033599       0.93298896       0.42403499
H        0.62541194      -0.24721998      -1.77401247
12
Frame=14 idx=000542 GeodesicLength=1.1916520594061748 rxn_smarts="[C:1]1([H:7])([H:8])[C@:2]2([H:9])[O:3][C:4]([H:10])([H:11])[O:5][C@:6]12[H:12]>>[C:1]([C:2](=[O:3])[H:9])([C@@:6]1([H:12])[C:4]([H:10])([H:11])[O:5]1)([H:7])[H:8]"
C        1.24704327       0.33067321       0.32542875
C        0.52992891      -0.89904822       0.78990430
O       -0.59362312      -0.79255592       1.42044961
C       -1.47661123       0.31595326      -0.21722113
O       -0.65782369       1.17902396      -0.93482751
C        0.26867747       0.12032889      -0.80063320
H        2.28290806       0.16378586       0.04210224
H        1.06770028       1.18966714       0.96492443
H        0.92177551      -1.89570890       0.55635812
H       -2.09066441      -0.34754449      -0.83193787
H       -2.09947057       0.93340257       0.43009307
H        0.60015952      -0.29797735      -1.74464079
12
Frame=15 idx=000542 GeodesicLength=1.2777338563121556 rxn_smarts="[C:1]1([H:7])([H:8])[C@:2]2([H:9])[O:3][C:4]([H:10])([H:11])[O:5][C@:6]12[H:12]>>[C:1]([C:2](=[O:3])[H:9])([C@@:6]1([H:12])[C:4]([H:10])([H:11])[O:5]1)([H:7])[H:8]"
C        1.24395481       0.34048847       0.33114410
C        0.53865069      -0.90219293       0.78216288
O       -0.58979410      -0.80790574       1.41478529
C       -1.46358300       0.30681640      -0.22018987
O       -0.65052105       1.18040655      -0.95687872
C        0.25988440       0.12166885      -0.78764756
H        2.28104157       0.19044085       0.04367057
H        1.04863518       1.18960576       0.97826104
H        0.93601316      -1.89448955       0.54102136
H       -2.11143165      -0.31288662      -0.84726728
H       -2.06855925       0.93358613       0.43543191
H        0.57570924      -0.34553816      -1.71449372
12
Frame=16 idx=000542 GeodesicLength=1.3639081092527232 rxn_smarts="[C:1]1([H:7])([H:8])[C@:2]2([H:9])[O:3][C:4]([H:10])([H:11])[O:5][C@:6]12[H:12]>>[C:1]([C:2](=[O:3])[H:9])([C@@:6]1([H:12])[C:4]([H:10])([H:11])[O:5]1)([H:7])[H:8]"
C        1.24060657       0.34993919       0.33655899
C        0.54731625      -0.90525163       0.77460884
O       -0.58589266      -0.82294880       1.40932461
C       -1.45118056       0.29681633      -0.22353007
O       -0.64288707       1.18019890      -0.97923854
C        0.25117878       0.12225656      -0.77514565
H        2.27867820       0.21668846       0.04513050
H        1.02947125       1.18912340       0.99082621
H        0.94993601      -1.89323192       0.52602543
H       -2.13186912      -0.27717418      -0.86078579
H       -2.03743752       0.93351350       0.43990481
H        0.55207986      -0.38992981      -1.68367934
