18
Frame=0 idx=000844 GeodesicLength=0.0 rxn_smarts="[C:1]([C:2]([C@@:3]1([H:12])[C:4]([H:13])([H:14])[C@:5]1([C:6]([H:16])([H:17])[H:18])[H:15])([H:10])[H:11])([H:7])([H:8])[H:9]>>[C:1]1([H:7])([H:9])[C:2]([H:10])([H:11])[C:3]1([C:4]([C:5]([C:6]([H:16])([H:17])[H:18])([H:8])[H:15])([H:13])[H:14])[H:12]"
C        1.71667063       0.90553394      -0.48864831
C        1.59733915      -0.42012360       0.25568920
C        0.56428225      -1.22310864      -0.35674252
C       -0.79192537      -1.29322925       0.19311041
C       -1.01108737       0.12742366      -0.35143475
C       -1.69919315       1.06706708       0.63229035
H        1.62275522       0.78909839      -1.57377173
H        0.02264427       0.75414195      -0.50613772
H        2.62922824       1.46408935      -0.25508503
H        1.44996280      -0.28630956       1.33113222
H        2.54119099      -0.97401349       0.10842615
H        0.72750497      -1.54455013      -1.38123558
H       -0.82325146      -1.31746569       1.28277182
H       -1.44142641      -2.05822317      -0.22597519
H       -1.50936432       0.08262700      -1.31694050
H       -2.70018043       0.71125770       0.89163291
H       -1.77710675       2.06987482       0.20796402
H       -1.11804334       1.14590970       1.55295424
18
Frame=1 idx=000844 GeodesicLength=0.09173603866090936 rxn_smarts="[C:1]([C:2]([C@@:3]1([H:12])[C:4]([H:13])([H:14])[C@:5]1([C:6]([H:16])([H:17])[H:18])[H:15])([H:10])[H:11])([H:7])([H:8])[H:9]>>[C:1]1([H:7])([H:9])[C:2]([H:10])([H:11])[C:3]1([C:4]([C:5]([C:6]([H:16])([H:17])[H:18])([H:8])[H:15])([H:13])[H:14])[H:12]"
C        1.72844202       0.88351549      -0.51246297
C        1.60585357      -0.41653366       0.27037935
C        0.56655471      -1.20016194      -0.36057322
C       -0.79080211      -1.28845158       0.18712209
C       -1.00898141       0.13590449      -0.34373220
C       -1.71298886       1.05954572       0.64325861
H        1.61502902       0.77979193      -1.59610446
H        0.03316509       0.79075454      -0.49837346
H        2.65579872       1.42876237      -0.30815312
H        1.43923428      -0.25395856       1.33832270
H        2.54387314      -0.98379791       0.14732764
H        0.74137787      -1.54939728      -1.37337585
H       -0.82406664      -1.32961049       1.27607146
H       -1.43586203      -2.04953702      -0.24565332
H       -1.50283643       0.09902111      -1.31231641
H       -2.71664982       0.69786441       0.88340151
H       -1.79192239       2.06768177       0.23184311
H       -1.14521871       1.12860661       1.57301854
18
Frame=2 idx=000844 GeodesicLength=0.18307772349474233 rxn_smarts="[C:1]([C:2]([C@@:3]1([H:12])[C:4]([H:13])([H:14])[C@:5]1([C:6]([H:16])([H:17])[H:18])[H:15])([H:10])[H:11])([H:7])([H:8])[H:9]>>[C:1]1([H:7])([H:9])[C:2]([H:10])([H:11])[C:3]1([C:4]([C:5]([C:6]([H:16])([H:17])[H:18])([H:8])[H:15])([H:13])[H:14])[H:12]"
C        1.73900140       0.86123146      -0.53530669
C        1.61406934      -0.41285522       0.28455614
C        0.56888245      -1.17756773      -0.36434268
C       -0.78948434      -1.28364524       0.18129458
C       -1.00671624       0.14421916      -0.33611643
C       -1.72632121       1.05206004       0.65365516
H        1.60622816       0.77236834      -1.61720244
H        0.04430039       0.82757638      -0.49038759
H        2.68041823       1.39193379      -0.35951737
H        1.42974762      -0.22204757       1.34425250
H        2.54582657      -0.99265007       0.18475575
H        0.75510911      -1.55527989      -1.36426839
H       -0.82431973      -1.34142426       1.26929640
H       -1.43029079      -2.04062636      -0.26474487
H       -1.49608043       0.11523280      -1.30771006
H       -2.73240917       0.68499263       0.87469414
H       -1.80616710       2.06528889       0.25501012
H       -1.17179427       1.11119285       1.59208171
18
Frame=3 idx=000844 GeodesicLength=0.27407390875698584 rxn_smarts="[C:1]([C:2]([C@@:3]1([H:12])[C:4]([H:13])([H:14])[C@:5]1([C:6]([H:16])([H:17])[H:18])[H:15])([H:10])[H:11])([H:7])([H:8])[H:9]>>[C:1]1([H:7])([H:9])[C:2]([H:10])([H:11])[C:3]1([C:4]([C:5]([C:6]([H:16])([H:17])[H:18])([H:8])[H:15])([H:13])[H:14])[H:12]"
C        1.74829449       0.83879725      -0.55717801
C        1.62195456      -0.40908490       0.29819323
C        0.57123299      -1.15540596      -0.36808016
C       -0.78801174      -1.27887316       0.17562482
C       -1.00434557       0.15229327      -0.32861329
C       -1.73911998       1.04462350       0.66348357
H        1.59653284       0.76681296      -1.63700733
H        0.05607195       0.86450269      -0.48232266
H        2.70297538       1.35385007      -0.40911156
H        1.42141962      -0.19065789       1.34898643
H        2.54712010      -1.00055418       0.22072687
H        0.76864085      -1.56207276      -1.35393470
H       -0.82406347      -1.35295032       1.26245830
H       -1.42475591      -2.03157720      -0.28324217
H       -1.48918254       0.13118601      -1.30312915
H       -2.74740121       0.67270952       0.86559895
H       -1.81972930       2.06270766       0.27743629
H       -1.19763307       1.09369343       1.61011057
18
Frame=4 idx=000844 GeodesicLength=0.36476364529884153 rxn_smarts="[C:1]([C:2]([C@@:3]1([H:12])[C:4]([H:13])([H:14])[C@:5]1([C:6]([H:16])([H:17])[H:18])[H:15])([H:10])[H:11])([H:7])([H:8])[H:9]>>[C:1]1([H:7])([H:9])[C:2]([H:10])([H:11])[C:3]1([C:4]([C:5]([C:6]([H:16])([H:17])[H:18])([H:8])[H:15])([H:13])[H:14])[H:12]"
C        1.75629029       0.81633207      -0.57808360
C        1.62947806      -0.40521275       0.31127150
C        0.57357379      -1.13374067      -0.37181178
C       -0.78642259      -1.27419640       0.17011036
C       -1.00192713       0.16005462      -0.32124880
C       -1.75133172       1.03724640       0.67275651
H        1.58613697       0.76308411      -1.65547738
H        0.06849177       0.90144489      -0.47432028
H        2.72343163       1.31472666      -0.45690972
H        1.41415436      -0.15985333       1.35259727
H        2.54781962      -1.00750128       0.25528154
H        0.78191590      -1.56962495      -1.34241475
H       -0.82335188      -1.36423455       1.25556969
H       -1.41929280      -2.02247856      -0.30114292
H       -1.48222846       0.14680595      -1.29858501
H       -2.76159627       0.66106307       0.85620512
H       -1.83251804       2.05995143       0.29910927
H       -1.22262347       1.07613330       1.62709296
18
Frame=5 idx=000844 GeodesicLength=0.45520329940745774 rxn_smarts="[C:1]([C:2]([C@@:3]1([H:12])[C:4]([H:13])([H:14])[C@:5]1([C:6]([H:16])([H:17])[H:18])[H:15])([H:10])[H:11])([H:7])([H:8])[H:9]>>[C:1]1([H:7])([H:9])[C:2]([H:10])([H:11])[C:3]1([C:4]([C:5]([C:6]([H:16])([H:17])[H:18])([H:8])[H:15])([H:13])[H:14])[H:12]"
C        1.76299910       0.79395041      -0.59805687
C        1.63661381      -0.40122455       0.32378848
C        0.57587354      -1.11261847      -0.37556370
C       -0.78475409      -1.26967099       0.16474442
C       -0.99952286       0.16743809      -0.31404572
C       -1.76292578       1.02993001       0.68149430
H        1.57523980       0.76108911      -1.67259702
H        0.08156786       0.93834985      -0.46651001
H        2.74180654       1.27475260      -0.50291958
H        1.40783506      -0.12967214       1.35516186
H        2.54798669      -1.01349207       0.28848994
H        0.79488704      -1.57777053      -1.32976649
H       -0.82223822      -1.37532627       1.24863711
H       -1.41392812      -2.01341333      -0.31845581
H       -1.47530213       0.16202980      -1.29408880
H       -2.77497976       0.65008525       0.84660879
H       -1.84447800       2.05702783       0.32003849
H       -1.24668049       1.05853541       1.64304060
18
Frame=6 idx=000844 GeodesicLength=0.5454302359270671 rxn_smarts="[C:1]([C:2]([C@@:3]1([H:12])[C:4]([H:13])([H:14])[C@:5]1([C:6]([H:16])([H:17])[H:18])[H:15])([H:10])[H:11])([H:7])([H:8])[H:9]>>[C:1]1([H:7])([H:9])[C:2]([H:10])([H:11])[C:3]1([C:4]([C:5]([C:6]([H:16])([H:17])[H:18])([H:8])[H:15])([H:13])[H:14])[H:12]"
C        1.76842593       0.77175494      -0.61709808
C        1.64334605      -0.39711273       0.33572905
C        0.57810096      -1.09208254      -0.37935514
C       -0.78303927      -1.26535019       0.15952861
C       -0.99718511       0.17438242      -0.30702160
C       -1.77388026       1.02268044       0.68972149
H        1.56404272       0.76073041      -1.68835109
H        0.09531847       0.97516995      -0.45900144
H        2.75810981       1.23410133      -0.54715333
H        1.40236247      -0.10014611       1.35675034
H        2.54767812      -1.01852530       0.32040211
H        0.80749430      -1.58634343      -1.31607582
H       -0.82076611      -1.38626475       1.24167748
H       -1.40868748      -2.00446416      -0.33517855
H       -1.46846684       0.17680039      -1.28965313
H       -2.78755423       0.63979970       0.83689130
H       -1.85555230       2.05394542       0.34021990
H       -1.26974724       1.04092422       1.65796790
18
Frame=7 idx=000844 GeodesicLength=0.6354825502107705 rxn_smarts="[C:1]([C:2]([C@@:3]1([H:12])[C:4]([H:13])([H:14])[C@:5]1([C:6]([H:16])([H:17])[H:18])[H:15])([H:10])[H:11])([H:7])([H:8])[H:9]>>[C:1]1([H:7])([H:9])[C:2]([H:10])([H:11])[C:3]1([C:4]([C:5]([C:6]([H:16])([H:17])[H:18])([H:8])[H:15])([H:13])[H:14])[H:12]"
C        1.77259907       0.74984100      -0.63522562
C        1.64966550      -0.39286220       0.34708877
C        0.58022929      -1.07215745      -0.38320686
C       -0.78130541      -1.26127633       0.15446272
C       -0.99496288       0.18083843      -0.30019403
C       -1.78419747       1.01549419       0.69746418
H        1.55274318       0.76188455      -1.70274726
H        0.10975671       1.01188956      -0.45188462
H        2.77238871       1.19288960      -0.58963395
H        1.39764061      -0.07129748       1.35742408
H        2.54694516      -1.02259654       0.35107619
H        0.81969174      -1.59518329      -1.30143054
H       -0.81897311      -1.39708700       1.23470485
H       -1.40358667      -1.99569889      -0.35131214
H       -1.46178283       0.19107267      -1.28528945
H       -2.79933583       0.63021394       0.82713142
H       -1.86572294       2.05071227       0.35967074
H       -1.29179287       1.02332297       1.67190151
18
Frame=8 idx=000844 GeodesicLength=0.7254071674952234 rxn_smarts="[C:1]([C:2]([C@@:3]1([H:12])[C:4]([H:13])([H:14])[C@:5]1([C:6]([H:16])([H:17])[H:18])[H:15])([H:10])[H:11])([H:7])([H:8])[H:9]>>[C:1]1([H:7])([H:9])[C:2]([H:10])([H:11])[C:3]1([C:4]([C:5]([C:6]([H:16])([H:17])[H:18])([H:8])[H:15])([H:13])[H:14])[H:12]"
C        1.77557421       0.72829549      -0.65247229
C        1.65556596      -0.38846293       0.35787841
C        0.58223547      -1.05285157      -0.38712961
C       -0.77957744      -1.25748898       0.14954277
C       -0.99290376       0.18676140      -0.29357328
C       -1.79388876       1.00836709       0.70476059
H        1.54150393       0.76441947      -1.71581682
H        0.12490460       1.04852175      -0.44521839
H        2.78474314       1.15121189      -0.63046140
H        1.39355747      -0.04311212       1.35726086
H        2.54582609      -1.02572512       0.38060655
H        0.83144560      -1.60412490      -1.28592986
H       -0.81690064      -1.40783578       1.22772874
H       -1.39863299      -1.98718679      -0.36687630
H       -1.45529075       0.20481633      -1.28101158
H       -2.81036607       0.62132034       0.81739207
H       -1.87497745       2.04733271       0.37842390
H       -1.31281861       1.00574171       1.68489565
18
Frame=9 idx=000844 GeodesicLength=0.8155120003279346 rxn_smarts="[C:1]([C:2]([C@@:3]1([H:12])[C:4]([H:13])([H:14])[C@:5]1([C:6]([H:16])([H:17])[H:18])[H:15])([H:10])[H:11])([H:7])([H:8])[H:9]>>[C:1]1([H:7])([H:9])[C:2]([H:10])([H:11])[C:3]1([C:4]([C:5]([C:6]([H:16])([H:17])[H:18])([H:8])[H:15])([H:13])[H:14])[H:12]"
C        1.77759738       0.70706063      -0.66900928
C        1.66106175      -0.38387030       0.36813617
C        0.58411375      -1.03404040      -0.39112388
C       -0.77784817      -1.25397467       0.14476147
C       -0.99107887       0.19216937      -0.28712936
C       -1.80307130       1.00123829       0.71167157
H        1.53044274       0.76815560      -1.72762060
H        0.14077990       1.08531576      -0.43882798
H        2.79554142       1.10888535      -0.67001597
H        1.38996784      -0.01540177       1.35627538
H        2.54428085      -1.02797944       0.40922766
H        0.84276820      -1.61303256      -1.26969518
H       -0.81454615      -1.41854290       1.22074282
H       -1.39376927      -1.97894152      -0.38192282
H       -1.44900085       0.21810803      -1.27681957
H       -2.82075666       0.61299301       0.80767576
H       -1.88346763       2.04376057       0.39658238
H       -1.33301493       0.98809696       1.69709143
18
Frame=10 idx=000844 GeodesicLength=0.9055417063134261 rxn_smarts="[C:1]([C:2]([C@@:3]1([H:12])[C:4]([H:13])([H:14])[C@:5]1([C:6]([H:16])([H:17])[H:18])[H:15])([H:10])[H:11])([H:7])([H:8])[H:9]>>[C:1]1([H:7])([H:9])[C:2]([H:10])([H:11])[C:3]1([C:4]([C:5]([C:6]([H:16])([H:17])[H:18])([H:8])[H:15])([H:13])[H:14])[H:12]"
C        1.77853082       0.68631947      -0.68472044
C        1.66613777      -0.37911016       0.37785569
C        0.58583012      -1.01584173      -0.39520226
C       -0.77616142      -1.25080386       0.14012317
C       -0.98949421       0.19698317      -0.28090861
C       -1.81166438       0.99415253       0.71819360
H        1.51971180       0.77299953      -1.73817932
H        0.15743394       1.12208920      -0.43293889
H        2.80453987       1.06623664      -0.70806870
H        1.38683779       0.01166678       1.35457785
H        2.54241525      -1.02932317       0.43684376
H        0.85359909      -1.62177654      -1.25279935
H       -0.81196752      -1.42923546       1.21377225
H       -1.38905671      -1.97104975      -0.39642796
H       -1.44296379       0.23083403      -1.27273494
H       -2.83047580       0.60533311       0.79807437
H       -1.89103510       2.04004719       0.41410329
H       -1.35221751       0.97047902       1.70843650
18
Frame=11 idx=000844 GeodesicLength=0.9955045757922012 rxn_smarts="[C:1]([C:2]([C@@:3]1([H:12])[C:4]([H:13])([H:14])[C@:5]1([C:6]([H:16])([H:17])[H:18])[H:15])([H:10])[H:11])([H:7])([H:8])[H:9]>>[C:1]1([H:7])([H:9])[C:2]([H:10])([H:11])[C:3]1([C:4]([C:5]([C:6]([H:16])([H:17])[H:18])([H:8])[H:15])([H:13])[H:14])[H:12]"
C        1.77841438       0.66611905      -0.69961042
C        1.67080197      -0.37417628       0.38704035
C        0.58736576      -0.99825952      -0.39936799
C       -0.77453289      -1.24800329       0.13562977
C       -0.98817777       0.20117260      -0.27492156
C       -1.81968140       0.98710920       0.72434928
H        1.50943785       0.77881441      -1.74751881
H        0.17491213       1.15886946      -0.42758699
H        2.81172001       1.02334711      -0.74462348
H        1.38409769       0.03808889       1.35222065
H        2.54027131      -1.02975934       0.46347811
H        0.86390921      -1.63024777      -1.23535506
H       -0.80918655      -1.43993449       1.20683280
H       -1.38449797      -1.96355988      -0.41039406
H       -1.43719827       0.24297199      -1.26877074
H       -2.83955259       0.59833746       0.78863429
H       -1.89767453       2.03619785       0.43100360
H       -1.37042832       0.95291255       1.71896026
18
Frame=12 idx=000844 GeodesicLength=1.0854063227390114 rxn_smarts="[C:1]([C:2]([C@@:3]1([H:12])[C:4]([H:13])([H:14])[C@:5]1([C:6]([H:16])([H:17])[H:18])[H:15])([H:10])[H:11])([H:7])([H:8])[H:9]>>[C:1]1([H:7])([H:9])[C:2]([H:10])([H:11])[C:3]1([C:4]([C:5]([C:6]([H:16])([H:17])[H:18])([H:8])[H:15])([H:13])[H:14])[H:12]"
C        1.77732332       0.64649854      -0.71371943
C        1.67506357      -0.36906913       0.39571922
C        0.58870276      -0.98127703      -0.40361979
C       -0.77297805      -1.24559403       0.13127696
C       -0.98716141       0.20471886      -0.26917877
C       -1.82715354       0.98009897       0.73017167
H        1.49970578       0.78544817      -1.75571642
H        0.19327009       1.19571480      -0.42275903
H        2.81716862       0.98031274      -0.77978510
H        1.38165118       0.06388846       1.34926912
H        2.53787001      -1.02932924       0.48921631
H        0.87369655      -1.63834695      -1.21745924
H       -0.80623089      -1.45066737       1.19993049
H       -1.38009050      -1.95651368      -0.42384477
H       -1.43172392       0.25451777      -1.26494097
H       -2.84803727       0.59198797       0.77939251
H       -1.90338650       2.03221679       0.44732180
H       -1.38768980       0.93539434       1.72872545
18
Frame=13 idx=000844 GeodesicLength=1.1752601889841763 rxn_smarts="[C:1]([C:2]([C@@:3]1([H:12])[C:4]([H:13])([H:14])[C@:5]1([C:6]([H:16])([H:17])[H:18])[H:15])([H:10])[H:11])([H:7])([H:8])[H:9]>>[C:1]1([H:7])([H:9])[C:2]([H:10])([H:11])[C:3]1([C:4]([C:5]([C:6]([H:16])([H:17])[H:18])([H:8])[H:15])([H:13])[H:14])[H:12]"
C        1.77531595       0.62748670      -0.72707692
C        1.67892958      -0.36379256       0.40391985
C        0.58982614      -0.96487098      -0.40795322
C       -0.77150729      -1.24359396       0.12706278
C       -0.98647270       0.20760494      -0.26368664
C       -1.83411192       0.97311479       0.73568288
H        1.49058869       0.79277722      -1.76283151
H        0.21257414       1.23269253      -0.41843023
H        2.82095222       0.93718718      -0.81365328
H        1.37942249       0.08908992       1.34577991
H        2.53523353      -1.02806349       0.51412015
H        0.88296065      -1.64599143      -1.19920889
H       -0.80312280      -1.46145542       1.19307535
H       -1.37582602      -1.94995295      -0.43679949
H       -1.42654704       0.26546737      -1.26126004
H       -2.85599180       0.58625891       0.77037421
H       -1.90817820       2.02810946       0.46309188
H       -1.40404562       0.91793176       1.73779323
18
Frame=14 idx=000844 GeodesicLength=1.2650612766141154 rxn_smarts="[C:1]([C:2]([C@@:3]1([H:12])[C:4]([H:13])([H:14])[C@:5]1([C:6]([H:16])([H:17])[H:18])[H:15])([H:10])[H:11])([H:7])([H:8])[H:9]>>[C:1]1([H:7])([H:9])[C:2]([H:10])([H:11])[C:3]1([C:4]([C:5]([C:6]([H:16])([H:17])[H:18])([H:8])[H:15])([H:13])[H:14])[H:12]"
C        1.77244153       0.60910745      -0.73971540
C        1.68240818      -0.35835363       0.41167332
C        0.59072354      -0.94902606      -0.41236233
C       -0.77013204      -1.24202162       0.12297958
C       -0.98613603       0.20981471      -0.25846388
C       -1.84058091       0.96615360       0.74091574
H        1.48212731       0.80065773      -1.76894858
H        0.23290892       1.26986214      -0.41458809
H        2.82311046       0.89407065      -0.84627838
H        1.37732437       0.11370876       1.34181465
H        2.53238763      -1.02599063       0.53824839
H        0.89171468      -1.65312076      -1.18069180
H       -0.79988621      -1.47232024       1.18627141
H       -1.37169794      -1.94391439      -0.44928282
H       -1.42168849       0.27581588      -1.25774489
H       -2.86345625       0.58114179       0.76161120
H       -1.91204402       2.02388472       0.47834921
H       -1.41952474       0.90052990       1.74621267
18
Frame=15 idx=000844 GeodesicLength=1.3548129963786548 rxn_smarts="[C:1]([C:2]([C@@:3]1([H:12])[C:4]([H:13])([H:14])[C@:5]1([C:6]([H:16])([H:17])[H:18])[H:15])([H:10])[H:11])([H:7])([H:8])[H:9]>>[C:1]1([H:7])([H:9])[C:2]([H:10])([H:11])[C:3]1([C:4]([C:5]([C:6]([H:16])([H:17])[H:18])([H:8])[H:15])([H:13])[H:14])[H:12]"
C        1.76874631       0.59137334      -0.75166777
C        1.68550372      -0.35276240       0.41901246
C        0.59138415      -0.93371907      -0.41684017
C       -0.76885914      -1.24089316       0.11902231
C       -0.98617580       0.21133307      -0.25352431
C       -1.84658488       0.95921143       0.74589351
H        1.47434701       0.80896782      -1.77414656
H        0.25437010       1.30729287      -0.41120443
H        2.82367890       0.85104758      -0.87771623
H        1.37528429       0.13776865       1.33742346
H        2.52934695      -1.02314429       0.56165979
H        0.89997132      -1.65968487      -1.16199449
H       -0.79654081      -1.48328034       1.17952359
H       -1.36769409      -1.93843577      -0.46131760
H       -1.41716124       0.28555876      -1.25441151
H       -2.87047698       0.57662173       0.75312736
H       -1.91497668       2.01955059       0.49312128
H       -1.43416314       0.88319406       1.75403931
18
Frame=16 idx=000844 GeodesicLength=1.444521167250739 rxn_smarts="[C:1]([C:2]([C@@:3]1([H:12])[C:4]([H:13])([H:14])[C@:5]1([C:6]([H:16])([H:17])[H:18])[H:15])([H:10])[H:11])([H:7])([H:8])[H:9]>>[C:1]1([H:7])([H:9])[C:2]([H:10])([H:11])[C:3]1([C:4]([C:5]([C:6]([H:16])([H:17])[H:18])([H:8])[H:15])([H:13])[H:14])[H:12]"
C        1.76426505       0.57428955      -0.76296453
C        1.68821733      -0.34702841       0.42596778
C        0.59179734      -0.91892644      -0.42138132
C       -0.76769501      -1.24022283       0.11518445
C       -0.98661707       0.21214794      -0.24888374
C       -1.85214525       0.95228476       0.75063641
H        1.46725703       0.81759247      -1.77850754
H        0.27706866       1.34505670      -0.40824901
H        2.82268729       0.80820161      -0.90798772
H        1.37323607       0.16128927       1.33264536
H        2.52612340      -1.01954809       0.58440369
H        0.90774564      -1.66565099      -1.14319835
H       -0.79310233      -1.49435157       1.17283661
H       -1.36380319      -1.93355256      -0.47292437
H       -1.41298322       0.29469158      -1.25127574
H       -2.87709409       0.57268446       0.74495261
H       -1.91697323       2.01511020       0.50742976
H       -1.44798443       0.86593235       1.76131565
