18
Frame=0 idx=011568 GeodesicLength=0.0 rxn_smarts="[C:1]([C:2]([C@@:3]([C:4]([H:14])([H:15])[H:16])([N:5]([C:6](=[O:7])[H:18])[H:17])[H:13])([H:11])[H:12])([H:8])([H:9])[H:10]>>[C:1]([C@@:2]1([H:12])[C@:3]([C:4]([H:14])([H:15])[H:16])([H:13])[N:5]([H:17])[C@@:6]1([O:7][H:11])[H:18])([H:8])([H:9])[H:10]"
C       -1.75457310      -0.57028220      -0.04149478
C       -0.72014407       0.30513799      -0.71960346
C        0.45981002       0.69872028       0.18889201
C        0.21146091       0.96414512       1.67209699
N        1.33853529      -0.45725357       0.02025658
C        1.25415150      -1.03114406      -1.17395222
O        1.36900060      -0.45646865      -2.36653574
H       -1.31339137      -1.48150249       0.38197997
H       -2.30507253      -0.08101457       0.77798460
H       -2.50253796      -0.89698823      -0.76727741
H        0.67391961       0.22709678      -2.34534350
H       -1.20953575       1.19685897      -1.13567270
H        0.95378383       1.58148017      -0.23166900
H       -0.50222581       1.78245143       1.77320436
H       -0.22111345       0.08981545       2.16463879
H        1.12489807       1.24815720       2.20136928
H        1.57160758      -1.04591751       0.80386173
H        1.57142670      -2.07329207      -1.20273555
18
Frame=1 idx=011568 GeodesicLength=0.13300579145507488 rxn_smarts="[C:1]([C:2]([C@@:3]([C:4]([H:14])([H:15])[H:16])([N:5]([C:6](=[O:7])[H:18])[H:17])[H:13])([H:11])[H:12])([H:8])([H:9])[H:10]>>[C:1]([C@@:2]1([H:12])[C@:3]([C:4]([H:14])([H:15])[H:16])([H:13])[N:5]([H:17])[C@@:6]1([O:7][H:11])[H:18])([H:8])([H:9])[H:10]"
C       -1.75304467      -0.58092061      -0.06059804
C       -0.71159889       0.30439660      -0.71465894
C        0.46671509       0.69986660       0.19324081
C        0.21876689       0.97646498       1.67336676
N        1.34477094      -0.45620591       0.03084670
C        1.25530674      -1.03173824      -1.16568916
O        1.35535964      -0.46084214      -2.36004966
H       -1.31837895      -1.50474539       0.34066747
H       -2.29990692      -0.11057587       0.77130901
H       -2.50211914      -0.88790329      -0.79377476
H        0.62652392       0.23073265      -2.33688694
H       -1.20747712       1.20075505      -1.11246512
H        0.96236479       1.57990627      -0.23125552
H       -0.48938204       1.79999884       1.77158097
H       -0.21520522       0.10570966       2.17091616
H        1.13363745       1.26022723       2.20021087
H        1.57133138      -1.04755475       0.81433930
H        1.56233611      -2.07757167      -1.19109989
18
Frame=2 idx=011568 GeodesicLength=0.2659768283235949 rxn_smarts="[C:1]([C:2]([C@@:3]([C:4]([H:14])([H:15])[H:16])([N:5]([C:6](=[O:7])[H:18])[H:17])[H:13])([H:11])[H:12])([H:8])([H:9])[H:10]>>[C:1]([C@@:2]1([H:12])[C@:3]([C:4]([H:14])([H:15])[H:16])([H:13])[N:5]([H:17])[C@@:6]1([O:7][H:11])[H:18])([H:8])([H:9])[H:10]"
C       -1.75156633      -0.59181968      -0.07974822
C       -0.70343808       0.30321488      -0.70942807
C        0.47339416       0.70093917       0.19751913
C        0.22627380       0.98911130       1.67447632
N        1.35068478      -0.45529507       0.04145675
C        1.25619394      -1.03228666      -1.15751346
O        1.34323593      -0.46529969      -2.35334583
H       -1.32332295      -1.52812157       0.29768339
H       -2.29402621      -0.14147240       0.76503422
H       -2.50234616      -0.87805459      -0.81950899
H        0.58021964       0.23584431      -2.32753356
H       -1.20586521       1.20363986      -1.08919490
H        0.97056726       1.57817807      -0.23119746
H       -0.47619935       1.81792524       1.76967457
H       -0.20903211       0.12217034       2.17741796
H        1.14273405       1.27265370       2.19858939
H        1.57055698      -1.04932461       0.82482688
H        1.55193587      -2.08200260      -1.17920810
18
Frame=3 idx=011568 GeodesicLength=0.39890972593210783 rxn_smarts="[C:1]([C:2]([C@@:3]([C:4]([H:14])([H:15])[H:16])([N:5]([C:6](=[O:7])[H:18])[H:17])[H:13])([H:11])[H:12])([H:8])([H:9])[H:10]>>[C:1]([C@@:2]1([H:12])[C@:3]([C:4]([H:14])([H:15])[H:16])([H:13])[N:5]([H:17])[C@@:6]1([O:7][H:11])[H:18])([H:8])([H:9])[H:10]"
C       -1.75013540      -0.60297278      -0.09896202
C       -0.69565452       0.30159448      -0.70391214
C        0.47985325       0.70193031       0.20173105
C        0.23397721       1.00207967       1.67541741
N        1.35626851      -0.45453934       0.05210414
C        1.25676606      -1.03285532      -1.14938436
O        1.33267256      -0.46988725      -2.34642610
H       -1.32823812      -1.55153240       0.25296838
H       -2.28737834      -0.17377609       0.75910768
H       -2.50323284      -0.86743097      -0.84441268
H        0.53485408       0.24249731      -2.31736741
H       -1.20470401       1.20555040      -1.06581205
H        0.97841337       1.57627438      -0.23149033
H       -0.46267797       1.83622643       1.76745984
H       -0.20260754       0.13920516       2.18413183
H        1.15217898       1.28542122       2.19650406
H        1.56928013      -1.05122205       0.83535461
H        1.54036458      -2.08656316      -1.16701191
18
Frame=4 idx=011568 GeodesicLength=0.5318027274606341 rxn_smarts="[C:1]([C:2]([C@@:3]([C:4]([H:14])([H:15])[H:16])([N:5]([C:6](=[O:7])[H:18])[H:17])[H:13])([H:11])[H:12])([H:8])([H:9])[H:10]>>[C:1]([C@@:2]1([H:12])[C@:3]([C:4]([H:14])([H:15])[H:16])([H:13])[N:5]([H:17])[C@@:6]1([O:7][H:11])[H:18])([H:8])([H:9])[H:10]"
C       -1.74874741      -0.61437213      -0.11825711
C       -0.68824134       0.29953863      -0.69811334
C        0.48609823       0.70283295       0.20587942
C        0.24187258       1.01536572       1.67617989
N        1.36151346      -0.45395628       0.06280634
C        1.25697369      -1.03350878      -1.14126018
O        1.32371522      -0.47465646      -2.33928864
H       -1.33313924      -1.57486934       0.20646355
H       -2.27990631      -0.20756213       0.75346610
H       -2.50479066      -0.85602591      -0.86841119
H        0.49026991       0.25076168      -2.30646097
H       -1.20399875       1.20652097      -1.04226169
H        0.98592504       1.57417387      -0.23213099
H       -0.44881769       1.85489817       1.76490964
H       -0.19594595       0.15682232       2.19104214
H        1.16196293       1.29851398       2.19395261
H        1.56749657      -1.05324110       0.84595304
H        1.52775972      -2.09123618      -1.15446862
18
Frame=5 idx=011568 GeodesicLength=0.6646563320269558 rxn_smarts="[C:1]([C:2]([C@@:3]([C:4]([H:14])([H:15])[H:16])([N:5]([C:6](=[O:7])[H:18])[H:17])[H:13])([H:11])[H:12])([H:8])([H:9])[H:10]>>[C:1]([C@@:2]1([H:12])[C@:3]([C:4]([H:14])([H:15])[H:16])([H:13])[N:5]([H:17])[C@@:6]1([O:7][H:11])[H:18])([H:8])([H:9])[H:10]"
C       -1.74739492      -0.62600935      -0.13765275
C       -0.68119144       0.29705238      -0.69203533
C        0.49213509       0.70364110       0.20996571
C        0.24995523       1.02896539       1.67675157
N        1.36641133      -0.45356201       0.07358100
C        1.25676649      -1.03430926      -1.13309823
O        1.31641424      -0.47966602      -2.33192763
H       -1.33803948      -1.59801436       0.15810899
H       -2.27154666      -0.24291035       0.74803406
H       -2.50702799      -0.84383903      -0.89142246
H        0.44630351       0.26071567      -2.29487481
H       -1.20375653       1.20658309      -1.01848307
H        0.99312419       1.57185559      -0.23311784
H       -0.43461800       1.87393629       1.76199480
H       -0.18906284       0.17503070       2.19812953
H        1.17207595       1.31191608       2.19093140
H        1.56520295      -1.05537392       0.85665339
H        1.51424886      -2.09601198      -1.14153833
18
Frame=6 idx=011568 GeodesicLength=0.7974731514451979 rxn_smarts="[C:1]([C:2]([C@@:3]([C:4]([H:14])([H:15])[H:16])([N:5]([C:6](=[O:7])[H:18])[H:17])[H:13])([H:11])[H:12])([H:8])([H:9])[H:10]>>[C:1]([C@@:2]1([H:12])[C@:3]([C:4]([H:14])([H:15])[H:16])([H:13])[N:5]([H:17])[C@@:6]1([O:7][H:11])[H:18])([H:8])([H:9])[H:10]"
C       -1.74606646      -0.63787620      -0.15717015
C       -0.67449696       0.29414234      -0.68568412
C        0.49797007       0.70434993       0.21398958
C        0.25822038       1.04287496       1.67711789
N        1.37095466      -0.45337059       0.08444580
C        1.25609459      -1.03531613      -1.12485514
O        1.31082619      -0.48498379      -2.32433293
H       -1.34294899      -1.62083964       0.10784397
H       -2.26222804      -0.27990558       0.74272221
H       -2.50994933      -0.83087819      -0.91335676
H        0.40278456       0.27245135      -2.28265643
H       -1.20398689       1.20576474      -0.99440876
H        1.00003259       1.56929930      -0.23445101
H       -0.42007822       1.89333658       1.75868378
H       -0.18197472       0.19383978       2.20537058
H        1.18250742       1.32561162       2.18743535
H        1.56239757      -1.05761011       0.86748741
H        1.49994160      -2.10089037      -1.12818125
18
Frame=7 idx=011568 GeodesicLength=0.9302580982759159 rxn_smarts="[C:1]([C:2]([C@@:3]([C:4]([H:14])([H:15])[H:16])([N:5]([C:6](=[O:7])[H:18])[H:17])[H:13])([H:11])[H:12])([H:8])([H:9])[H:10]>>[C:1]([C@@:2]1([H:12])[C@:3]([C:4]([H:14])([H:15])[H:16])([H:13])[N:5]([H:17])[C@@:6]1([O:7][H:11])[H:18])([H:8])([H:9])[H:10]"
C       -1.74474525      -0.64996524      -0.17683321
C       -0.66814861       0.29081678      -0.67906867
C        0.50361004       0.70495609       0.21794868
C        0.26666332       1.05709123       1.67726172
N        1.37513754      -0.45339372       0.09541856
C        1.25491044      -1.03658484      -1.11648722
O        1.30701887      -0.49068581      -2.31648868
H       -1.34787349      -1.64320754       0.05560763
H       -2.25187025      -0.31863783       0.73742445
H       -2.51355383      -0.81716234      -0.93411710
H        0.35953157       0.28607629      -2.26984009
H       -1.20470231       1.20408975      -0.96996293
H        1.00667233       1.56648577      -0.23613257
H       -0.40519726       1.91309503       1.75494237
H       -0.17469922       0.21325973       2.21273733
H        1.19324622       1.33958495       2.18345783
H        1.55908093      -1.05993655       0.87848751
H        1.48491895      -2.10588175      -1.11435562
18
Frame=8 idx=011568 GeodesicLength=1.0630231270731743 rxn_smarts="[C:1]([C:2]([C@@:3]([C:4]([H:14])([H:15])[H:16])([N:5]([C:6](=[O:7])[H:18])[H:17])[H:13])([H:11])[H:12])([H:8])([H:9])[H:10]>>[C:1]([C@@:2]1([H:12])[C@:3]([C:4]([H:14])([H:15])[H:16])([H:13])[N:5]([H:17])[C@@:6]1([O:7][H:11])[H:18])([H:8])([H:9])[H:10]"
C       -1.74340857      -0.66227115      -0.19666903
C       -0.66213572       0.28708671      -0.67220221
C        0.50906305       0.70545813       0.22183774
C        0.27527959       1.07161126       1.67716289
N        1.37895690      -0.45364011       0.10651609
C        1.25316933      -1.03816831      -1.10795034
O        1.30506893      -0.49686713      -2.30837326
H       -1.35281157      -1.66497054       0.00134054
H       -2.24038508      -0.35920251       0.73201500
H       -2.51783411      -0.80272654      -0.95360004
H        0.31635605       0.30172840      -2.25644359
H       -1.20592074       1.20157823      -0.94505964
H        1.01306668       1.56339761      -0.23816764
H       -0.38997422       1.93320742       1.75073351
H       -0.16725465       0.23330034       2.22019703
H        1.20428112       1.35382077       2.17899025
H        1.55525825      -1.06233595       0.88968619
H        1.46922476      -2.11100661      -1.10001351
18
Frame=9 idx=011568 GeodesicLength=1.1957793888324484 rxn_smarts="[C:1]([C:2]([C@@:3]([C:4]([H:14])([H:15])[H:16])([N:5]([C:6](=[O:7])[H:18])[H:17])[H:13])([H:11])[H:12])([H:8])([H:9])[H:10]>>[C:1]([C@@:2]1([H:12])[C@:3]([C:4]([H:14])([H:15])[H:16])([H:13])[N:5]([H:17])[C@@:6]1([O:7][H:11])[H:18])([H:8])([H:9])[H:10]"
C       -1.74202324      -0.67478797      -0.21670752
C       -0.65644324       0.28296039      -0.66510099
C        0.51433743       0.70585381       0.22564983
C        0.28406640       1.08643188       1.67679829
N        1.38240763      -0.45411796       0.11775658
C        1.25082980      -1.04010862      -1.09920406
O        1.30509574      -0.50359852      -2.29995677
H       -1.35775974      -1.68596604      -0.05499993
H       -2.22767618      -0.40168109       0.72633804
H       -2.52276367      -0.78762833      -0.97170029
H        0.27301947       0.31953338      -2.24246900
H       -1.20765649       1.19823691      -0.91959969
H        1.01923712       1.56001484      -0.24056162
H       -0.37440195       1.95366955       1.74601709
H       -0.15966153       0.25397476       2.22771061
H        1.21560089       1.36830099       2.17402311
H        1.55092966      -1.06479306       0.90111541
H        1.45286189      -2.11629492      -1.08510908
18
Frame=10 idx=011568 GeodesicLength=1.3285388816445443 rxn_smarts="[C:1]([C:2]([C@@:3]([C:4]([H:14])([H:15])[H:16])([N:5]([C:6](=[O:7])[H:18])[H:17])[H:13])([H:11])[H:12])([H:8])([H:9])[H:10]>>[C:1]([C@@:2]1([H:12])[C@:3]([C:4]([H:14])([H:15])[H:16])([H:13])[N:5]([H:17])[C@@:6]1([O:7][H:11])[H:18])([H:8])([H:9])[H:10]"
C       -1.74055122      -0.68751742      -0.23698713
C       -0.65105841       0.27845720      -0.65779062
C        0.51944320       0.70614548       0.22937172
C        0.29302148       1.10155502       1.67613868
N        1.38548868      -0.45483216       0.12915647
C        1.24785122      -1.04245788      -1.09020135
O        1.30719494      -0.51102769      -2.29120000
H       -1.36269746      -1.70603167      -0.11349384
H       -2.21362358      -0.44619501       0.72022925
H       -2.52832974      -0.77193389      -0.98829716
H        0.22931516       0.33971144      -2.22788998
H       -1.20994587       1.19407644      -0.89346367
H        1.02521181       1.55632101      -0.24332940
H       -0.35847268       1.97448527       1.74074470
H       -0.15194344       0.27529975       2.23523331
H        1.22719743       1.38301098       2.16854070
H        1.54610041      -1.06728404       0.91281069
H        1.43579806      -2.12178285      -1.06957239
18
Frame=11 idx=011568 GeodesicLength=1.46130933545798 rxn_smarts="[C:1]([C:2]([C@@:3]([C:4]([H:14])([H:15])[H:16])([N:5]([C:6](=[O:7])[H:18])[H:17])[H:13])([H:11])[H:12])([H:8])([H:9])[H:10]>>[C:1]([C@@:2]1([H:12])[C@:3]([C:4]([H:14])([H:15])[H:16])([H:13])[N:5]([H:17])[C@@:6]1([O:7][H:11])[H:18])([H:8])([H:9])[H:10]"
C       -1.73894109      -0.70046223      -0.25755237
C       -0.64596385       0.27359553      -0.65030299
C        0.52439085       0.70633463       0.23298681
C        0.30214517       1.11698552       1.67514978
N        1.38819455      -0.45578929       0.14073548
C        1.24419648      -1.04526023      -1.08089748
O        1.31151174      -0.51928622      -2.28204841
H       -1.36760044      -1.72499084      -0.17422163
H       -2.19808514      -0.49286279       0.71349338
H       -2.53450631      -0.75572831      -1.00326272
H        0.18497550       0.36248133      -2.21265820
H       -1.21282537       1.18909146      -0.86650910
H        1.03101948       1.55229496      -0.24648927
H       -0.34216889       1.99566340       1.73486080
H       -0.14412834       0.29730079       2.24271298
H        1.23906408       1.39793486       2.16252443
H        1.54076361      -1.06978936       0.92480990
H        1.41795798      -2.12751321      -1.05333137
18
Frame=12 idx=011568 GeodesicLength=1.5941103804092076 rxn_smarts="[C:1]([C:2]([C@@:3]([C:4]([H:14])([H:15])[H:16])([N:5]([C:6](=[O:7])[H:18])[H:17])[H:13])([H:11])[H:12])([H:8])([H:9])[H:10]>>[C:1]([C@@:2]1([H:12])[C@:3]([C:4]([H:14])([H:15])[H:16])([H:13])[N:5]([H:17])[C@@:6]1([O:7][H:11])[H:18])([H:8])([H:9])[H:10]"
C       -1.73713061      -0.71363071      -0.27845757
C       -0.64114080       0.26840068      -0.64268049
C        0.52919285       0.70642478       0.23647172
C        0.31144035       1.13273240       1.67378946
N        1.39051926      -0.45699599       0.15251397
C        1.23983082      -1.04856199      -1.07124481
O        1.31821495      -0.52854621      -2.27242964
H       -1.37243369      -1.74265571      -0.23728569
H       -2.18089178      -0.54182137       0.70590639
H       -2.54126773      -0.73911442      -1.01645511
H        0.13970272       0.38812041      -2.19668984
H       -1.21634508       1.18326640      -0.83856395
H        1.03669495       1.54791392      -0.25006865
H       -0.32546696       2.01721907       1.72829957
H       -0.13624803       0.32000992       2.25008873
H        1.25119778       1.41305782       2.15594894
H        1.53490770      -1.07228745       0.93715396
H        1.39922330      -2.13353155      -1.03629701
18
Frame=13 idx=011568 GeodesicLength=1.7269651549365679 rxn_smarts="[C:1]([C:2]([C@@:3]([C:4]([H:14])([H:15])[H:16])([N:5]([C:6](=[O:7])[H:18])[H:17])[H:13])([H:11])[H:12])([H:8])([H:9])[H:10]>>[C:1]([C@@:2]1([H:12])[C@:3]([C:4]([H:14])([H:15])[H:16])([H:13])[N:5]([H:17])[C@@:6]1([O:7][H:11])[H:18])([H:8])([H:9])[H:10]"
C       -1.73504041      -0.72703333      -0.29977026
C       -0.63656722       0.26290194      -0.63497672
C        0.53386266       0.70641920       0.23979748
C        0.32091650       1.14881003       1.67200786
N        1.39244853      -0.45846197       0.16451563
C        1.23471539      -1.05240679      -1.06119661
O        1.32751990      -0.53898923      -2.26224677
H       -1.37715777      -1.75882018      -0.30279032
H       -2.16184515      -0.59320455       0.69719759
H       -2.54856648      -0.72223080      -1.02773415
H        0.09312345       0.41693549      -2.17985823
H       -1.22056086       1.17656480      -0.80941511
H        1.04227697       1.54314831      -0.25410119
H       -0.30832600       2.03917632       1.72098468
H       -0.12833906       0.34347250       2.25728835
H        1.26360184       1.42836350       2.14878443
H        1.52850516      -1.07475975       0.94988711
H        1.37943257      -2.13988550      -1.01837377
18
Frame=14 idx=011568 GeodesicLength=1.8599130565388533 rxn_smarts="[C:1]([C:2]([C@@:3]([C:4]([H:14])([H:15])[H:16])([N:5]([C:6](=[O:7])[H:18])[H:17])[H:13])([H:11])[H:12])([H:8])([H:9])[H:10]>>[C:1]([C@@:2]1([H:12])[C@:3]([C:4]([H:14])([H:15])[H:16])([H:13])[N:5]([H:17])[C@@:6]1([O:7][H:11])[H:18])([H:8])([H:9])[H:10]"
C       -1.73257527      -0.74069314      -0.32157858
C       -0.63222156       0.25714578      -0.62726434
C        0.53841648       0.70632587       0.24292254
C        0.33058589       1.16524865       1.66973880
N        1.39396220      -0.46020144       0.17677131
C        1.22881469      -1.05685204      -1.05069320
O        1.33966207      -0.55088776      -2.25136947
H       -1.38171415      -1.77326336      -0.37095010
H       -2.14066430      -0.64723343       0.68707484
H       -2.55639076      -0.70520862      -1.03690466
H        0.04483683       0.44934766      -2.16197315
H       -1.22555880       1.16893588      -0.77879560
H        1.04782007       1.53796339      -0.25864163
H       -0.29069174       2.06158393       1.71281253
H       -0.12045198       0.36775824       2.26422666
H        1.27628609       1.44384185       2.14098561
H        1.52150242      -1.07718819       0.96306779
H        1.35838182      -2.14662329      -0.99942936
18
Frame=15 idx=011568 GeodesicLength=1.9930143784062286 rxn_smarts="[C:1]([C:2]([C@@:3]([C:4]([H:14])([H:15])[H:16])([N:5]([C:6](=[O:7])[H:18])[H:17])[H:13])([H:11])[H:12])([H:8])([H:9])[H:10]>>[C:1]([C@@:2]1([H:12])[C@:3]([C:4]([H:14])([H:15])[H:16])([H:13])[N:5]([H:17])[C@@:6]1([O:7][H:11])[H:18])([H:8])([H:9])[H:10]"
C       -1.72961027      -0.75464007      -0.34399799
C       -0.62807817       0.25119092      -0.61963786
C        0.54287206       0.70615436       0.24579416
C        0.34046887       1.18209685       1.66689889
N        1.39502098      -0.46223733       0.18932477
C        1.22208723      -1.06195995      -1.03966674
O        1.35493930      -0.56455809      -2.23961875
H       -1.38603840      -1.78572458      -0.44207117
H       -2.11696218      -0.70419124       0.67518684
H       -2.56473123      -0.68819598      -1.04372348
H       -0.00566517       0.48584229      -2.14276425
H       -1.23143951       1.16029107      -0.74636733
H        1.05339118       1.53230978      -0.26376166
H       -0.27248114       2.08451773       1.70365002
H       -0.11265367       0.39297364       2.27079966
H        1.28926871       1.45948667       2.13249563
H        1.51379884      -1.07956148       0.97677014
H        1.33581256      -2.15379461      -0.97931089
18
Frame=16 idx=011568 GeodesicLength=2.1263651312939675 rxn_smarts="[C:1]([C:2]([C@@:3]([C:4]([H:14])([H:15])[H:16])([N:5]([C:6](=[O:7])[H:18])[H:17])[H:13])([H:11])[H:12])([H:8])([H:9])[H:10]>>[C:1]([C@@:2]1([H:12])[C@:3]([C:4]([H:14])([H:15])[H:16])([H:13])[N:5]([H:17])[C@@:6]1([O:7][H:11])[H:18])([H:8])([H:9])[H:10]"
C       -1.72598203      -0.76891834      -0.36718403
C       -0.62410758       0.24511901      -0.61222263
C        0.54725107       0.70592003       0.24834318
C        0.35059392       1.19943244       1.66337846
N        1.39556231      -0.46460306       0.20224021
C        1.21448652      -1.06780682      -1.02802971
O        1.37370723      -0.58040972      -2.22674798
H       -1.39005931      -1.79587787      -0.51664380
H       -2.09017427      -0.76449458       0.66110437
H       -2.57361049      -0.67134203      -1.04783842
H       -0.05900110       0.52701469      -2.12184333
H       -1.23832783       1.15049247      -0.71170056
H        1.05907978       1.52612194      -0.26955972
H       -0.25357759       2.10809508       1.69331677
H       -0.10503697       0.41927803       2.27687658
H        1.30257753       1.47530257       2.12323900
H        1.50522848      -1.08187332       0.99109509
H        1.31139032      -2.16145053      -0.95782347
