11
Frame=0 idx=000762 GeodesicLength=0.0 rxn_smarts="[C:1]([c:2]1[n:3][n:4]([H:10])[n:5][c:6]1[H:11])([H:7])([H:8])[H:9]>>[C:1](=[C:2]1[N:3]([H:7])[N:4]([H:10])[N:5]=[C:6]1[H:11])([H:8])[H:9]"
C       -1.69039659      -0.41132865      -0.21125026
C       -0.32552240       0.03548939      -0.32385965
N        0.42065075      -0.83760515       0.35488381
N        1.58014818      -0.22791205       0.67023834
N        1.71007864       0.90306592      -0.00096703
C        0.56928783       1.09607648      -0.63089485
H       -0.55930781      -1.44543597       0.64295570
H       -2.11822081      -0.11228435       0.74351548
H       -2.37319090      -0.25923005      -1.04063209
H        2.38338946      -0.73368541       0.99978199
H        0.40308368       1.99284987      -1.20377139
11
Frame=1 idx=000762 GeodesicLength=0.06010845290272957 rxn_smarts="[C:1]([c:2]1[n:3][n:4]([H:10])[n:5][c:6]1[H:11])([H:7])([H:8])[H:9]>>[C:1](=[C:2]1[N:3]([H:7])[N:4]([H:10])[N:5]=[C:6]1[H:11])([H:8])[H:9]"
C       -1.68498965      -0.40960640      -0.21092448
C       -0.31813160       0.02218465      -0.33511279
N        0.42428159      -0.84163808       0.36407283
N        1.58740667      -0.22992740       0.66725241
N        1.71381710       0.90030044      -0.00798594
C        0.56629047       1.09723606      -0.62197352
H       -0.58208866      -1.42929021       0.67804375
H       -2.13371660      -0.08366375       0.72466509
H       -2.35407160      -0.28844674      -1.05644916
H        2.39701910      -0.74285455       0.96982418
H        0.38418319       2.00570598      -1.17141238
11
Frame=2 idx=000762 GeodesicLength=0.12013400608326169 rxn_smarts="[C:1]([c:2]1[n:3][n:4]([H:10])[n:5][c:6]1[H:11])([H:7])([H:8])[H:9]>>[C:1](=[C:2]1[N:3]([H:7])[N:4]([H:10])[N:5]=[C:6]1[H:11])([H:8])[H:9]"
C       -1.67947156      -0.40745934      -0.21069793
C       -0.31084582       0.00971820      -0.34480106
N        0.42788636      -0.84523011       0.37361784
N        1.59512790      -0.23225407       0.66362742
N        1.71744312       0.89775423      -0.01482652
C        0.56320225       1.09842318      -0.61245347
H       -0.60509295      -1.41145730       0.71253705
H       -2.14985848      -0.05634617       0.70435048
H       -2.33440653      -0.31818105      -1.07115118
H        2.41022781      -0.75218822       0.93900497
H        0.36578791       2.01722067      -1.13920758
11
Frame=3 idx=000762 GeodesicLength=0.1802218446965875 rxn_smarts="[C:1]([c:2]1[n:3][n:4]([H:10])[n:5][c:6]1[H:11])([H:7])([H:8])[H:9]>>[C:1](=[C:2]1[N:3]([H:7])[N:4]([H:10])[N:5]=[C:6]1[H:11])([H:8])[H:9]"
C       -1.67398777      -0.40485715      -0.21046572
C       -0.30373772      -0.00186628      -0.35305661
N        0.43156464      -0.84856795       0.38330175
N        1.60325205      -0.23487509       0.65960561
N        1.72081417       0.89578588      -0.02087536
C        0.56013715       1.09967690      -0.60251945
H       -0.62822626      -1.39236391       0.74609491
H       -2.16654644      -0.03042644       0.68290233
H       -2.31450584      -0.34822300      -1.08455731
H        2.42305921      -0.76171135       0.90741496
H        0.34817681       2.02742840      -1.10784512
11
Frame=4 idx=000762 GeodesicLength=0.24025742680297432 rxn_smarts="[C:1]([c:2]1[n:3][n:4]([H:10])[n:5][c:6]1[H:11])([H:7])([H:8])[H:9]>>[C:1](=[C:2]1[N:3]([H:7])[N:4]([H:10])[N:5]=[C:6]1[H:11])([H:8])[H:9]"
C       -1.66849509      -0.40173450      -0.21000756
C       -0.29678758      -0.01260645      -0.36010247
N        0.43537080      -0.85176250       0.39251428
N        1.61142971      -0.23761958       0.65535540
N        1.72378203       0.89448078      -0.02581129
C        0.55724410       1.10083935      -0.59237650
H       -0.65141549      -1.37242985       0.77789139
H       -2.18339893      -0.00621697       0.66078022
H       -2.29453392      -0.37804545      -1.09604233
H        2.43514042      -0.77098431       0.87563911
H        0.33166394       2.03607948      -1.07784023
11
Frame=5 idx=000762 GeodesicLength=0.3002619355616629 rxn_smarts="[C:1]([c:2]1[n:3][n:4]([H:10])[n:5][c:6]1[H:11])([H:7])([H:8])[H:9]>>[C:1](=[C:2]1[N:3]([H:7])[N:4]([H:10])[N:5]=[C:6]1[H:11])([H:8])[H:9]"
C       -1.66302125      -0.39814959      -0.20937594
C       -0.28998456      -0.02264154      -0.36619656
N        0.43932891      -0.85490104       0.40133711
N        1.61964802      -0.24049489       0.65101594
N        1.72642632       0.89371963      -0.02974898
C        0.55464027       1.10175568      -0.58246013
H       -0.67466798      -1.35170041       0.80821073
H       -2.20030063       0.01656327       0.63800908
H       -2.27454269      -0.40775058      -1.10578486
H        2.44652065      -0.78003136       0.84369785
H        0.31595293       2.04363083      -1.04870425
11
Frame=6 idx=000762 GeodesicLength=0.3602787360160846 rxn_smarts="[C:1]([c:2]1[n:3][n:4]([H:10])[n:5][c:6]1[H:11])([H:7])([H:8])[H:9]>>[C:1](=[C:2]1[N:3]([H:7])[N:4]([H:10])[N:5]=[C:6]1[H:11])([H:8])[H:9]"
C       -1.65763829      -0.39393651      -0.20844079
C       -0.28340276      -0.03192907      -0.37142534
N        0.44361174      -0.85839441       0.40921282
N        1.62779722      -0.24347581       0.64681056
N        1.72856759       0.89382913      -0.03210225
C        0.55214421       1.10271747      -0.57237926
H       -0.69770963      -1.33111337       0.83643063
H       -2.21704850       0.03784375       0.61519509
H       -2.25498528      -0.43667398      -1.11356762
H        2.45725917      -0.78862350       0.81213557
H        0.30140452       2.04975630      -1.02186941
11
Frame=7 idx=000762 GeodesicLength=0.4202878813522611 rxn_smarts="[C:1]([c:2]1[n:3][n:4]([H:10])[n:5][c:6]1[H:11])([H:7])([H:8])[H:9]>>[C:1](=[C:2]1[N:3]([H:7])[N:4]([H:10])[N:5]=[C:6]1[H:11])([H:8])[H:9]"
C       -1.65224283      -0.38939345      -0.20748473
C       -0.27690355      -0.04065825      -0.37585115
N        0.44801593      -0.86187653       0.41680881
N        1.63598837      -0.24663492       0.64222414
N        1.73064685       0.89409581      -0.03403967
C        0.54994804       1.10346276      -0.56228390
H       -0.72095551      -1.30933180       0.86393938
H       -2.23405744       0.05805347       0.59128338
H       -2.23514525      -0.46600123      -1.11978538
H        2.46725680      -0.79693827       0.78014013
H        0.28744859       2.05522240      -0.99495102
11
Frame=8 idx=000762 GeodesicLength=0.4803292404899404 rxn_smarts="[C:1]([c:2]1[n:3][n:4]([H:10])[n:5][c:6]1[H:11])([H:7])([H:8])[H:9]>>[C:1](=[C:2]1[N:3]([H:7])[N:4]([H:10])[N:5]=[C:6]1[H:11])([H:8])[H:9]"
C       -1.64692484      -0.38445172      -0.20646943
C       -0.27056367      -0.04882259      -0.37962001
N        0.45264538      -0.86553577       0.42395706
N        1.64427751      -0.24997570       0.63751571
N        1.73269047       0.89458123      -0.03551079
C        0.54793654       1.10418772      -0.55220163
H       -0.74424701      -1.28684410       0.89047363
H       -2.25118327       0.07718549       0.56661208
H       -2.21539536      -0.49545713      -1.12447093
H        2.47669605      -0.80505196       0.74820619
H        0.27406820       2.06018453      -0.96849189
11
Frame=9 idx=000762 GeodesicLength=0.5403658727555681 rxn_smarts="[C:1]([c:2]1[n:3][n:4]([H:10])[n:5][c:6]1[H:11])([H:7])([H:8])[H:9]>>[C:1](=[C:2]1[N:3]([H:7])[N:4]([H:10])[N:5]=[C:6]1[H:11])([H:8])[H:9]"
C       -1.64162066      -0.37907842      -0.20528988
C       -0.26437034      -0.05645948      -0.38287509
N        0.45747583      -0.86943907       0.43030465
N        1.65245057      -0.25336529       0.63277016
N        1.73466260       0.89521881      -0.03660261
C        0.54613106       1.10483589      -0.54220044
H       -0.76759124      -1.26399878       0.91560203
H       -2.26813957       0.09503750       0.54150090
H       -2.19581578      -0.52461445      -1.12732878
H        2.48542688      -0.81265913       0.71684158
H        0.26139065       2.06452242      -0.94272252
11
Frame=10 idx=000762 GeodesicLength=0.6003921166071118 rxn_smarts="[C:1]([c:2]1[n:3][n:4]([H:10])[n:5][c:6]1[H:11])([H:7])([H:8])[H:9]>>[C:1](=[C:2]1[N:3]([H:7])[N:4]([H:10])[N:5]=[C:6]1[H:11])([H:8])[H:9]"
C       -1.63636435      -0.37335628      -0.20405363
C       -0.25830384      -0.06362676      -0.38561391
N        0.46250386      -0.87345339       0.43618262
N        1.66066509      -0.25687936       0.62794542
N        1.73662800       0.89595013      -0.03734969
C        0.54452556       1.10541633      -0.53226215
H       -0.79109090      -1.24038492       0.93976486
H       -2.28512444       0.11172369       0.51563357
H       -2.17629749      -0.55379842      -1.12860070
H        2.49362822      -0.82002127       0.68556149
H        0.24923027       2.06843025      -0.91720789
11
Frame=11 idx=000762 GeodesicLength=0.6603966176666332 rxn_smarts="[C:1]([c:2]1[n:3][n:4]([H:10])[n:5][c:6]1[H:11])([H:7])([H:8])[H:9]>>[C:1](=[C:2]1[N:3]([H:7])[N:4]([H:10])[N:5]=[C:6]1[H:11])([H:8])[H:9]"
C       -1.63121169      -0.36719382      -0.20268176
C       -0.25242681      -0.07030641      -0.38795217
N        0.46784115      -0.87795400       0.44106635
N        1.66871666      -0.26040363       0.62310496
N        1.73855828       0.89679814      -0.03774596
C        0.54307018       1.10601500      -0.52217465
H       -0.81455945      -1.21677942       0.96248683
H       -2.30189578       0.12714519       0.48952982
H       -2.15718400      -0.58238284      -1.12805180
H        2.50119800      -0.82665038       0.65512870
H        0.23789348       2.07171218      -0.89271031
11
Frame=12 idx=000762 GeodesicLength=0.7203813354499362 rxn_smarts="[C:1]([c:2]1[n:3][n:4]([H:10])[n:5][c:6]1[H:11])([H:7])([H:8])[H:9]>>[C:1](=[C:2]1[N:3]([H:7])[N:4]([H:10])[N:5]=[C:6]1[H:11])([H:8])[H:9]"
C       -1.62612468      -0.36066102      -0.20123256
C       -0.24669715      -0.07655119      -0.38989792
N        0.47340920      -0.88277873       0.44513310
N        1.67666806      -0.26397560       0.61819552
N        1.74046017       0.89770112      -0.03783583
C        0.54178077       1.10655629      -0.51197533
H       -0.83815938      -1.19280761       0.98407779
H       -2.31852862       0.14136299       0.46292359
H       -2.13826908      -0.61061123      -1.12577003
H        2.50825892      -0.83273578       0.62517920
H        0.22720179       2.07450076      -0.86879753
11
Frame=13 idx=000762 GeodesicLength=0.7803539517529283 rxn_smarts="[C:1]([c:2]1[n:3][n:4]([H:10])[n:5][c:6]1[H:11])([H:7])([H:8])[H:9]>>[C:1](=[C:2]1[N:3]([H:7])[N:4]([H:10])[N:5]=[C:6]1[H:11])([H:8])[H:9]"
C       -1.62113346      -0.35376350      -0.19970367
C       -0.24114971      -0.08237437      -0.39151556
N        0.47926070      -0.88804000       0.44832894
N        1.68454684      -0.26760797       0.61330065
N        1.74234771       0.89867448      -0.03764087
C        0.54059525       1.10714139      -0.50165018
H       -0.86185075      -1.16867871       1.00455341
H       -2.33496093       0.15436844       0.43599676
H       -2.11971362      -0.63832421      -1.12188273
H        2.51491849      -0.83830958       0.59590838
H        0.21713947       2.07691402      -0.84569512
11
Frame=14 idx=000762 GeodesicLength=0.8403213900149312 rxn_smarts="[C:1]([c:2]1[n:3][n:4]([H:10])[n:5][c:6]1[H:11])([H:7])([H:8])[H:9]>>[C:1](=[C:2]1[N:3]([H:7])[N:4]([H:10])[N:5]=[C:6]1[H:11])([H:8])[H:9]"
C       -1.61623778      -0.34653449      -0.19811553
C       -0.23577747      -0.08780248      -0.39282594
N        0.48539317      -0.89374853       0.45064622
N        1.69235303      -0.27131190       0.60839298
N        1.74421559       0.89969535      -0.03716668
C        0.53950026       1.10775940      -0.49114560
H       -0.88568694      -1.14432341       1.02402732
H       -2.35119129       0.16616241       0.40872277
H       -2.10148002      -0.66549995      -1.11643510
H        2.52123475      -0.84337114       0.56725154
H        0.20767669       2.07897476      -0.82335199
11
Frame=15 idx=000762 GeodesicLength=0.9002884979811823 rxn_smarts="[C:1]([c:2]1[n:3][n:4]([H:10])[n:5][c:6]1[H:11])([H:7])([H:8])[H:9]>>[C:1](=[C:2]1[N:3]([H:7])[N:4]([H:10])[N:5]=[C:6]1[H:11])([H:8])[H:9]"
C       -1.61146102      -0.33900420      -0.19650652
C       -0.23059710      -0.09286922      -0.39386596
N        0.49183221      -0.89996570       0.45210237
N        1.70014241      -0.27513682       0.60348084
N        1.74606767       0.90077749      -0.03638044
C        0.53845933       1.10844980      -0.48043335
H       -0.90967163      -1.11967697       1.04266203
H       -2.36721323       0.17681997       0.38105884
H       -2.08361158      -0.69219848      -1.10952910
H        2.52731953      -0.84800823       0.53915238
H        0.19873340       2.08081235      -0.80174109
11
Frame=16 idx=000762 GeodesicLength=0.9601466096443434 rxn_smarts="[C:1]([c:2]1[n:3][n:4]([H:10])[n:5][c:6]1[H:11])([H:7])([H:8])[H:9]>>[C:1](=[C:2]1[N:3]([H:7])[N:4]([H:10])[N:5]=[C:6]1[H:11])([H:8])[H:9]"
C       -1.60671601      -0.33124641      -0.19481946
C       -0.22555065      -0.09756883      -0.39453918
N        0.49841381      -0.90646134       0.45262437
N        1.70773857      -0.27893151       0.59843460
N        1.74786788       0.90186632      -0.03523706
C        0.53757895       1.10901787      -0.46936539
H       -0.93405572      -1.09463326       1.06027221
H       -2.38288102       0.18603627       0.35302356
H       -2.06591442      -0.71817717      -1.10096184
H        2.53295965      -0.85191250       0.51139145
H        0.19055895       2.08201055      -0.78082326
