12
Frame=0 idx=003456 GeodesicLength=0.0 rxn_smarts="[N:1]([C:2](=[O:3])[N:4]1[C:5]([H:9])([H:10])[C:6]1([H:11])[H:12])([H:7])[H:8]>>[N:1](/[C:2]([O:3][H:12])=[N:4]/[C:6](=[C:5]([H:9])[H:10])[H:11])([H:7])[H:8]"
N        2.29664528       0.13878088      -0.49012032
C        1.09218391       0.12003870       0.14854642
O        1.02780151       0.00040457       1.38876078
N        0.00770301       0.24335508      -0.65958975
C       -1.95009311      -0.73701934      -0.12295337
C       -1.15290700       0.36236660       0.19614828
H        2.31044317       0.46804882      -1.43780975
H        3.11064695       0.28073694       0.07802997
H       -3.00768064      -0.68275698      -0.37222925
H       -1.46445937      -1.70183109      -0.20311761
H       -1.63144422       1.34166755       0.24252334
H       -0.63883948       0.16620828       1.23181131
12
Frame=1 idx=003456 GeodesicLength=0.07644352808598731 rxn_smarts="[N:1]([C:2](=[O:3])[N:4]1[C:5]([H:9])([H:10])[C:6]1([H:11])[H:12])([H:7])[H:8]>>[N:1](/[C:2]([O:3][H:12])=[N:4]/[C:6](=[C:5]([H:9])[H:10])[H:11])([H:7])[H:8]"
N        2.29058331       0.15566566      -0.49313883
C        1.08619197       0.07188020       0.13874007
O        1.02523445      -0.05172809       1.38093376
N       -0.00085200       0.22281971      -0.66046976
C       -1.93678085      -0.72859703      -0.12879953
C       -1.15352708       0.37833081       0.19844381
H        2.29780017       0.50055811      -1.43516616
H        3.10012139       0.29820294       0.08109320
H       -2.98881950      -0.67567716      -0.39938582
H       -1.46542246      -1.70354418      -0.14432757
H       -1.62674641       1.36025369       0.21675146
H       -0.62778299       0.17183534       1.24532538
12
Frame=2 idx=003456 GeodesicLength=0.1530703137824773 rxn_smarts="[N:1]([C:2](=[O:3])[N:4]1[C:5]([H:9])([H:10])[C:6]1([H:11])[H:12])([H:7])[H:8]>>[N:1](/[C:2]([O:3][H:12])=[N:4]/[C:6](=[C:5]([H:9])[H:10])[H:11])([H:7])[H:8]"
N        2.28308198       0.17179821      -0.49493525
C        1.08021821       0.02819093       0.12798575
O        1.02218943      -0.10194014       1.37200862
N       -0.00953083       0.20457056      -0.66173097
C       -1.92234233      -0.72126184      -0.13374436
C       -1.15379010       0.39404453       0.20020574
H        2.28504809       0.53131496      -1.43139515
H        3.08882839       0.31203681       0.08513478
H       -2.96916590      -0.67071845      -0.42317116
H       -1.46634013      -1.70255360      -0.08950483
H       -1.62290219       1.37726446       0.19084745
H       -0.61529462       0.17725358       1.25829937
12
Frame=3 idx=003456 GeodesicLength=0.22990077820636623 rxn_smarts="[N:1]([C:2](=[O:3])[N:4]1[C:5]([H:9])([H:10])[C:6]1([H:11])[H:12])([H:7])[H:8]>>[N:1](/[C:2]([O:3][H:12])=[N:4]/[C:6](=[C:5]([H:9])[H:10])[H:11])([H:7])[H:8]"
N        2.27383231       0.18656223      -0.49594071
C        1.07384047      -0.01008129       0.11678541
O        1.01857655      -0.14882438       1.36224716
N       -0.01861927       0.18948808      -0.66283794
C       -1.90648118      -0.71508735      -0.13766512
C       -1.15395453       0.40968748       0.20191316
H        2.27173563       0.56072079      -1.42642777
H        3.07699740       0.31980288       0.08908974
H       -2.94775447      -0.66823841      -0.44565159
H       -1.46608081      -1.69938609      -0.03810198
H       -1.62050107       1.39276067       0.16558179
H       -0.60159103       0.18259539       1.27100785
12
Frame=4 idx=003456 GeodesicLength=0.3069147497819092 rxn_smarts="[N:1]([C:2](=[O:3])[N:4]1[C:5]([H:9])([H:10])[C:6]1([H:11])[H:12])([H:7])[H:8]>>[N:1](/[C:2]([O:3][H:12])=[N:4]/[C:6](=[C:5]([H:9])[H:10])[H:11])([H:7])[H:8]"
N        2.26389604       0.20015715      -0.49608699
C        1.06731901      -0.04404276       0.10529654
O        1.01452076      -0.19297772       1.35206109
N       -0.02788211       0.17712956      -0.66398171
C       -1.88991045      -0.70971618      -0.14102937
C       -1.15431659       0.42518377       0.20344284
H        2.25881067       0.58749178      -1.42100085
H        3.06529785       0.32437756       0.09321530
H       -2.92596551      -0.66757863      -0.46565082
H       -1.46496850      -1.69439187       0.00910134
H       -1.61968945       1.40686347       0.14103008
H       -0.58711173       0.18750386       1.28360256
12
Frame=5 idx=003456 GeodesicLength=0.38408190815042265 rxn_smarts="[N:1]([C:2](=[O:3])[N:4]1[C:5]([H:9])([H:10])[C:6]1([H:11])[H:12])([H:7])[H:8]>>[N:1](/[C:2]([O:3][H:12])=[N:4]/[C:6](=[C:5]([H:9])[H:10])[H:11])([H:7])[H:8]"
N        2.25333806       0.21287338      -0.49559553
C        1.06062588      -0.07465599       0.09354141
O        1.01007300      -0.23444986       1.34146827
N       -0.03729672       0.16658355      -0.66518686
C       -1.87291750      -0.70506155      -0.14350369
C       -1.15482201       0.44048426       0.20464159
H        2.24600814       0.61383874      -1.41452785
H        3.05396636       0.32489081       0.09709020
H       -2.90373780      -0.66845143      -0.48399374
H       -1.46330987      -1.68801249       0.05346113
H       -1.62006462       1.41970321       0.11662392
H       -0.57186293       0.19225738       1.29598115
12
Frame=6 idx=003456 GeodesicLength=0.4613764979660545 rxn_smarts="[N:1]([C:2](=[O:3])[N:4]1[C:5]([H:9])([H:10])[C:6]1([H:11])[H:12])([H:7])[H:8]>>[N:1](/[C:2]([O:3][H:12])=[N:4]/[C:6](=[C:5]([H:9])[H:10])[H:11])([H:7])[H:8]"
N        2.24236884       0.22487421      -0.49454365
C        1.05381667      -0.10254282       0.08158378
O        1.00527424      -0.27338275       1.33059044
N       -0.04679222       0.15734263      -0.66649757
C       -1.85572276      -0.70099970      -0.14507646
C       -1.15552637       0.45557278       0.20537100
H        2.23327470       0.64069670      -1.40672631
H        3.04329273       0.32124977       0.10041970
H       -2.88126608      -0.67063353      -0.50081851
H       -1.46121319      -1.68048588       0.09553723
H       -1.62152874       1.43135683       0.09205798
H       -0.55597783       0.19695177       1.30810238
12
Frame=7 idx=003456 GeodesicLength=0.5387656879282301 rxn_smarts="[N:1]([C:2](=[O:3])[N:4]1[C:5]([H:9])([H:10])[C:6]1([H:11])[H:12])([H:7])[H:8]>>[N:1](/[C:2]([O:3][H:12])=[N:4]/[C:6](=[C:5]([H:9])[H:10])[H:11])([H:7])[H:8]"
N        2.23105347       0.23621761      -0.49275651
C        1.04688263      -0.12832889       0.06947335
O        1.00016356      -0.31058454       1.31937433
N       -0.05628376       0.14923013      -0.66779982
C       -1.83845986      -0.69724848      -0.14602226
C       -1.15617995       0.47042748       0.20575805
H        2.22068545       0.66595146      -1.39831904
H        3.03258388       0.31667757       0.10366107
H       -2.85874647      -0.67351418      -0.51608790
H       -1.45898899      -1.67195875       0.13491802
H       -1.62342559       1.44196687       0.06780207
H       -0.53928438       0.20116373       1.31999866
12
Frame=8 idx=003456 GeodesicLength=0.6162323658166688 rxn_smarts="[N:1]([C:2](=[O:3])[N:4]1[C:5]([H:9])([H:10])[C:6]1([H:11])[H:12])([H:7])[H:8]>>[N:1](/[C:2]([O:3][H:12])=[N:4]/[C:6](=[C:5]([H:9])[H:10])[H:11])([H:7])[H:8]"
N        2.21954250       0.24693587      -0.49051228
C        1.03988174      -0.15209028       0.05728602
O        0.99475541      -0.34538975       1.30803539
N       -0.06577735       0.14181933      -0.66922880
C       -1.82120328      -0.69392232      -0.14612500
C       -1.15709662       0.48508047       0.20546588
H        2.20797219       0.69302861      -1.38799534
H        3.02283654       0.30761628       0.10578835
H       -2.83615722      -0.67748658      -0.53005612
H       -1.45633879      -1.66256193       0.17280366
H       -1.62628681       1.45148111       0.04299032
H       -0.52212832       0.20548919       1.33154792
12
Frame=9 idx=003456 GeodesicLength=0.6938703362068877 rxn_smarts="[N:1]([C:2](=[O:3])[N:4]1[C:5]([H:9])([H:10])[C:6]1([H:11])[H:12])([H:7])[H:8]>>[N:1](/[C:2]([O:3][H:12])=[N:4]/[C:6](=[C:5]([H:9])[H:10])[H:11])([H:7])[H:8]"
N        2.20790662       0.25695363      -0.48772240
C        1.03286076      -0.17455229       0.04494078
O        0.98912819      -0.37890310       1.29647391
N       -0.07520121       0.13482094      -0.67079600
C       -1.80413928      -0.69076050      -0.14553335
C       -1.15796834       0.49953739       0.20461611
H        2.19520530       0.71995416      -1.37648589
H        3.01322060       0.29763789       0.10749255
H       -2.81371620      -0.68190404      -0.54274703
H       -1.45372731      -1.65243472       0.20894100
H       -1.62936440       1.46013727       0.01797791
H       -0.50420473       0.20951335       1.34284242
12
Frame=10 idx=003456 GeodesicLength=0.7716013594694457 rxn_smarts="[N:1]([C:2](=[O:3])[N:4]1[C:5]([H:9])([H:10])[C:6]1([H:11])[H:12])([H:7])[H:8]>>[N:1](/[C:2]([O:3][H:12])=[N:4]/[C:6](=[C:5]([H:9])[H:10])[H:11])([H:7])[H:8]"
N        2.19623218       0.26632583      -0.48446587
C        1.02581156      -0.19552840       0.03260338
O        0.98329726      -0.41069489       1.28488683
N       -0.08455579       0.12840725      -0.67242124
C       -1.78723158      -0.68777812      -0.14438520
C       -1.15899407       0.51383477       0.20318199
H        2.18238965       0.74718645      -1.36358621
H        3.00411915       0.28562593       0.10831750
H       -2.79142037      -0.68694125      -0.55428750
H       -1.45086190      -1.64166257       0.24346675
H       -1.63301811       1.46791367      -0.00723419
H       -0.48576797       0.21331132       1.35392375
12
Frame=11 idx=003456 GeodesicLength=0.8494552597439964 rxn_smarts="[N:1]([C:2](=[O:3])[N:4]1[C:5]([H:9])([H:10])[C:6]1([H:11])[H:12])([H:7])[H:8]>>[N:1](/[C:2]([O:3][H:12])=[N:4]/[C:6](=[C:5]([H:9])[H:10])[H:11])([H:7])[H:8]"
N        2.18453706       0.27492040      -0.48082620
C        1.01875226      -0.21540638       0.02021671
O        0.97729802      -0.44109709       1.27321078
N       -0.09381752       0.12223488      -0.67416379
C       -1.77054606      -0.68489360      -0.14265784
C       -1.16004863       0.52797329       0.20106143
H        2.16932824       0.77511937      -1.34896876
H        2.99534605       0.27206833       0.10826080
H       -2.76930555      -0.69244344      -0.56471890
H       -1.44790930      -1.63024506       0.27672809
H       -1.63694844       1.47484709      -0.03285729
H       -0.46668614       0.21692221       1.36471495
12
Frame=12 idx=003456 GeodesicLength=0.9274095595932993 rxn_smarts="[N:1]([C:2](=[O:3])[N:4]1[C:5]([H:9])([H:10])[C:6]1([H:11])[H:12])([H:7])[H:8]>>[N:1](/[C:2]([O:3][H:12])=[N:4]/[C:6](=[C:5]([H:9])[H:10])[H:11])([H:7])[H:8]"
N        2.17296926       0.28269349      -0.47691869
C        1.01174767      -0.23433065       0.00781988
O        0.97117755      -0.47010236       1.26158042
N       -0.10296315       0.11615075      -0.67609321
C       -1.75415623      -0.68211561      -0.14035533
C       -1.16122291       0.54198515       0.19811236
H        2.15593272       0.80461956      -1.33210095
H        2.98719889       0.25636455       0.10690468
H       -2.74747828      -0.69847482      -0.57408463
H       -1.44488938      -1.61823009       0.30911424
H       -1.64126175       1.48098042      -0.05919300
H       -0.44705438       0.22045961       1.37521422
12
Frame=13 idx=003456 GeodesicLength=1.0055257230594397 rxn_smarts="[N:1]([C:2](=[O:3])[N:4]1[C:5]([H:9])([H:10])[C:6]1([H:11])[H:12])([H:7])[H:8]>>[N:1](/[C:2]([O:3][H:12])=[N:4]/[C:6](=[C:5]([H:9])[H:10])[H:11])([H:7])[H:8]"
N        2.16136797       0.28946031      -0.47278529
C        1.00469213      -0.25250052      -0.00465200
O        0.96491624      -0.49816752       1.24976680
N       -0.11199216       0.11022476      -0.67809082
C       -1.73796666      -0.67925725      -0.13763515
C       -1.16228984       0.55587083       0.19452979
H        2.14223304       0.83386716      -1.31369166
H        2.97884886       0.24077968       0.10502170
H       -2.72582868      -0.70466538      -0.58237461
H       -1.44178992      -1.60559539       0.34019291
H       -1.64553185       1.48638315      -0.08571910
H       -0.42665913       0.22360018       1.38543743
12
Frame=14 idx=003456 GeodesicLength=1.0837025853423363 rxn_smarts="[N:1]([C:2](=[O:3])[N:4]1[C:5]([H:9])([H:10])[C:6]1([H:11])[H:12])([H:7])[H:8]>>[N:1](/[C:2]([O:3][H:12])=[N:4]/[C:6](=[C:5]([H:9])[H:10])[H:11])([H:7])[H:8]"
N        2.14997012       0.29540580      -0.46849914
C        0.99768050      -0.26976344      -0.01705345
O        0.95860933      -0.52510049       1.23804012
N       -0.12089222       0.10464400      -0.68014273
C       -1.72205696      -0.67634358      -0.13461406
C       -1.16351363       0.56967049       0.19030518
H        2.12845295       0.86299778      -1.29381443
H        2.97078620       0.22466634       0.10231545
H       -2.70455499      -0.71110267      -0.58968716
H       -1.43849270      -1.59247896       0.37005063
H       -1.65020671       1.49111493      -0.11245388
H       -0.40578189       0.22628981       1.39555346
12
Frame=15 idx=003456 GeodesicLength=1.161951322544823 rxn_smarts="[N:1]([C:2](=[O:3])[N:4]1[C:5]([H:9])([H:10])[C:6]1([H:11])[H:12])([H:7])[H:8]>>[N:1](/[C:2]([O:3][H:12])=[N:4]/[C:6](=[C:5]([H:9])[H:10])[H:11])([H:7])[H:8]"
N        2.13872103       0.30055766      -0.46409368
C        0.99067480      -0.28618120      -0.02938269
O        0.95226129      -0.55103055       1.22634993
N       -0.12966484       0.09942724      -0.68219985
C       -1.70638944      -0.67331252      -0.13136576
C       -1.16485036       0.58339493       0.18549147
H        2.11461678       0.89150891      -1.27271311
H        2.96279707       0.20858104       0.09901413
H       -2.68362725      -0.71767573      -0.59604217
H       -1.43496644      -1.57891264       0.39861475
H       -1.65518382       1.49521391      -0.13926662
H       -0.38438883       0.22842893       1.40559361
12
Frame=16 idx=003456 GeodesicLength=1.2402444316395322 rxn_smarts="[N:1]([C:2](=[O:3])[N:4]1[C:5]([H:9])([H:10])[C:6]1([H:11])[H:12])([H:7])[H:8]>>[N:1](/[C:2]([O:3][H:12])=[N:4]/[C:6](=[C:5]([H:9])[H:10])[H:11])([H:7])[H:8]"
N        2.12764100       0.30501261      -0.45959548
C        0.98367772      -0.30176125      -0.04161104
O        0.94590215      -0.57605116       1.21471208
N       -0.13831221       0.09463675      -0.68422161
C       -1.69097006      -0.67012430      -0.12795754
C       -1.16634007       0.59705833       0.18014353
H        2.10084764       0.91899758      -1.25072524
H        2.95483688       0.19286194       0.09530588
H       -2.66308111      -0.72430330      -0.60149449
H       -1.43118531      -1.56496672       0.42585058
H       -1.66049748       1.49873610      -0.16604724
H       -0.36251915       0.22990342       1.41564056
