13
Frame=0 idx=009066 GeodesicLength=0.0 rxn_smarts="[O:1]=[C:2]1[C:3]([H:8])([H:9])[C:4]([H:10])([H:11])[C:5](=[O:6])[C:7]1([H:12])[H:13]>>[C-:5]#[O+:6].[C:3](=[C:4]([H:10])[H:11])([H:8])[H:9].[O:1]=[C:2]=[C:7]([H:12])[H:13]"
O        0.87231876      -2.37869873       0.20211455
C        0.92102553      -1.27513242      -0.17017831
C       -1.22931814      -0.59977745       0.00645997
C       -1.34515219       0.75974960       0.18190208
C        0.53548648       1.36643733       0.49892103
O        1.02261076       1.71751529       1.47594847
C        1.49496033      -0.13899203      -0.62923634
H       -1.34366049      -1.26660093       0.84993172
H       -1.37143092      -1.03487641      -0.97679169
H       -1.66314999       1.15543979       1.14060953
H       -1.56371528       1.40370683      -0.66094108
H        2.51972119       0.04962811      -0.33875621
H        1.15030391       0.24160105      -1.57998373
13
Frame=1 idx=009066 GeodesicLength=0.06882381178907371 rxn_smarts="[O:1]=[C:2]1[C:3]([H:8])([H:9])[C:4]([H:10])([H:11])[C:5](=[O:6])[C:7]1([H:12])[H:13]>>[C-:5]#[O+:6].[C:3](=[C:4]([H:10])[H:11])([H:8])[H:9].[O:1]=[C:2]=[C:7]([H:12])[H:13]"
O        0.88969497      -2.37458692       0.23317616
C        0.91765598      -1.27063067      -0.14265002
C       -1.23186754      -0.60323446      -0.01360893
C       -1.34673627       0.75226809       0.20456289
C        0.54392187       1.37970886       0.48411518
O        1.04816294       1.78176030       1.43341303
C        1.50339148      -0.14517436      -0.62208797
H       -1.39986751      -1.29792384       0.79836563
H       -1.37003241      -1.00236372      -1.01287071
H       -1.66548341       1.11375611       1.17689852
H       -1.59260315       1.42123567      -0.61104827
H        2.53313169       0.03323207      -0.34190061
H        1.17063136       0.21195288      -1.58636490
13
Frame=2 idx=009066 GeodesicLength=0.13479993666167556 rxn_smarts="[O:1]=[C:2]1[C:3]([H:8])([H:9])[C:4]([H:10])([H:11])[C:5](=[O:6])[C:7]1([H:12])[H:13]>>[C-:5]#[O+:6].[C:3](=[C:4]([H:10])[H:11])([H:8])[H:9].[O:1]=[C:2]=[C:7]([H:12])[H:13]"
O        0.90669295      -2.36815052       0.26739656
C        0.91358940      -1.26570516      -0.11636151
C       -1.23449603      -0.60633459      -0.03359890
C       -1.34772670       0.74390286       0.22729797
C        0.55210092       1.39270896       0.46962702
O        1.07186034       1.84279964       1.38955503
C        1.51108887      -0.15103827      -0.61527318
H       -1.45342024      -1.32637991       0.74401618
H       -1.36899504      -0.96835473      -1.04769741
H       -1.66686023       1.07065062       1.21217565
H       -1.61955835       1.43681160      -0.55979637
H        2.54559709       0.01662607      -0.34512484
H        1.19012703       0.18246344      -1.59221620
13
Frame=3 idx=009066 GeodesicLength=0.19951426956385704 rxn_smarts="[O:1]=[C:2]1[C:3]([H:8])([H:9])[C:4]([H:10])([H:11])[C:5](=[O:6])[C:7]1([H:12])[H:13]>>[C-:5]#[O+:6].[C:3](=[C:4]([H:10])[H:11])([H:8])[H:9].[O:1]=[C:2]=[C:7]([H:12])[H:13]"
O        0.92254364      -2.35974947       0.30497291
C        0.90874895      -1.26060570      -0.09054812
C       -1.23729937      -0.60889786      -0.05440227
C       -1.34843151       0.73439637       0.25121803
C        0.55982436       1.40586764       0.45390966
O        1.09378339       1.90388094       1.34151382
C        1.51857319      -0.15719676      -0.60825138
H       -1.50524371      -1.35282301       0.68509870
H       -1.36733406      -0.93118293      -1.08272133
H       -1.66615439       1.02427822       1.24848298
H       -1.64674080       1.45107310      -0.50461697
H        2.55747125      -0.00082490      -0.34710322
H        1.21025906       0.15178435      -1.59755280
13
Frame=4 idx=009066 GeodesicLength=0.2636935245154316 rxn_smarts="[O:1]=[C:2]1[C:3]([H:8])([H:9])[C:4]([H:10])([H:11])[C:5](=[O:6])[C:7]1([H:12])[H:13]>>[C-:5]#[O+:6].[C:3](=[C:4]([H:10])[H:11])([H:8])[H:9].[O:1]=[C:2]=[C:7]([H:12])[H:13]"
O        0.93639581      -2.34930856       0.34653986
C        0.90293114      -1.25541437      -0.06467526
C       -1.24031378      -0.61059309      -0.07677016
C       -1.34891372       0.72337715       0.27722930
C        0.56681538       1.41948066       0.43550387
O        1.11342865       1.96693772       1.28665339
C        1.52608854      -0.16408774      -0.60061970
H       -1.55585752      -1.37757533       0.61984454
H       -1.36411711      -0.88908061      -1.11889673
H       -1.66185727       0.97281967       1.28732052
H       -1.67549779       1.46414686      -0.44310262
H        2.56881217      -0.01951418      -0.34670776
H        1.23208550       0.11881181      -1.60231926
13
Frame=5 idx=009066 GeodesicLength=0.3258883385488859 rxn_smarts="[O:1]=[C:2]1[C:3]([H:8])([H:9])[C:4]([H:10])([H:11])[C:5](=[O:6])[C:7]1([H:12])[H:13]>>[C-:5]#[O+:6].[C:3](=[C:4]([H:10])[H:11])([H:8])[H:9].[O:1]=[C:2]=[C:7]([H:12])[H:13]"
O        0.94935364      -2.33616085       0.39091989
C        0.89646356      -1.24988692      -0.04051322
C       -1.24333261      -0.61176584      -0.09917411
C       -1.34864981       0.71126764       0.30292361
C        0.57334488       1.43270692       0.41741156
O        1.13097004       2.02594574       1.23106939
C        1.53289794      -0.17051435      -0.59345545
H       -1.60301712      -1.39857972       0.55324627
H       -1.36188288      -0.84557416      -1.15314737
H       -1.65678007       0.91976662       1.32417036
H       -1.70156653       1.47466960      -0.38067781
H        2.57918144      -0.03814224      -0.34627842
H        1.25301752       0.08626756      -1.60649470
13
Frame=6 idx=009066 GeodesicLength=0.3871415700079733 rxn_smarts="[O:1]=[C:2]1[C:3]([H:8])([H:9])[C:4]([H:10])([H:11])[C:5](=[O:6])[C:7]1([H:12])[H:13]>>[C-:5]#[O+:6].[C:3](=[C:4]([H:10])[H:11])([H:8])[H:9].[O:1]=[C:2]=[C:7]([H:12])[H:13]"
O        0.96084452      -2.32039172       0.43825662
C        0.88932294      -1.24423908      -0.01762984
C       -1.24637671      -0.61219777      -0.12208944
C       -1.34771898       0.69786642       0.32906899
C        0.57934469       1.44570608       0.39867711
O        1.14610442       2.08297199       1.17299415
C        1.53926819      -0.17688712      -0.58649468
H       -1.64748174      -1.41633973       0.48419817
H       -1.35980850      -0.79943204      -1.18621776
H       -1.65024087       0.86391094       1.36018065
H       -1.72592115       1.48290362      -0.31567516
H        2.58875835      -0.05705711      -0.34512682
H        1.27390484       0.05318553      -1.61014198
13
Frame=7 idx=009066 GeodesicLength=0.44811843243093147 rxn_smarts="[O:1]=[C:2]1[C:3]([H:8])([H:9])[C:4]([H:10])([H:11])[C:5](=[O:6])[C:7]1([H:12])[H:13]>>[C-:5]#[O+:6].[C:3](=[C:4]([H:10])[H:11])([H:8])[H:9].[O:1]=[C:2]=[C:7]([H:12])[H:13]"
O        0.97028486      -2.30172260       0.48893925
C        0.88138104      -1.23848664       0.00437650
C       -1.24946682      -0.61162750      -0.14607104
C       -1.34614841       0.68286447       0.35608952
C        0.58451300       1.45873815       0.37829194
O        1.15876688       2.13887064       1.11078429
C        1.54538112      -0.18345009      -0.57943939
H       -1.68957336      -1.43093117       0.41173452
H       -1.35758383      -0.74954509      -1.21859021
H       -1.64114403       0.80397847       1.39603896
H       -1.74938932       1.48878673      -0.24660027
H        2.59761218      -0.07643475      -0.34245827
H        1.29536668       0.01895938      -1.61309579
13
Frame=8 idx=009066 GeodesicLength=0.5091360655959412 rxn_smarts="[O:1]=[C:2]1[C:3]([H:8])([H:9])[C:4]([H:10])([H:11])[C:5](=[O:6])[C:7]1([H:12])[H:13]>>[C-:5]#[O+:6].[C:3](=[C:4]([H:10])[H:11])([H:8])[H:9].[O:1]=[C:2]=[C:7]([H:12])[H:13]"
O        0.97758774      -2.27984956       0.54283699
C        0.87269727      -1.23280637       0.02513832
C       -1.25254011      -0.60996887      -0.17097291
C       -1.34377905       0.66617463       0.38379750
C        0.58886396       1.47152897       0.35661559
O        1.16871917       2.19332801       1.04482528
C        1.55116103      -0.19013911      -0.57241599
H       -1.72919913      -1.44200025       0.33653796
H       -1.35537096      -0.69603451      -1.24974813
H       -1.62983678       0.74008491       1.43108325
H       -1.77118099       1.49198615      -0.17390972
H        2.60567660      -0.09613713      -0.33845123
H        1.31720126      -0.01616687      -1.61533692
13
Frame=9 idx=009066 GeodesicLength=0.5700299556693802 rxn_smarts="[O:1]=[C:2]1[C:3]([H:8])([H:9])[C:4]([H:10])([H:11])[C:5](=[O:6])[C:7]1([H:12])[H:13]>>[C-:5]#[O+:6].[C:3](=[C:4]([H:10])[H:11])([H:8])[H:9].[O:1]=[C:2]=[C:7]([H:12])[H:13]"
O        0.98334501      -2.25496866       0.59833489
C        0.86357824      -1.22725727       0.04432364
C       -1.25544261      -0.60740914      -0.19607290
C       -1.34049150       0.64808591       0.41124022
C        0.59263446       1.48374191       0.33503588
O        1.17634502       2.24494991       0.97739401
C        1.55646078      -0.19659331      -0.56564143
H       -1.76581837      -1.44913576       0.26108677
H       -1.35416054      -0.64056886      -1.27850473
H       -1.61800571       0.67389608       1.46353808
H       -1.78986937       1.49221920      -0.10010160
H        2.61293234      -0.11575320      -0.33387252
H        1.33849225      -0.05120684      -1.61676030
13
Frame=10 idx=009066 GeodesicLength=0.6312809936571018 rxn_smarts="[O:1]=[C:2]1[C:3]([H:8])([H:9])[C:4]([H:10])([H:11])[C:5](=[O:6])[C:7]1([H:12])[H:13]>>[C-:5]#[O+:6].[C:3](=[C:4]([H:10])[H:11])([H:8])[H:9].[O:1]=[C:2]=[C:7]([H:12])[H:13]"
O        0.98749497      -2.22692152       0.65528400
C        0.85415164      -1.22195842       0.06206584
C       -1.25809776      -0.60387762      -0.22131545
C       -1.33626378       0.62850500       0.43856404
C        0.59583035       1.49533325       0.31350655
O        1.18159704       2.29400948       0.90822992
C        1.56132835      -0.20289866      -0.55911049
H       -1.79987334      -1.45238098       0.18537978
H       -1.35364208      -0.58295827      -1.30471201
H       -1.60595469       0.60528410       1.49339099
H       -1.80532288       1.48945536      -0.02511791
H        2.61943251      -0.13528440      -0.32877949
H        1.35931966      -0.08630731      -1.61738578
13
Frame=11 idx=009066 GeodesicLength=0.69351662709438 rxn_smarts="[O:1]=[C:2]1[C:3]([H:8])([H:9])[C:4]([H:10])([H:11])[C:5](=[O:6])[C:7]1([H:12])[H:13]>>[C-:5]#[O+:6].[C:3](=[C:4]([H:10])[H:11])([H:8])[H:9].[O:1]=[C:2]=[C:7]([H:12])[H:13]"
O        0.98989397      -2.19499172       0.71426154
C        0.84444907      -1.21721593       0.07813639
C       -1.26050534      -0.59929396      -0.24689511
C       -1.33104677       0.60722093       0.46583560
C        0.59850730       1.50614086       0.29223708
O        1.18461882       2.34074428       0.83679092
C        1.56585060      -0.20915323      -0.55283363
H       -1.83169574      -1.45173956       0.10927246
H       -1.35389399      -0.52295073      -1.32838244
H       -1.59370250       0.53379837       1.52057615
H       -1.81751390       1.48360651       0.05132246
H        2.62526608      -0.15481745      -0.32310651
H        1.37977239      -0.12134837      -1.61721491
13
Frame=12 idx=009066 GeodesicLength=0.7567111366682384 rxn_smarts="[O:1]=[C:2]1[C:3]([H:8])([H:9])[C:4]([H:10])([H:11])[C:5](=[O:6])[C:7]1([H:12])[H:13]>>[C-:5]#[O+:6].[C:3](=[C:4]([H:10])[H:11])([H:8])[H:9].[O:1]=[C:2]=[C:7]([H:12])[H:13]"
O        0.99087862      -2.16023194       0.77320802
C        0.83462964      -1.21315752       0.09293290
C       -1.26249094      -0.59351906      -0.27231838
C       -1.32482909       0.58448908       0.49294576
C        0.60092826       1.51599335       0.27182324
O        1.18490375       2.38567305       0.76286696
C        1.57002940      -0.21542365      -0.54657213
H       -1.86110974      -1.44713959       0.03369889
H       -1.35474380      -0.46091401      -1.34887738
H       -1.58224407       0.46019235       1.54465783
H       -1.82613122       1.47475914       0.12839198
H        2.63044616      -0.17437706      -0.31674762
H        1.39973303      -0.15634414      -1.61601008
13
Frame=13 idx=009066 GeodesicLength=0.8208207225529222 rxn_smarts="[O:1]=[C:2]1[C:3]([H:8])([H:9])[C:4]([H:10])([H:11])[C:5](=[O:6])[C:7]1([H:12])[H:13]>>[C-:5]#[O+:6].[C:3](=[C:4]([H:10])[H:11])([H:8])[H:9].[O:1]=[C:2]=[C:7]([H:12])[H:13]"
O        0.99086090      -2.12150726       0.83266893
C        0.82511508      -1.20970011       0.10632963
C       -1.26391670      -0.58701445      -0.29729507
C       -1.31760907       0.56022374       0.51939989
C        0.60322779       1.52482765       0.25322737
O        1.18361630       2.42712605       0.68828411
C        1.57380182      -0.22141231      -0.54075869
H       -1.88862631      -1.43858974      -0.04039566
H       -1.35645774      -0.39813085      -1.36585746
H       -1.57298897       0.38539032       1.56486579
H       -1.83049652       1.46285693       0.20453702
H        2.63504484      -0.19364192      -0.31090567
H        1.41842859      -0.19042803      -1.61410020
13
Frame=14 idx=009066 GeodesicLength=0.8858994019008738 rxn_smarts="[O:1]=[C:2]1[C:3]([H:8])([H:9])[C:4]([H:10])([H:11])[C:5](=[O:6])[C:7]1([H:12])[H:13]>>[C-:5]#[O+:6].[C:3](=[C:4]([H:10])[H:11])([H:8])[H:9].[O:1]=[C:2]=[C:7]([H:12])[H:13]"
O        0.99039170      -2.08004404       0.89096764
C        0.81609033      -1.20697345       0.11880094
C       -1.26471432      -0.57968903      -0.32148122
C       -1.30956753       0.53476700       0.54523010
C        0.60579275       1.53269200       0.23689253
O        1.18032225       2.46581778       0.61275838
C        1.57733772      -0.22725463      -0.53520224
H       -1.91417707      -1.42632199      -0.11243563
H       -1.35887376      -0.33488231      -1.37900106
H       -1.56692939       0.31011212       1.58114193
H       -1.83092503       1.44832597       0.27923334
H        2.63932295      -0.21278236      -0.30552117
H        1.43592941      -0.22376706      -1.61138353
13
Frame=15 idx=009066 GeodesicLength=0.9518667264440045 rxn_smarts="[O:1]=[C:2]1[C:3]([H:8])([H:9])[C:4]([H:10])([H:11])[C:5](=[O:6])[C:7]1([H:12])[H:13]>>[C-:5]#[O+:6].[C:3](=[C:4]([H:10])[H:11])([H:8])[H:9].[O:1]=[C:2]=[C:7]([H:12])[H:13]"
O        0.98966389      -2.03602983       0.94772778
C        0.80767510      -1.20506610       0.13052106
C       -1.26476515      -0.57152938      -0.34477806
C       -1.30074816       0.50810837       0.57053200
C        0.60890524       1.53944915       0.22349868
O        1.17477494       2.50187867       0.53559291
C        1.58070500      -0.23301744      -0.52982877
H       -1.93788265      -1.41038926      -0.18235099
H       -1.36172382      -0.27126851      -1.38821539
H       -1.56469444       0.23461360       1.59349456
H       -1.82745565       1.43134229       0.35234385
H        2.64335500      -0.23191208      -0.30067249
H        1.45219069      -0.25617948      -1.60786516
13
Frame=16 idx=009066 GeodesicLength=1.0183842424028386 rxn_smarts="[O:1]=[C:2]1[C:3]([H:8])([H:9])[C:4]([H:10])([H:11])[C:5](=[O:6])[C:7]1([H:12])[H:13]>>[C-:5]#[O+:6].[C:3](=[C:4]([H:10])[H:11])([H:8])[H:9].[O:1]=[C:2]=[C:7]([H:12])[H:13]"
O        0.98915828      -1.99032141       1.00201978
C        0.80004104      -1.20387403       0.14184960
C       -1.26396137      -0.56261065      -0.36696938
C       -1.29130318       0.48040896       0.59525232
C        0.61283783       1.54522915       0.21362557
O        1.16679174       2.53507526       0.45657222
C        1.58402143      -0.23865239      -0.52451844
H       -1.95980679      -1.39092632      -0.24969542
H       -1.36493515      -0.20777271      -1.39336411
H       -1.56700829       0.15967224       1.60183580
H       -1.82027240       1.41222480       0.42334622
H        2.64729827      -0.25103335      -0.29643946
H        1.46713861      -0.28741955      -1.60351471
