17
Frame=0 idx=007037 GeodesicLength=0.0 rxn_smarts="[C:1]([C@:2]12[C:3]([H:11])([H:12])[C:4]([H:13])([H:14])[C@@:5]1([H:15])[C:6]([H:16])([H:17])[O:7]2)([H:8])([H:9])[H:10]>>[C:1]([H:8])([H:9])([H:10])[H:15].[C:2]12=[C:5]([C:4]([H:13])([H:14])[C:3]1([H:11])[H:12])[C:6]([H:16])([H:17])[O:7]2"
C        1.84246363       0.50243678      -0.84841003
C        0.28439829       0.10435665       0.14201138
C        0.12030967      -1.37873358       0.37294396
C       -1.38405435      -1.13229663       0.02593975
C       -1.06938809       0.30599240      -0.48279075
C       -1.15458145       1.38781703       0.59374715
O        0.22137041       1.07674863       1.09897867
H        2.45284746       0.33176347       0.03264396
H        2.09663054      -0.20450020      -1.63667952
H        1.93389978       1.54347218      -1.15962904
H        0.65002609      -1.99778673      -0.35017220
H        0.37014538      -1.70476872       1.38188305
H       -2.02328957      -1.15402794       0.91492838
H       -1.79884473      -1.82462300      -0.70734210
H        0.52511184       0.48333341      -1.04074299
H       -1.89197046       1.22764173       1.38663110
H       -1.17507437       2.43317457       0.27605931
17
Frame=1 idx=007037 GeodesicLength=0.1266798072256397 rxn_smarts="[C:1]([C@:2]12[C:3]([H:11])([H:12])[C:4]([H:13])([H:14])[C@@:5]1([H:15])[C:6]([H:16])([H:17])[O:7]2)([H:8])([H:9])[H:10]>>[C:1]([H:8])([H:9])([H:10])[H:15].[C:2]12=[C:5]([C:4]([H:13])([H:14])[C:3]1([H:11])[H:12])[C:6]([H:16])([H:17])[O:7]2"
C        1.84572390       0.49859628      -0.86578541
C        0.28481264       0.10753236       0.15938939
C        0.11535741      -1.37557874       0.39190175
C       -1.38062008      -1.13183244       0.00940976
C       -1.06241656       0.31507617      -0.46797189
C       -1.15652576       1.38815533       0.61639652
O        0.21810004       1.07959399       1.11992130
H        2.47686948       0.36000627       0.00700251
H        2.09923448      -0.23267615      -1.63195910
H        1.94187242       1.52743604      -1.21406361
H        0.66107501      -2.00044291      -0.31411335
H        0.33856236      -1.69876429       1.40797442
H       -2.04307188      -1.17020202       0.88031631
H       -1.77216668      -1.81190896      -0.74781134
H        0.51149228       0.49265112      -1.06106373
H       -1.89503705       1.21722531       1.40575053
H       -1.18326201       2.43513266       0.30470595
17
Frame=2 idx=007037 GeodesicLength=0.2530086307036141 rxn_smarts="[C:1]([C@:2]12[C:3]([H:11])([H:12])[C:4]([H:13])([H:14])[C@@:5]1([H:15])[C:6]([H:16])([H:17])[O:7]2)([H:8])([H:9])[H:10]>>[C:1]([H:8])([H:9])([H:10])[H:15].[C:2]12=[C:5]([C:4]([H:13])([H:14])[C:3]1([H:11])[H:12])[C:6]([H:16])([H:17])[O:7]2"
C        1.84869075       0.49463072      -0.88311201
C        0.28546715       0.11074596       0.17778246
C        0.11018645      -1.37250564       0.41098545
C       -1.37640384      -1.13094616      -0.00732473
C       -1.05495593       0.32419422      -0.45277533
C       -1.15855986       1.38835741       0.63934902
O        0.21441255       1.08216421       1.14213081
H        2.50069220       0.38910498      -0.02026234
H        2.10168144      -0.26098712      -1.62571773
H        1.94926138       1.50927748      -1.26987609
H        0.67184019      -2.00266575      -0.27761579
H        0.30606826      -1.69326371       1.43344255
H       -2.06184086      -1.18587459       0.84437079
H       -1.74380686      -1.79818240      -0.78788968
H        0.49727513       0.50245253      -1.08178846
H       -1.89869675       1.20657474       1.42458685
H       -1.19131139       2.43692312       0.33371423
17
Frame=3 idx=007037 GeodesicLength=0.3790736514676878 rxn_smarts="[C:1]([C@:2]12[C:3]([H:11])([H:12])[C:4]([H:13])([H:14])[C@@:5]1([H:15])[C:6]([H:16])([H:17])[O:7]2)([H:8])([H:9])[H:10]>>[C:1]([H:8])([H:9])([H:10])[H:15].[C:2]12=[C:5]([C:4]([H:13])([H:14])[C:3]1([H:11])[H:12])[C:6]([H:16])([H:17])[O:7]2"
C        1.85130806       0.49059452      -0.90035617
C        0.28637021       0.11395572       0.19727254
C        0.10481516      -1.36956569       0.43015743
C       -1.37135122      -1.12960685      -0.02420256
C       -1.04694286       0.33331182      -0.43719762
C       -1.16069346       1.38842828       0.66254936
O        0.21023184       1.08438297       1.16571135
H        2.52421505       0.41900105      -0.04927199
H        2.10398641      -0.28929508      -1.61784480
H        1.95601122       1.48883355      -1.32695378
H        0.68226680      -2.00448446      -0.24078795
H        0.27276778      -1.68839072       1.45817796
H       -2.07947381      -1.20095288       0.80716122
H       -1.71371344      -1.78336350      -0.82742178
H        0.48240714       0.51282891      -1.10299425
H       -1.90305096       1.19578134       1.44301365
H       -1.19915392       2.43854103       0.36298739
17
Frame=4 idx=007037 GeodesicLength=0.5049699756663308 rxn_smarts="[C:1]([C@:2]12[C:3]([H:11])([H:12])[C:4]([H:13])([H:14])[C@@:5]1([H:15])[C:6]([H:16])([H:17])[O:7]2)([H:8])([H:9])[H:10]>>[C:1]([H:8])([H:9])([H:10])[H:15].[C:2]12=[C:5]([C:4]([H:13])([H:14])[C:3]1([H:11])[H:12])[C:6]([H:16])([H:17])[O:7]2"
C        1.85350753       0.48656225      -0.91749664
C        0.28754276       0.11710267       0.21796500
C        0.09926244      -1.36681811       0.44939335
C       -1.36541001      -1.12778542      -0.04118036
C       -1.03828596       0.34239534      -0.42124397
C       -1.16292191       1.38837256       0.68594481
O        0.20548777       1.08616736       1.19078215
H        2.54733610       0.44962976      -0.08017453
H        2.10616258      -0.31744174      -1.60825479
H        1.96204644       1.46596495      -1.38517111
H        0.69232872      -2.00593881      -0.20371940
H        0.23872117      -1.68427289       1.48209909
H       -2.09586596      -1.21533414       0.76872825
H       -1.68185192      -1.76741962      -0.86624144
H        0.46682913       0.52388427      -1.12476088
H       -1.90819620       1.18494629       1.46090388
H       -1.20669269       2.43998529       0.39242659
17
Frame=5 idx=007037 GeodesicLength=0.6308677592288698 rxn_smarts="[C:1]([C@:2]12[C:3]([H:11])([H:12])[C:4]([H:13])([H:14])[C@@:5]1([H:15])[C:6]([H:16])([H:17])[O:7]2)([H:8])([H:9])[H:10]>>[C:1]([H:8])([H:9])([H:10])[H:15].[C:2]12=[C:5]([C:4]([H:13])([H:14])[C:3]1([H:11])[H:12])[C:6]([H:16])([H:17])[O:7]2"
C        1.85523810       0.48257134      -0.93451321
C        0.28902265       0.12015264       0.23996882
C        0.09356247      -1.36430735       0.46863934
C       -1.35851251      -1.12543341      -0.05816556
C       -1.02883800       0.35146858      -0.40493907
C       -1.16517804       1.38821341       0.70944117
O        0.20005082       1.08738751       1.21744598
H        2.56974148       0.48093046      -0.11297007
H        2.10825527      -0.34510378      -1.59694832
H        1.96726395       1.44051885      -1.44423618
H        0.70203415      -2.00702617      -0.16654704
H        0.20393904      -1.68102070       1.50509307
H       -2.11083092      -1.22894577       0.72920970
H       -1.64837056      -1.75049207      -0.90410559
H        0.45047486       0.53562385      -1.14733345
H       -1.91411114       1.17416181       1.47797222
H       -1.21374163       2.44130080       0.42198818
17
Frame=6 idx=007037 GeodesicLength=0.7567746269784257 rxn_smarts="[C:1]([C@:2]12[C:3]([H:11])([H:12])[C:4]([H:13])([H:14])[C@@:5]1([H:15])[C:6]([H:16])([H:17])[O:7]2)([H:8])([H:9])[H:10]>>[C:1]([H:8])([H:9])([H:10])[H:15].[C:2]12=[C:5]([C:4]([H:13])([H:14])[C:3]1([H:11])[H:12])[C:6]([H:16])([H:17])[O:7]2"
C        1.85638593       0.47871845      -0.95141474
C        0.29082251       0.12301815       0.26341996
C        0.08773632      -1.36210608       0.48791953
C       -1.35059950      -1.12253759      -0.07514161
C       -1.01849907       0.36047211      -0.38827245
C       -1.16747029       1.38794851       0.73300442
O        0.19386024       1.08797252       1.24583816
H        2.59143004       0.51282437      -0.14789264
H        2.11022334      -0.37220357      -1.58382542
H        1.97157409       1.41237181      -1.50407673
H        0.71136661      -2.00783839      -0.12927910
H        0.16852101      -1.67876401       1.52712771
H       -2.12432923      -1.24166529       0.68858343
H       -1.61310539      -1.73243446      -0.94097156
H        0.43323407       0.54820877      -1.17071903
H       -1.92093668       1.16355092       1.49413926
H       -1.22021403       2.44246379       0.45156080
17
Frame=7 idx=007037 GeodesicLength=0.8827531137361087 rxn_smarts="[C:1]([C@:2]12[C:3]([H:11])([H:12])[C:4]([H:13])([H:14])[C@@:5]1([H:15])[C:6]([H:16])([H:17])[O:7]2)([H:8])([H:9])[H:10]>>[C:1]([H:8])([H:9])([H:10])[H:15].[C:2]12=[C:5]([C:4]([H:13])([H:14])[C:3]1([H:11])[H:12])[C:6]([H:16])([H:17])[O:7]2"
C        1.85683730       0.47507794      -0.96821148
C        0.29297130       0.12563068       0.28848444
C        0.08182544      -1.36029785       0.50722605
C       -1.34157551      -1.11904166      -0.09203850
C       -1.00712213       0.36939745      -0.37125371
C       -1.16976544       1.38759743       0.75655131
O        0.18680427       1.08778443       1.27612007
H        2.61216575       0.54520262      -0.18507862
H        2.11208703      -0.39848233      -1.56883765
H        1.97484765       1.38136039      -1.56447255
H        0.72032414      -2.00843223      -0.09200127
H        0.13255057      -1.67768395       1.54813188
H       -2.13620051      -1.25336359       0.64690648
H       -1.57601308      -1.71319521      -0.97666727
H        0.41496851       0.56169023      -1.19505249
H       -1.92876039       1.15324101       1.50914748
H       -1.22594492       2.44351462       0.48104582
17
Frame=8 idx=007037 GeodesicLength=1.0088086644574714 rxn_smarts="[C:1]([C@:2]12[C:3]([H:11])([H:12])[C:4]([H:13])([H:14])[C@@:5]1([H:15])[C:6]([H:16])([H:17])[O:7]2)([H:8])([H:9])[H:10]>>[C:1]([H:8])([H:9])([H:10])[H:15].[C:2]12=[C:5]([C:4]([H:13])([H:14])[C:3]1([H:11])[H:12])[C:6]([H:16])([H:17])[O:7]2"
C        1.85649566       0.47172580      -0.98493375
C        0.29548719       0.12790760       0.31529211
C        0.07586427      -1.35894663       0.52655821
C       -1.33137744      -1.11491210      -0.10881310
C       -0.99455289       0.37824518      -0.35389010
C       -1.17202268       1.38717675       0.78001085
O        0.17877249       1.08669220       1.30840198
H        2.63177159       0.57798072      -0.22464053
H        2.11387894      -0.42371674      -1.55197229
H        1.97696567       1.34735528      -1.62518768
H        0.72894506      -2.00887158      -0.05475882
H        0.09608153      -1.67789307       1.56805083
H       -2.14636222      -1.26392341       0.60422676
H       -1.53709838      -1.69281002      -1.01105839
H        0.39554932       0.57615669      -1.22045737
H       -1.93762831       1.14335162       1.52278945
H       -1.23076981       2.44448169       0.51038185
17
Frame=9 idx=007037 GeodesicLength=1.1350980214561743 rxn_smarts="[C:1]([C@:2]12[C:3]([H:11])([H:12])[C:4]([H:13])([H:14])[C@@:5]1([H:15])[C:6]([H:16])([H:17])[O:7]2)([H:8])([H:9])[H:10]>>[C:1]([H:8])([H:9])([H:10])[H:15].[C:2]12=[C:5]([C:4]([H:13])([H:14])[C:3]1([H:11])[H:12])[C:6]([H:16])([H:17])[O:7]2"
C        1.85528715       0.46870699      -1.00161964
C        0.29844623       0.12971468       0.34401578
C        0.06986480      -1.35808033       0.54596107
C       -1.31992405      -1.11015838      -0.12544820
C       -0.98046008       0.38701939      -0.33618397
C       -1.17403931       1.38669858       0.80331293
O        0.16961623       1.08457131       1.34275243
H        2.64989951       0.61115982      -0.26648704
H        2.11549225      -0.44770615      -1.53336632
H        1.97764672       1.31043228      -1.68600238
H        0.73734266      -2.00920273      -0.01744616
H        0.05892273      -1.67938595       1.58687060
H       -2.15478781      -1.27329304       0.56056930
H       -1.49641865      -1.67153564      -1.04416298
H        0.37484227       0.59170402      -1.24716312
H       -1.94741099       1.13399416       1.53482111
H       -1.23431966       2.44536099       0.53957659
17
Frame=10 idx=007037 GeodesicLength=1.2614339869060847 rxn_smarts="[C:1]([C@:2]12[C:3]([H:11])([H:12])[C:4]([H:13])([H:14])[C@@:5]1([H:15])[C:6]([H:16])([H:17])[O:7]2)([H:8])([H:9])[H:10]>>[C:1]([H:8])([H:9])([H:10])[H:15].[C:2]12=[C:5]([C:4]([H:13])([H:14])[C:3]1([H:11])[H:12])[C:6]([H:16])([H:17])[O:7]2"
C        1.85304499       0.46611662      -1.01832532
C        0.30183075       0.13099440       0.37483337
C        0.06387830      -1.35782406       0.56542218
C       -1.30710770      -1.10469653      -0.14186788
C       -0.96475350       0.39572476      -0.31812782
C       -1.17585509       1.38619237       0.82637348
O        0.15922578       1.08125867       1.37936596
H        2.66640649       0.64461669      -0.31091636
H        2.11706568      -0.47019305      -1.51286243
H        1.97677997       1.27026545      -1.74668515
H        0.74548473      -2.00952639       0.01982280
H        0.02130243      -1.68242715       1.60449494
H       -2.16129543      -1.28126852       0.51594454
H       -1.45381730      -1.64915885      -1.07579341
H        0.35261143       0.60837653      -1.27515153
H       -1.95829950       1.12531642       1.54496033
H       -1.23650202       2.44623266       0.56851231
17
Frame=11 idx=007037 GeodesicLength=1.3877824637288931 rxn_smarts="[C:1]([C@:2]12[C:3]([H:11])([H:12])[C:4]([H:13])([H:14])[C@@:5]1([H:15])[C:6]([H:16])([H:17])[O:7]2)([H:8])([H:9])[H:10]>>[C:1]([H:8])([H:9])([H:10])[H:15].[C:2]12=[C:5]([C:4]([H:13])([H:14])[C:3]1([H:11])[H:12])[C:6]([H:16])([H:17])[O:7]2"
C        1.84964256       0.46402587      -1.03510934
C        0.30567328       0.13158392       0.40791793
C        0.05792284      -1.35826803       0.58496497
C       -1.29283734      -1.09850328      -0.15804134
C       -0.94717267       0.40432771      -0.29972874
C       -1.17734819       1.38567477       0.84909241
O        0.14744302       1.07657420       1.41834279
H        2.68105199       0.67832724      -0.35800313
H        2.11862637      -0.49094945      -1.49048372
H        1.97409247       1.22685093      -1.80696384
H        0.75341337      -2.00994761       0.05706975
H       -0.01680597      -1.68712869       1.62087161
H       -2.16581453      -1.28769254       0.47037894
H       -1.40924035      -1.62576426      -1.10585293
H        0.32865346       0.62627058      -1.30449301
H       -1.97029956       1.11750990       1.55293350
H       -1.23700074       2.44710874       0.59710415
17
Frame=12 idx=007037 GeodesicLength=1.514065552818575 rxn_smarts="[C:1]([C@:2]12[C:3]([H:11])([H:12])[C:4]([H:13])([H:14])[C@@:5]1([H:15])[C:6]([H:16])([H:17])[O:7]2)([H:8])([H:9])[H:10]>>[C:1]([H:8])([H:9])([H:10])[H:15].[C:2]12=[C:5]([C:4]([H:13])([H:14])[C:3]1([H:11])[H:12])[C:6]([H:16])([H:17])[O:7]2"
C        1.84495816       0.46246618      -1.05204105
C        0.30998761       0.13134171       0.44343448
C        0.05202732      -1.35949422       0.60459479
C       -1.27702475      -1.09154552      -0.17390113
C       -0.92746160       0.41283559      -0.28097871
C       -1.17839712       1.38517183       0.87136368
O        0.13409821       1.07031657       1.45975774
H        2.69351026       0.71228531      -0.40782209
H        2.12028342      -0.50970203      -1.46624048
H        1.96931706       1.18010169      -1.86651891
H        0.76117969      -2.01056073       0.09431045
H       -0.05540219      -1.69361288       1.63590924
H       -2.16824294      -1.29240070       0.42390064
H       -1.36263905      -1.60140044      -1.13423939
H        0.30270876       0.64540986      -1.33523400
H       -1.98338038       1.11074954       1.55838969
H       -1.23552245       2.44803824       0.62531504
17
Frame=13 idx=007037 GeodesicLength=1.6402969952153224 rxn_smarts="[C:1]([C@:2]12[C:3]([H:11])([H:12])[C:4]([H:13])([H:14])[C@@:5]1([H:15])[C:6]([H:16])([H:17])[O:7]2)([H:8])([H:9])[H:10]>>[C:1]([H:8])([H:9])([H:10])[H:15].[C:2]12=[C:5]([C:4]([H:13])([H:14])[C:3]1([H:11])[H:12])[C:6]([H:16])([H:17])[O:7]2"
C        1.83891623       0.46143522      -1.06918376
C        0.31478334       0.13008921       0.48155229
C        0.04618012      -1.36157735       0.62432151
C       -1.25957170      -1.08382424      -0.18941388
C       -0.90525096       0.42123012      -0.26185132
C       -1.17876727       1.38471388       0.89306601
O        0.11892859       1.06227627       1.50362683
H        2.70338113       0.74663749      -0.46032245
H        2.12211120      -0.52620543      -1.44018879
H        1.96207803       1.13008124      -1.92505207
H        0.76883531      -2.01144742       0.13161413
H       -0.09462898      -1.70190656       1.64951819
H       -2.16849437      -1.29528163       0.37655226
H       -1.31403736      -1.57629112      -1.16093271
H        0.27451161       0.66578815      -1.36740746
H       -1.99738360       1.10524006       1.56095333
H       -1.23159133       2.44904211       0.65314788
17
Frame=14 idx=007037 GeodesicLength=1.766304005928712 rxn_smarts="[C:1]([C@:2]12[C:3]([H:11])([H:12])[C:4]([H:13])([H:14])[C@@:5]1([H:15])[C:6]([H:16])([H:17])[O:7]2)([H:8])([H:9])[H:10]>>[C:1]([H:8])([H:9])([H:10])[H:15].[C:2]12=[C:5]([C:4]([H:13])([H:14])[C:3]1([H:11])[H:12])[C:6]([H:16])([H:17])[O:7]2"
C        1.83138875       0.46096707      -1.08661385
C        0.32002589       0.12769707       0.52240943
C        0.04040477      -1.36464050       0.64412505
C       -1.24042243      -1.07528593      -0.20450700
C       -0.88038772       0.42950960      -0.24234293
C       -1.17841615       1.38433360       0.91408950
O        0.10178767       1.05225646       1.55001973
H        2.71047031       0.78137697      -0.51578277
H        2.12442942      -0.54013724      -1.41221342
H        1.95214999       1.07658210      -1.98221642
H        0.77635776      -2.01274995       0.16891727
H       -0.13434387      -1.71221433       1.66157391
H       -2.16648352      -1.29612033       0.32836806
H       -1.26334815      -1.55035496      -1.18577832
H        0.24377634       0.68739956      -1.40085243
H       -2.01237886       1.10118037       1.56030396
H       -1.22501020       2.45020045       0.68050022
17
Frame=15 idx=007037 GeodesicLength=1.8920693895101826 rxn_smarts="[C:1]([C@:2]12[C:3]([H:11])([H:12])[C:4]([H:13])([H:14])[C@@:5]1([H:15])[C:6]([H:16])([H:17])[O:7]2)([H:8])([H:9])[H:10]>>[C:1]([H:8])([H:9])([H:10])[H:15].[C:2]12=[C:5]([C:4]([H:13])([H:14])[C:3]1([H:11])[H:12])[C:6]([H:16])([H:17])[O:7]2"
C        1.82232851       0.46104945      -1.10437960
C        0.32567493       0.12398141       0.56612143
C        0.03468666      -1.36877346       0.66399193
C       -1.21951305      -1.06593120      -0.21912328
C       -0.85259324       0.43763164      -0.22242950
C       -1.17717707       1.38405745       0.93429904
O        0.08243805       1.04005760       1.59889487
H        2.71447476       0.81658716      -0.57429193
H        2.12744744      -0.55120206      -1.38235043
H        1.93920406       1.01964421      -2.03763269
H        0.78375459      -2.01458051       0.20624403
H       -0.17458481      -1.72459239       1.67196254
H       -2.16214351      -1.29476902       0.27940586
H       -1.21056163      -1.52372360      -1.20870653
H        0.21022350       0.71021217      -1.43539320
H       -2.02825646       1.09881049       1.55607201
H       -1.21540273       2.45154066       0.70731545
17
Frame=16 idx=007037 GeodesicLength=2.0176883259871135 rxn_smarts="[C:1]([C@:2]12[C:3]([H:11])([H:12])[C:4]([H:13])([H:14])[C@@:5]1([H:15])[C:6]([H:16])([H:17])[O:7]2)([H:8])([H:9])[H:10]>>[C:1]([H:8])([H:9])([H:10])[H:15].[C:2]12=[C:5]([C:4]([H:13])([H:14])[C:3]1([H:11])[H:12])[C:6]([H:16])([H:17])[O:7]2"
C        1.81171743       0.46163018      -1.12252910
C        0.33163679       0.11878108       0.61279610
C        0.02900238      -1.37406779       0.68388840
C       -1.19680517      -1.05575244      -0.23320179
C       -0.82161056       0.44557682      -0.20205441
C       -1.17487534       1.38392980       0.95355767
O        0.06058226       1.02546899       1.65015845
H        2.71505392       0.85244272      -0.63603318
H        2.13151440      -0.55903329      -1.35055760
H        1.92295514       0.95920687      -2.09091601
H        0.79101384      -2.01705087       0.24359412
H       -0.21537171      -1.73911010       1.68053764
H       -2.15541412      -1.29109363       0.22972765
H       -1.15570577      -1.49650679      -1.22964663
H        0.17355509       0.73410404      -1.47078572
H       -2.04487130       1.09834354       1.54786201
H       -1.20237728       2.45313087       0.73360238
