17
Frame=0 idx=007540 GeodesicLength=0.0 rxn_smarts="[O:1]([C:2]([C:3]([C:4]1([H:13])[C:5]([H:14])([H:15])[O:6][C:7]1([H:16])[H:17])([H:11])[H:12])([H:9])[H:10])[H:8]>>[C:5](=[O:6])([H:14])[H:15].[O:1]([C:2]([C:3]([C:4](=[C:7]([H:16])[H:17])[H:13])([H:11])[H:12])([H:9])[H:10])[H:8]"
O        1.97429653      -0.02994861       1.22982744
C        1.94372565      -0.47192226      -0.11599546
C        0.49350208      -0.74446471      -0.47669695
C       -0.35762391       0.49052945      -0.38193765
C       -2.15999821       0.02308929      -0.45655844
O       -2.85995661       0.89026343       0.21593504
C       -0.85732745       0.93929782       0.83722409
H        2.86920314       0.21974327       1.46155379
H        2.53303552      -1.38900672      -0.23613512
H        2.35919777       0.29100648      -0.78661881
H        0.11337969      -1.51572624       0.19982592
H        0.45074545      -1.15644310      -1.48951635
H       -0.18798238       1.25247154      -1.13746555
H       -2.02273763      -0.99005664      -0.03459196
H       -2.31889635      -0.05697813      -1.55251678
H       -1.08766786       1.97498788       1.03186404
H       -0.88489539       0.27315729       1.69180273
17
Frame=1 idx=007540 GeodesicLength=0.061566112955588954 rxn_smarts="[O:1]([C:2]([C:3]([C:4]1([H:13])[C:5]([H:14])([H:15])[O:6][C:7]1([H:16])[H:17])([H:11])[H:12])([H:9])[H:10])[H:8]>>[C:5](=[O:6])([H:14])[H:15].[O:1]([C:2]([C:3]([C:4](=[C:7]([H:16])[H:17])[H:13])([H:11])[H:12])([H:9])[H:10])[H:8]"
O        1.98794878      -0.02167247       1.22630013
C        1.94766435      -0.47087635      -0.11674649
C        0.49545853      -0.74673885      -0.46608619
C       -0.35835950       0.48703577      -0.37502813
C       -2.17544077       0.01878223      -0.47047449
O       -2.86679375       0.88518826       0.21265288
C       -0.86470503       0.93734251       0.84326354
H        2.88507262       0.22687871       1.45060536
H        2.53700165      -1.38796658      -0.23698537
H        2.35747829       0.28894456      -0.79446609
H        0.11968960      -1.51470322       0.21658631
H        0.44789819      -1.16415044      -1.47658927
H       -0.17664639       1.25086072      -1.12630965
H       -2.04911054      -0.99947264      -0.05827008
H       -2.32454358      -0.03928398      -1.56837159
H       -1.07696634       1.97693901       1.04019414
H       -0.88564611       0.27289277       1.69972497
17
Frame=2 idx=007540 GeodesicLength=0.12309415166581544 rxn_smarts="[O:1]([C:2]([C:3]([C:4]1([H:13])[C:5]([H:14])([H:15])[O:6][C:7]1([H:16])[H:17])([H:11])[H:12])([H:9])[H:10])[H:8]>>[C:5](=[O:6])([H:14])[H:15].[O:1]([C:2]([C:3]([C:4](=[C:7]([H:16])[H:17])[H:13])([H:11])[H:12])([H:9])[H:10])[H:8]"
O        2.00171391      -0.01318541       1.22256291
C        1.95154380      -0.46986818      -0.11750074
C        0.49738301      -0.74899373      -0.45521694
C       -0.35913535       0.48354802      -0.36795996
C       -2.19093168       0.01448218      -0.48483033
O       -2.87368957       0.87951034       0.20942363
C       -0.87220246       0.93547600       0.84938623
H        2.90103885       0.23417367       1.43928912
H        2.54084817      -1.38701581      -0.23774591
H        2.35560010       0.28665400      -0.80245376
H        0.12607261      -1.51349403       0.23375017
H        0.44489582      -1.17200437      -1.46327215
H       -0.16540728       1.24917049      -1.11488420
H       -2.07558213      -1.00888441      -0.08297508
H       -2.32995283      -0.02118253      -1.58419500
H       -1.06598460       1.97870675       1.04878324
H       -0.88621037       0.27290703       1.70783877
17
Frame=3 idx=007540 GeodesicLength=0.18458713495222073 rxn_smarts="[O:1]([C:2]([C:3]([C:4]1([H:13])[C:5]([H:14])([H:15])[O:6][C:7]1([H:16])[H:17])([H:11])[H:12])([H:9])[H:10])[H:8]>>[C:5](=[O:6])([H:14])[H:15].[O:1]([C:2]([C:3]([C:4](=[C:7]([H:16])[H:17])[H:13])([H:11])[H:12])([H:9])[H:10])[H:8]"
O        2.01559237      -0.00448938       1.21860633
C        1.95535989      -0.46889908      -0.11825793
C        0.49927361      -0.75122399      -0.44408002
C       -0.35995131       0.48007211      -0.36072761
C       -2.20646380       0.01018836      -0.49963740
O       -2.88064405       0.87318557       0.20625476
C       -0.87981891       0.93371321       0.85559397
H        2.91710327       0.24161002       1.42759672
H        2.54457000      -1.38615572      -0.23841795
H        2.35355381       0.28412949      -0.81057997
H        0.13253121      -1.51208415       0.25133042
H        0.44173222      -1.18000444      -1.44954750
H       -0.15427412       1.24740127      -1.10319270
H       -2.10214160      -1.01828796      -0.10874864
H       -2.33512446      -0.00266763      -1.59996916
H       -1.05472039       1.98028619       1.05763007
H       -0.88657773       0.27322613       1.71614662
17
Frame=4 idx=007540 GeodesicLength=0.24604624075183346 rxn_smarts="[O:1]([C:2]([C:3]([C:4]1([H:13])[C:5]([H:14])([H:15])[O:6][C:7]1([H:16])[H:17])([H:11])[H:12])([H:9])[H:10])[H:8]>>[C:5](=[O:6])([H:14])[H:15].[O:1]([C:2]([C:3]([C:4](=[C:7]([H:16])[H:17])[H:13])([H:11])[H:12])([H:9])[H:10])[H:8]"
O        2.02958435       0.00441633       1.21441875
C        1.95910792      -0.46797149      -0.11901774
C        0.50112831      -0.75342563      -0.43266439
C       -0.36080801       0.47661250      -0.35332505
C       -2.22202873       0.00589882      -0.51490881
O       -2.88765722       0.86616094       0.20315737
C       -0.88755340       0.93206907       0.86188909
H        2.93326483       0.24917602       1.41551420
H        2.54816138      -1.38538982      -0.23899946
H        2.35132805       0.28136093      -0.81884410
H        0.13906877      -1.51045864       0.26934307
H        0.43840070      -1.18815367      -1.43539469
H       -0.14325370       1.24555225      -1.09123580
H       -2.12877268      -1.02767626      -0.13564719
H       -2.34006001       0.01628013      -1.61566834
H       -1.04317251       1.98167139       1.06673161
H       -0.88673806       0.27387712       1.72465148
17
Frame=5 idx=007540 GeodesicLength=0.30747673081939364 rxn_smarts="[O:1]([C:2]([C:3]([C:4]1([H:13])[C:5]([H:14])([H:15])[O:6][C:7]1([H:16])[H:17])([H:11])[H:12])([H:9])[H:10])[H:8]>>[C:5](=[O:6])([H:14])[H:15].[O:1]([C:2]([C:3]([C:4](=[C:7]([H:16])[H:17])[H:13])([H:11])[H:12])([H:9])[H:10])[H:8]"
O        2.04369075       0.01353000       1.20999140
C        1.96278374      -0.46708834      -0.11978144
C        0.50294506      -0.75559312      -0.42096106
C       -0.36170443       0.47317578      -0.34574615
C       -2.23761922       0.00161257      -0.53065613
O       -2.89472660       0.85839034       0.20014009
C       -0.89540287       0.93055894       0.86827484
H        2.94952397       0.25685750       1.40303331
H        2.55161593      -1.38472176      -0.23949099
H        2.34891431       0.27834129      -0.82724538
H        0.14568747      -1.50860175       0.28780002
H        0.43489427      -1.19645061      -1.42079668
H       -0.13235196       1.24362616      -1.07901670
H       -2.15546336      -1.03704354      -0.16371302
H       -2.34476220       0.03566533      -1.63127130
H       -1.03134041       1.98285734       1.07608619
H       -0.88668444       0.27488387       1.73335300
17
Frame=6 idx=007540 GeodesicLength=0.3688771530372266 rxn_smarts="[O:1]([C:2]([C:3]([C:4]1([H:13])[C:5]([H:14])([H:15])[O:6][C:7]1([H:16])[H:17])([H:11])[H:12])([H:9])[H:10])[H:8]>>[C:5](=[O:6])([H:14])[H:15].[O:1]([C:2]([C:3]([C:4](=[C:7]([H:16])[H:17])[H:13])([H:11])[H:12])([H:9])[H:10])[H:8]"
O        2.05791216       0.02284966       1.20530998
C        1.96638152      -0.46625395      -0.12054675
C        0.50472155      -0.75772179      -0.40895611
C       -0.36264095       0.46976691      -0.33798241
C       -2.25322392      -0.00267046      -0.54689300
O       -2.90184950       0.84980643       0.19721873
C       -0.90336416       0.92920084       0.87475593
H        2.96588022       0.26464274       1.39013474
H        2.55492656      -1.38415689      -0.23988921
H        2.34629881       0.27505772      -0.83578228
H        0.15239036      -1.50649636       0.30672111
H        0.43120440      -1.20489768      -1.40572824
H       -0.12157671       1.24162185      -1.06653715
H       -2.18218772      -1.04637901      -0.19302038
H       -2.34923887       0.05551173      -1.64674730
H       -1.01922672       1.98384157       1.08568686
H       -0.88640702       0.27627668       1.74225549
17
Frame=7 idx=007540 GeodesicLength=0.43025119333315515 rxn_smarts="[O:1]([C:2]([C:3]([C:4]1([H:13])[C:5]([H:14])([H:15])[O:6][C:7]1([H:16])[H:17])([H:11])[H:12])([H:9])[H:10])[H:8]>>[C:5](=[O:6])([H:14])[H:15].[O:1]([C:2]([C:3]([C:4](=[C:7]([H:16])[H:17])[H:13])([H:11])[H:12])([H:9])[H:10])[H:8]"
O        2.07224973       0.03237454       1.20036264
C        1.96989728      -0.46547216      -0.12131325
C        0.50645655      -0.75980754      -0.39663893
C       -0.36361633       0.46639103      -0.33002739
C       -2.26883255      -0.00695385      -0.56363150
O       -2.90902029       0.84034980       0.19440788
C       -0.91143238       0.92801053       0.88133611
H        2.98233271       0.27251996       1.37680651
H        2.55808696      -1.38370059      -0.24019131
H        2.34347183       0.27149890      -0.84445443
H        0.15918092      -1.50412568       0.32612096
H        0.42732415      -1.21349659      -1.39016761
H       -0.11093239       1.23954028      -1.05380147
H       -2.20892585      -1.05567166      -0.22363037
H       -2.35350191       0.07584011      -1.66206053
H       -1.00683679       1.98462355       1.09552525
H       -0.88590164       0.27807937       1.75135744
17
Frame=8 idx=007540 GeodesicLength=0.4915943740316425 rxn_smarts="[O:1]([C:2]([C:3]([C:4]1([H:13])[C:5]([H:14])([H:15])[O:6][C:7]1([H:16])[H:17])([H:11])[H:12])([H:9])[H:10])[H:8]>>[C:5](=[O:6])([H:14])[H:15].[O:1]([C:2]([C:3]([C:4](=[C:7]([H:16])[H:17])[H:13])([H:11])[H:12])([H:9])[H:10])[H:8]"
O        2.08670498       0.04210117       1.19513281
C        1.97332436      -0.46474898      -0.12207994
C        0.50814633      -0.76184459      -0.38399452
C       -0.36463081       0.46305432      -0.32187213
C       -2.28443238      -0.01123449      -0.58088642
O       -2.91623306       0.82994297       0.19172421
C       -0.91960156       0.92700874       0.88802125
H        2.99888074       0.28047739       1.36302690
H        2.56108748      -1.38335984      -0.24039248
H        2.34041859       0.26764729      -0.85326043
H        0.16606089      -1.50146881       0.34601890
H        0.42324190      -1.22224804      -1.37408638
H       -0.10042508       1.23738200      -1.04081134
H       -2.23564094      -1.06490691      -0.25561870
H       -2.35756107       0.09667361      -1.67717834
H       -0.99418006       1.98520114       1.10559517
H       -0.88516031       0.28032305       1.76066143
17
Frame=9 idx=007540 GeodesicLength=0.5528651769060605 rxn_smarts="[O:1]([C:2]([C:3]([C:4]1([H:13])[C:5]([H:14])([H:15])[O:6][C:7]1([H:16])[H:17])([H:11])[H:12])([H:9])[H:10])[H:8]>>[C:5](=[O:6])([H:14])[H:15].[O:1]([C:2]([C:3]([C:4](=[C:7]([H:16])[H:17])[H:13])([H:11])[H:12])([H:9])[H:10])[H:8]"
O        2.10126885       0.05203179       1.18960713
C        1.97664665      -0.46409793      -0.12283926
C        0.50978215      -0.76383661      -0.37099881
C       -0.36569429       0.45975398      -0.31350469
C       -2.30000852      -0.01550681      -0.59866672
O       -2.92343472       0.81839129       0.18924013
C       -0.92786547       0.92622068       0.89482256
H        3.01550977       0.28850726       1.34877936
H        2.56390835      -1.38315475      -0.24047080
H        2.33711525       0.26347819      -0.86220061
H        0.17302504      -1.49850798       0.36644420
H        0.41894350      -1.23116499      -1.35744698
H       -0.09006698       1.23513385      -1.02758150
H       -2.26221832      -1.07404971      -0.28915233
H       -2.36148902       0.11812016      -1.69205363
H       -0.98126610       1.98561472       1.11584491
H       -0.88415615       0.28306684       1.77017704
17
Frame=10 idx=007540 GeodesicLength=0.6141031109787235 rxn_smarts="[O:1]([C:2]([C:3]([C:4]1([H:13])[C:5]([H:14])([H:15])[O:6][C:7]1([H:16])[H:17])([H:11])[H:12])([H:9])[H:10])[H:8]>>[C:5](=[O:6])([H:14])[H:15].[O:1]([C:2]([C:3]([C:4](=[C:7]([H:16])[H:17])[H:13])([H:11])[H:12])([H:9])[H:10])[H:8]"
O        2.11595478       0.06216294       1.18376566
C        1.97986713      -0.46352391      -0.12359686
C        0.51136670      -0.76577056      -0.35764399
C       -0.36679252       0.45650791      -0.30491823
C       -2.31554708      -0.01977490      -0.61699234
O       -2.93064576       0.80568263       0.18693286
C       -0.93621741       0.92566463       0.90174012
H        3.03223400       0.29659929       1.33403382
H        2.56654645      -1.38309064      -0.24043064
H        2.33355905       0.25897167      -0.87127844
H        0.18008326      -1.49521793       0.38741310
H        0.41441921      -1.24024184      -1.34022636
H       -0.07984778       1.23281237      -1.01410217
H       -2.28868986      -1.08309058      -0.32424524
H       -2.36525502       0.14015844      -1.70663949
H       -0.96812825       1.98583446       1.12629336
H       -0.88290689       0.28631600       1.77989484
17
Frame=11 idx=007540 GeodesicLength=0.6753116920834833 rxn_smarts="[O:1]([C:2]([C:3]([C:4]1([H:13])[C:5]([H:14])([H:15])[O:6][C:7]1([H:16])[H:17])([H:11])[H:12])([H:9])[H:10])[H:8]>>[C:5](=[O:6])([H:14])[H:15].[O:1]([C:2]([C:3]([C:4](=[C:7]([H:16])[H:17])[H:13])([H:11])[H:12])([H:9])[H:10])[H:8]"
O        2.13076648       0.07249445       1.17758955
C        1.98297952      -0.46303697      -0.12435180
C        0.51289682      -0.76764115      -0.34391154
C       -0.36792232       0.45332485      -0.29610071
C       -2.33103409      -0.02403774      -0.63587632
O       -2.93784125       0.79170809       0.18483150
C       -0.94465049       0.92536073       0.90878278
H        3.04905564       0.30474429       1.31876428
H        2.56898891      -1.38318365      -0.24026399
H        2.32973758       0.25410350      -0.88049897
H        0.18723819      -1.49157476       0.40894992
H        0.40965582      -1.24948191      -1.32239164
H       -0.06976605       1.23042125      -1.00037296
H       -2.31501512      -1.09201303      -0.36098893
H       -2.36888217       0.16283661      -1.72089690
H       -0.95479528       1.98587583       1.13692014
H       -0.88141218       0.29009960       1.78981559
17
Frame=12 idx=007540 GeodesicLength=0.7364912633138343 rxn_smarts="[O:1]([C:2]([C:3]([C:4]1([H:13])[C:5]([H:14])([H:15])[O:6][C:7]1([H:16])[H:17])([H:11])[H:12])([H:9])[H:10])[H:8]>>[C:5](=[O:6])([H:14])[H:15].[O:1]([C:2]([C:3]([C:4](=[C:7]([H:16])[H:17])[H:13])([H:11])[H:12])([H:9])[H:10])[H:8]"
O        2.14570890       0.08302634       1.17105553
C        1.98597580      -0.46265122      -0.12510202
C        0.51436859      -0.76944392      -0.32977996
C       -0.36907969       0.45021404      -0.28704004
C       -2.34645159      -0.02829376      -0.65533679
O       -2.94499473       0.77632873       0.18296586
C       -0.95315852       0.92533378       0.91595703
H        3.06597525       0.31293635       1.30293408
H        2.57122136      -1.38345192      -0.23995693
H        2.32563412       0.24883850      -0.88986768
H        0.19449186      -1.48755317       0.43108350
H        0.40463734      -1.25889158      -1.30390293
H       -0.05981708       1.22796327      -0.98639286
H       -2.34113486      -1.10078781      -0.39949647
H       -2.37240033       0.18622382      -1.73476537
H       -0.94130611       1.98575254       1.14770288
H       -0.87967031       0.29445601       1.79994218
17
Frame=13 idx=007540 GeodesicLength=0.7976409495462956 rxn_smarts="[O:1]([C:2]([C:3]([C:4]1([H:13])[C:5]([H:14])([H:15])[O:6][C:7]1([H:16])[H:17])([H:11])[H:12])([H:9])[H:10])[H:8]>>[C:5](=[O:6])([H:14])[H:15].[O:1]([C:2]([C:3]([C:4](=[C:7]([H:16])[H:17])[H:13])([H:11])[H:12])([H:9])[H:10])[H:8]"
O        2.16078747       0.09375531       1.16414146
C        1.98884867      -0.46238089      -0.12584800
C        0.51577785      -0.77117209      -0.31522892
C       -0.37025992       0.44718614      -0.27772473
C       -2.36178152      -0.03254255      -0.67538587
O       -2.95207308       0.75940464       0.18137334
C       -0.96173261       0.92560846       0.92326961
H        3.08299572       0.32116234       1.28651774
H        2.57322699      -1.38391675      -0.23949836
H        2.32123576       0.24314641      -0.89938960
H        0.20184581      -1.48312459       0.45383987
H        0.39934694      -1.26847305      -1.28472240
H       -0.04999686       1.22544344      -0.97216458
H       -2.36699052      -1.10938284      -0.43987715
H       -2.37584438       0.21037737      -1.74818831
H       -0.92770623       1.98548848       1.15861271
H       -0.87768011       0.29942018       1.81027319
17
Frame=14 idx=007540 GeodesicLength=0.8587617526850966 rxn_smarts="[O:1]([C:2]([C:3]([C:4]1([H:13])[C:5]([H:14])([H:15])[O:6][C:7]1([H:16])[H:17])([H:11])[H:12])([H:9])[H:10])[H:8]>>[C:5](=[O:6])([H:14])[H:15].[O:1]([C:2]([C:3]([C:4](=[C:7]([H:16])[H:17])[H:13])([H:11])[H:12])([H:9])[H:10])[H:8]"
O        2.17600928       0.10467929       1.15681740
C        1.99158843      -0.46224541      -0.12658617
C        0.51711941      -0.77282099      -0.30023052
C       -0.37145725       0.44425270      -0.26813983
C       -2.37700090      -0.03677796      -0.69604493
O       -2.95903109       0.74074174       0.18009366
C       -0.97036633       0.92621336       0.93072839
H        3.10011950       0.32941328       1.26946537
H        2.57498709      -1.38460394      -0.23886821
H        2.31652215       0.23697998      -0.90906975
H        0.20930241      -1.47825680       0.47725639
H        0.39376386      -1.27823464      -1.26479798
H       -0.04029795       1.22286427      -0.95768666
H       -2.39250013      -1.11775222      -0.48228562
H       -2.37926290       0.23539161      -1.76107768
H       -0.91405751       1.98511638       1.16961120
H       -0.87543809       0.30503934       1.82081493
17
Frame=15 idx=007540 GeodesicLength=0.9198526260100759 rxn_smarts="[O:1]([C:2]([C:3]([C:4]1([H:13])[C:5]([H:14])([H:15])[O:6][C:7]1([H:16])[H:17])([H:11])[H:12])([H:9])[H:10])[H:8]>>[C:5](=[O:6])([H:14])[H:15].[O:1]([C:2]([C:3]([C:4](=[C:7]([H:16])[H:17])[H:13])([H:11])[H:12])([H:9])[H:10])[H:8]"
O        2.19138141       0.11579081       1.14905624
C        1.99418540      -0.46226515      -0.12731378
C        0.51838816      -0.77438358      -0.28475856
C       -0.37266445       0.44142698      -0.25827162
C       -2.39208751      -0.04099469      -0.71732795
O       -2.96581288       0.72013885       0.17916923
C       -0.97905162       0.92717745       0.93833901
H        3.11734972       0.33767380       1.25173552
H        2.57648111      -1.38554068      -0.23804879
H        2.31147535       0.23029479      -0.91891193
H        0.21686278      -1.47291557       0.50136623
H        0.38786664      -1.28817957      -1.24407913
H       -0.03071259       1.22023015      -0.94296134
H       -2.41757832      -1.12584042      -0.52687248
H       -2.38271462       0.26134933      -1.77334500
H       -0.90042802       1.98467679       1.18065467
H       -0.87294054       0.31136073       1.83156969
17
Frame=16 idx=007540 GeodesicLength=0.9809197982686432 rxn_smarts="[O:1]([C:2]([C:3]([C:4]1([H:13])[C:5]([H:14])([H:15])[O:6][C:7]1([H:16])[H:17])([H:11])[H:12])([H:9])[H:10])[H:8]>>[C:5](=[O:6])([H:14])[H:15].[O:1]([C:2]([C:3]([C:4](=[C:7]([H:16])[H:17])[H:13])([H:11])[H:12])([H:9])[H:10])[H:8]"
O        2.20691417       0.12708650       1.14082349
C        1.99662813      -0.46246744      -0.12802629
C        0.51957737      -0.77585518      -0.26877992
C       -0.37387222       0.43872380      -0.24810381
C       -2.40701595      -0.04518285      -0.73925750
O       -2.97234967       0.69733860       0.17865128
C       -0.98778309       0.92853252       0.94610699
H        3.13469009       0.34593614       1.23327241
H        2.57768408      -1.38676504      -0.23701236
H        2.30607494       0.22303040      -0.92892632
H        0.22452767      -1.46706393       0.52621339
H        0.38162863      -1.29831818      -1.22250558
H       -0.02122674       1.21754466      -0.92798736
H       -2.44211718      -1.13357690      -0.57383173
H       -2.38627271       0.28837110      -1.78486779
H       -0.88690668       1.98422226       1.19168654
H       -0.87018086       0.31844354       1.84254459
