16
Frame=0 idx=008935 GeodesicLength=0.0 rxn_smarts="[C:1]([C@@:2]1([H:11])[C:3]([H:12])([H:13])[N:4]([C:5]([H:14])([H:15])[H:16])[C:6]1=[O:7])([H:8])([H:9])[H:10]>>[C:1]([N:4]([C:3]([C:2](=[C:6]=[O:7])[H:11])([H:12])[H:13])[C:5]([H:14])([H:15])[H:16])([H:8])([H:9])[H:10]"
C        1.36946178      -0.80671793       0.72135784
C        1.02618261       1.13366644      -0.63479258
C        0.06612983       0.21375825      -1.32268266
N       -0.44601403      -0.15316456       0.00524050
C       -1.82631494      -0.46917146       0.28879519
C        0.22742598       1.12454407       0.53617761
O       -0.00898244       1.68096348       1.57261655
H        0.79966678      -1.38189635       1.44087489
H        2.15269344      -0.22312682       1.18749268
H        1.68697587      -1.36785966      -0.14772582
H        1.80190688       1.79523079      -0.98308544
H       -0.72423828       0.73829266      -1.87016559
H        0.43317298      -0.62158065      -1.92534188
H       -1.93222841      -0.63360301       1.36186106
H       -2.50162516       0.34732700       0.00864396
H       -2.12421292      -1.37666232      -0.23926637
16
Frame=1 idx=008935 GeodesicLength=0.09267496888219555 rxn_smarts="[C:1]([C@@:2]1([H:11])[C:3]([H:12])([H:13])[N:4]([C:5]([H:14])([H:15])[H:16])[C:6]1=[O:7])([H:8])([H:9])[H:10]>>[C:1]([N:4]([C:3]([C:2](=[C:6]=[O:7])[H:11])([H:12])[H:13])[C:5]([H:14])([H:15])[H:16])([H:8])([H:9])[H:10]"
C        1.36889084      -0.80459871       0.71112394
C        1.03696571       1.11958316      -0.62924959
C        0.05903238       0.21285153      -1.31443241
N       -0.45295845      -0.14441611       0.01551740
C       -1.83191430      -0.47057733       0.29210359
C        0.23062952       1.15387696       0.53650818
O       -0.00230510       1.72583708       1.56365727
H        0.80165229      -1.43352774       1.38760051
H        2.13526465      -0.24424982       1.23198308
H        1.73885947      -1.33919025      -0.15446173
H        1.80053956       1.78652715      -0.99350892
H       -0.72442668       0.74141585      -1.86731617
H        0.41627375      -0.62886552      -1.91435573
H       -1.94339837      -0.62390679       1.36623784
H       -2.51308187       0.33540506      -0.00310583
H       -2.12002340      -1.38616450      -0.22830144
16
Frame=2 idx=008935 GeodesicLength=0.18475133566744656 rxn_smarts="[C:1]([C@@:2]1([H:11])[C:3]([H:12])([H:13])[N:4]([C:5]([H:14])([H:15])[H:16])[C:6]1=[O:7])([H:8])([H:9])[H:10]>>[C:1]([N:4]([C:3]([C:2](=[C:6]=[O:7])[H:11])([H:12])[H:13])[C:5]([H:14])([H:15])[H:16])([H:8])([H:9])[H:10]"
C        1.36791297      -0.80297170       0.70088530
C        1.04705208       1.10610404      -0.62339933
C        0.05214163       0.21196831      -1.30585487
N       -0.45994960      -0.13531543       0.02606348
C       -1.83730662      -0.47207112       0.29582419
C        0.23422476       1.18391509       0.53625557
O        0.00523865       1.77132230       1.55395402
H        0.80484303      -1.48420145       1.32988925
H        2.11411952      -0.26795622       1.27613931
H        1.79078396      -1.30853122      -0.15849738
H        1.79913887       1.77699707      -1.00383552
H       -0.72454313       0.74376125      -1.86455649
H        0.40020732      -0.63601964      -1.90259978
H       -1.95416892      -0.61446705       1.37088191
H       -2.52424243       0.32306487      -0.01428251
H       -2.11545210      -1.39559910      -0.21686714
16
Frame=3 idx=008935 GeodesicLength=0.27626276591014004 rxn_smarts="[C:1]([C@@:2]1([H:11])[C:3]([H:12])([H:13])[N:4]([C:5]([H:14])([H:15])[H:16])[C:6]1=[O:7])([H:8])([H:9])[H:10]>>[C:1]([N:4]([C:3]([C:2](=[C:6]=[O:7])[H:11])([H:12])[H:13])[C:5]([H:14])([H:15])[H:16])([H:8])([H:9])[H:10]"
C        1.36652646      -0.80185872       0.69062926
C        1.05650796       1.09320503      -0.61724369
C        0.04542832       0.21115032      -1.29697852
N       -0.46696188      -0.12588708       0.03685051
C       -1.84244448      -0.47372695       0.29994629
C        0.23823166       1.21464177       0.53537304
O        0.01375055       1.81730332       1.54353134
H        0.80933196      -1.53328836       1.26790783
H        2.08914826      -0.29435761       1.31965326
H        1.84240120      -1.27608196      -0.15953262
H        1.79780594       1.76663670      -1.01403046
H       -0.72462837       0.74543651      -1.86184453
H        0.38491000      -0.64296482      -1.89019966
H       -1.96450406      -0.60536063       1.37578946
H       -2.53509448       0.31020566      -0.02488349
H       -2.11040906      -1.40505318      -0.20496802
16
Frame=4 idx=008935 GeodesicLength=0.36725649928475657 rxn_smarts="[C:1]([C@@:2]1([H:11])[C:3]([H:12])([H:13])[N:4]([C:5]([H:14])([H:15])[H:16])[C:6]1=[O:7])([H:8])([H:9])[H:10]>>[C:1]([N:4]([C:3]([C:2](=[C:6]=[O:7])[H:11])([H:12])[H:13])[C:5]([H:14])([H:15])[H:16])([H:8])([H:9])[H:10]"
C        1.36473548      -0.80126823       0.68035293
C        1.06540018       1.08085795      -0.61077934
C        0.03886285       0.21045108      -1.28783585
N       -0.47397032      -0.11616207       0.04784405
C       -1.84728257      -0.47562174       0.30445058
C        0.24267248       1.24603404       0.53381619
O        0.02333480       1.86365132       1.53242720
H        0.81518531      -1.58016084       1.20194588
H        2.06031572      -0.32354382       1.36214002
H        1.89334937      -1.24210138      -0.15727907
H        1.79661798       1.75545667      -1.02406095
H       -0.72472190       0.74657024      -1.85913764
H        0.37030663      -0.64960662      -1.87729728
H       -1.97438601      -0.59663998       1.38094940
H       -2.54562777       0.29671277      -0.03493950
H       -2.10479226      -1.41462940      -0.19259662
16
Frame=5 idx=008935 GeodesicLength=0.45778950966136617 rxn_smarts="[C:1]([C@@:2]1([H:11])[C:3]([H:12])([H:13])[N:4]([C:5]([H:14])([H:15])[H:16])[C:6]1=[O:7])([H:8])([H:9])[H:10]>>[C:1]([N:4]([C:3]([C:2](=[C:6]=[O:7])[H:11])([H:12])[H:13])[C:5]([H:14])([H:15])[H:16])([H:8])([H:9])[H:10]"
C        1.36254350      -0.80118365       0.67003762
C        1.07378735       1.06901861      -0.60400775
C        0.03241410       0.20992321      -1.27846616
N       -0.48094750      -0.10617695       0.05900245
C       -1.85176631      -0.47782756       0.30931616
C        0.24756584       1.27806535       0.53153452
O        0.03407452       1.91025201       1.52066907
H        0.82249982      -1.62423771       1.13239272
H        2.02757176      -0.35557968       1.40323191
H        1.94325822      -1.20685837      -0.15150719
H        1.79564694       1.74345000      -1.03388880
H       -0.72485897       0.74729228      -1.85638934
H        0.35630659      -0.65585071      -1.86405318
H       -1.98378315      -0.58835538       1.38634600
H       -2.55581445       0.28248192      -0.04445732
H       -2.09849826      -1.42441336      -0.17976070
16
Frame=6 idx=008935 GeodesicLength=0.5479103958174527 rxn_smarts="[C:1]([C@@:2]1([H:11])[C:3]([H:12])([H:13])[N:4]([C:5]([H:14])([H:15])[H:16])[C:6]1=[O:7])([H:8])([H:9])[H:10]>>[C:1]([N:4]([C:3]([C:2](=[C:6]=[O:7])[H:11])([H:12])[H:13])[C:5]([H:14])([H:15])[H:16])([H:8])([H:9])[H:10]"
C        1.35994653      -0.80157948       0.65970157
C        1.08172073       1.05766538      -0.59691706
C        0.02604800       0.20964859      -1.26890610
N       -0.48787981      -0.09595716       0.07028057
C       -1.85585486      -0.48042407       0.31450732
C        0.25293150       1.31070991       0.52848677
O        0.04606757       1.95695949       1.50831428
H        0.83126111      -1.66496591       1.05978261
H        1.99108223      -0.39048983       1.44240337
H        1.99174848      -1.17071219      -0.14198992
H        1.79494233       1.73062918      -1.04347200
H       -0.72508005       0.74777124      -1.85356129
H        0.34281735      -0.66157069      -1.85061943
H       -1.99271326      -0.58050694       1.39194947
H       -2.56565085       0.26735803      -0.05354399
H       -2.09138700      -1.43453554      -0.16641617
16
Frame=7 idx=008935 GeodesicLength=0.6376680352151931 rxn_smarts="[C:1]([C@@:2]1([H:11])[C:3]([H:12])([H:13])[N:4]([C:5]([H:14])([H:15])[H:16])[C:6]1=[O:7])([H:8])([H:9])[H:10]>>[C:1]([N:4]([C:3]([C:2](=[C:6]=[O:7])[H:11])([H:12])[H:13])[C:5]([H:14])([H:15])[H:16])([H:8])([H:9])[H:10]"
C        1.35693563      -0.80240921       0.64935778
C        1.08924014       1.04676091      -0.58949947
C        0.01972817       0.20970080      -1.25919462
N       -0.49475557      -0.08552691       0.08163282
C       -1.85949956      -0.48347766       0.31999147
C        0.25878753       1.34394077       0.52462500
O        0.05938083       2.00365945       1.49539298
H        0.84149112      -1.70191123       0.98467555
H        1.95099586      -0.42825687       1.47919466
H        2.03844925      -1.13399249      -0.12856756
H        1.79454746       1.71698337      -1.05276505
H       -0.72542164       0.74816328      -1.85061703
H        0.32973172      -0.66665463      -1.83714620
H       -2.00117471      -0.57309842       1.39772734
H       -2.57511173       0.25120736      -0.06227036
H       -2.08332451      -1.44508851      -0.15253730
16
Frame=8 idx=008935 GeodesicLength=0.727148973586884 rxn_smarts="[C:1]([C@@:2]1([H:11])[C:3]([H:12])([H:13])[N:4]([C:5]([H:14])([H:15])[H:16])[C:6]1=[O:7])([H:8])([H:9])[H:10]>>[C:1]([N:4]([C:3]([C:2](=[C:6]=[O:7])[H:11])([H:12])[H:13])[C:5]([H:14])([H:15])[H:16])([H:8])([H:9])[H:10]"
C        1.35350522      -0.80362109       0.63903409
C        1.09638776       1.03627943      -0.58174345
C        0.01341987       0.21015166      -1.24937032
N       -0.50157838      -0.07490647       0.09301899
C       -1.86267925      -0.48705031       0.32573687
C        0.26515675       1.37774248       0.51990774
O        0.07406458       2.05026897       1.48193394
H        0.85320843      -1.73475725       0.90765730
H        1.90755563      -0.46881103       1.51314198
H        2.08301545      -1.09703110      -0.11113077
H        1.79452045       1.70250804      -1.06171924
H       -0.72592097       0.74862057      -1.84753175
H        0.31694511      -0.67100517      -1.82377344
H       -2.00920301      -0.56612309       1.40364831
H       -2.58419458       0.23389769      -0.07071772
H       -2.07420307      -1.45616331      -0.13809256
16
Frame=9 idx=008935 GeodesicLength=0.816436131601847 rxn_smarts="[C:1]([C@@:2]1([H:11])[C:3]([H:12])([H:13])[N:4]([C:5]([H:14])([H:15])[H:16])[C:6]1=[O:7])([H:8])([H:9])[H:10]>>[C:1]([N:4]([C:3]([C:2](=[C:6]=[O:7])[H:11])([H:12])[H:13])[C:5]([H:14])([H:15])[H:16])([H:8])([H:9])[H:10]"
C        1.34963943      -0.80515561       0.62874199
C        1.10319130       1.02618674      -0.57363486
C        0.00710236       0.21105376      -1.23945631
N       -0.50835672      -0.06410889       0.10440586
C       -1.86537111      -0.49118217       0.33172174
C        0.27204642       1.41210597       0.51429022
O        0.09011268       2.09674956       1.46793371
H        0.86646971      -1.76330679       0.82928107
H        1.86098409      -0.51206524       1.54383001
H        2.12511711      -1.06011792      -0.08965690
H        1.79490965       1.68717938      -1.07028000
H       -0.72659332       0.74926428      -1.84426335
H        0.30437963      -0.67455752      -1.81061059
H       -2.01683071      -0.55957006       1.40967874
H       -2.59288069       0.21533470      -0.07891805
H       -2.06391984      -1.46781020      -0.12306326
16
Frame=10 idx=008935 GeodesicLength=0.9055592994930808 rxn_smarts="[C:1]([C@@:2]1([H:11])[C:3]([H:12])([H:13])[N:4]([C:5]([H:14])([H:15])[H:16])[C:6]1=[O:7])([H:8])([H:9])[H:10]>>[C:1]([N:4]([C:3]([C:2](=[C:6]=[O:7])[H:11])([H:12])[H:13])[C:5]([H:14])([H:15])[H:16])([H:8])([H:9])[H:10]"
C        1.34529370      -0.80696696       0.61853310
C        1.10965301       1.01646842      -0.56514675
C        0.00073265       0.21248678      -1.22947076
N       -0.51511174      -0.05312532       0.11576434
C       -1.86754316      -0.49591487       0.33790979
C        0.27948289       1.44701622       0.50773002
O        0.10754817       2.14303600       1.45338119
H        0.88123430      -1.78742458       0.75013306
H        1.81168350      -0.55790899       1.57082513
H        2.16440720      -1.02356108      -0.06413354
H        1.79573137       1.67097768      -1.07838008
H       -0.72747403       0.75024727      -1.84079600
H        0.29192547      -0.67721391      -1.79773272
H       -2.02410176      -0.55338279       1.41576802
H       -2.60114208       0.19536452      -0.08701676
H       -2.05231948      -1.48009839      -0.10736804
16
Frame=11 idx=008935 GeodesicLength=0.9945982427712171 rxn_smarts="[C:1]([C@@:2]1([H:11])[C:3]([H:12])([H:13])[N:4]([C:5]([H:14])([H:15])[H:16])[C:6]1=[O:7])([H:8])([H:9])[H:10]>>[C:1]([N:4]([C:3]([C:2](=[C:6]=[O:7])[H:11])([H:12])[H:13])[C:5]([H:14])([H:15])[H:16])([H:8])([H:9])[H:10]"
C        1.34042556      -0.80900556       0.60844554
C        1.11579038       1.00710801      -0.55625280
C       -0.00571258       0.21450348      -1.21942996
N       -0.52187566      -0.04194008       0.12707898
C       -1.86918683      -0.50127986       0.34428608
C        0.28749780       1.48247498       0.50019211
O        0.12634952       2.18913588       1.43824597
H        0.89750983      -1.80707089       0.67070195
H        1.76000709      -0.60621185       1.59379139
H        2.20056833      -0.98761992      -0.03462987
H        1.79703274       1.65387687      -1.08595747
H       -0.72857710       0.75167696      -1.83711573
H        0.27950400      -0.67892053      -1.78520798
H       -2.03107809      -0.54753394       1.42188793
H       -2.60896032       0.17386696      -0.09507965
H       -2.03929465      -1.49306050      -0.09095649
16
Frame=12 idx=008935 GeodesicLength=1.083648126984894 rxn_smarts="[C:1]([C@@:2]1([H:11])[C:3]([H:12])([H:13])[N:4]([C:5]([H:14])([H:15])[H:16])[C:6]1=[O:7])([H:8])([H:9])[H:10]>>[C:1]([N:4]([C:3]([C:2](=[C:6]=[O:7])[H:11])([H:12])[H:13])[C:5]([H:14])([H:15])[H:16])([H:8])([H:9])[H:10]"
C        1.33498317      -0.81124169       0.59851368
C        1.12161497       0.99809773      -0.54691773
C       -0.01225540       0.21715045      -1.20933701
N       -0.52869017      -0.03052430       0.13834451
C       -1.87030005      -0.50729899       0.35084204
C        0.29613157       1.51849563       0.49164341
O        0.14648007       2.23509592       1.42247288
H        0.91530662      -1.82227903       0.59140239
H        1.70632198      -0.65685088       1.61244155
H        2.23331094      -0.95252657      -0.00125602
H        1.79885629       1.63585178      -1.09294263
H       -0.72991553       0.75364985      -1.83320575
H        0.26704579      -0.67964044      -1.77307422
H       -2.03783853      -0.54197698       1.42800865
H       -2.61631744       0.15071824      -0.10318151
H       -2.02473428      -1.50672072      -0.07375423
16
Frame=13 idx=008935 GeodesicLength=1.1727749887876737 rxn_smarts="[C:1]([C@@:2]1([H:11])[C:3]([H:12])([H:13])[N:4]([C:5]([H:14])([H:15])[H:16])[C:6]1=[O:7])([H:8])([H:9])[H:10]>>[C:1]([N:4]([C:3]([C:2](=[C:6]=[O:7])[H:11])([H:12])[H:13])[C:5]([H:14])([H:15])[H:16])([H:8])([H:9])[H:10]"
C        1.32891212      -0.81364140       0.58876920
C        1.12713409       0.98942392      -0.53710757
C       -0.01889897       0.22044773      -1.19918647
N       -0.53559425      -0.01885532       0.14956937
C       -1.87087694      -0.51398105       0.35758394
C        0.30542265       1.55508144       0.48204167
O        0.16786104       2.28099176       1.40595972
H        0.93469058      -1.83311198       0.51260347
H        1.65090684      -0.70970281       1.62656137
H        2.26234460      -0.91846642       0.03581582
H        1.80123392       1.61686576      -1.09927715
H       -0.73147725       0.75621215      -1.82905095
H        0.25451489      -0.67936284      -1.76134411
H       -2.04442734      -0.53675539       1.43411618
H       -2.62316567       0.12587811      -0.11128212
H       -2.00858032      -1.52102366      -0.05577238
16
Frame=14 idx=008935 GeodesicLength=1.26202714160586 rxn_smarts="[C:1]([C@@:2]1([H:11])[C:3]([H:12])([H:13])[N:4]([C:5]([H:14])([H:15])[H:16])[C:6]1=[O:7])([H:8])([H:9])[H:10]>>[C:1]([N:4]([C:3]([C:2](=[C:6]=[O:7])[H:11])([H:12])[H:13])[C:5]([H:14])([H:15])[H:16])([H:8])([H:9])[H:10]"
C        1.32211990      -0.81621512       0.57923423
C        1.13232729       0.98108848      -0.52676354
C       -0.02567472       0.22445425      -1.18895206
N       -0.54263828      -0.00686504       0.16076223
C       -1.87088261      -0.52133414       0.36450544
C        0.31543381       1.59224475       0.47135304
O        0.19044489       2.32688940       1.38860191
H        0.95559940      -1.83964126       0.43462587
H        1.59416521      -0.76469347       1.63591398
H        2.28738699      -0.88566254       0.07641884
H        1.80415969       1.59688262      -1.10486256
H       -0.73327924       0.75947169      -1.82462137
H        0.24184070      -0.67803765      -1.74999481
H       -2.05093090      -0.53174982       1.44015777
H       -2.62944314       0.09915629      -0.11953966
H       -1.99062901      -1.53598846      -0.03683932
16
Frame=15 idx=008935 GeodesicLength=1.3514793487488963 rxn_smarts="[C:1]([C@@:2]1([H:11])[C:3]([H:12])([H:13])[N:4]([C:5]([H:14])([H:15])[H:16])[C:6]1=[O:7])([H:8])([H:9])[H:10]>>[C:1]([N:4]([C:3]([C:2](=[C:6]=[O:7])[H:11])([H:12])[H:13])[C:5]([H:14])([H:15])[H:16])([H:8])([H:9])[H:10]"
C        1.31451365      -0.81896708       0.56992118
C        1.13718860       0.97308863      -0.51583655
C       -0.03259179       0.22920009      -1.17860894
N       -0.54987179       0.00550761       0.17194517
C       -1.87028596      -0.52936373       0.37162830
C        0.32623746       1.62999827       0.45952883
O        0.21416498       2.37290397       1.37025095
H        0.97805411      -1.84194396       0.35769864
H        1.53631286      -0.82176859       1.64033114
H        2.30817865      -0.85426996       0.12037689
H        1.80764354       1.57585594      -1.10962559
H       -0.73531413       0.76348267      -1.81989210
H        0.22898482      -0.67564773      -1.73899889
H       -2.05740160      -0.52695782       1.44611497
H       -2.63506711       0.07044280      -0.12795886
H       -1.97074630      -1.55156112      -0.01687515
16
Frame=16 idx=008935 GeodesicLength=1.4412353548164185 rxn_smarts="[C:1]([C@@:2]1([H:11])[C:3]([H:12])([H:13])[N:4]([C:5]([H:14])([H:15])[H:16])[C:6]1=[O:7])([H:8])([H:9])[H:10]>>[C:1]([N:4]([C:3]([C:2](=[C:6]=[O:7])[H:11])([H:12])[H:13])[C:5]([H:14])([H:15])[H:16])([H:8])([H:9])[H:10]"
C        1.30598665      -0.82191929       0.56082694
C        1.14171689       0.96542527      -0.50427369
C       -0.03966320       0.23472127      -1.16813455
N       -0.55735260       0.01834006       0.18314548
C       -1.86905264      -0.53807840       0.37898883
C        0.33793130       1.66835618       0.44652190
O        0.23897806       2.41916143       1.35075772
H        1.00206906      -1.84007396       0.28197105
H        1.47750202      -0.88089901       1.63964198
H        2.32448370      -0.82442931       0.16754848
H        1.81170342       1.55373071      -1.11348912
H       -0.73758307       0.76830473      -1.81484263
H        0.21590331      -0.67217038      -1.72833412
H       -2.06391149      -0.52234458       1.45198079
H       -2.63994895       0.03957221      -0.13657132
H       -1.94876246      -1.56769693       0.00426227
