16
Frame=0 idx=005028 GeodesicLength=0.0 rxn_smarts="[C:1]([O:2][C:3]([C@@:4]([C:5]([H:13])([H:14])[H:15])([O:6][H:16])[H:12])([H:10])[H:11])([H:7])([H:8])[H:9]>>[C:1]([O:2][C:3]([H:10])([H:11])[H:15])([H:7])([H:8])[H:9].[C:4](=[C:5]([H:13])[H:14])([O:6][H:16])[H:12]"
C        2.07432000      -1.05235692      -0.40253075
O        1.40941043       0.12400045       0.06003422
C        0.68204168       1.05991404      -0.97776424
C       -1.52608886       0.47847906       1.43236510
C       -2.28424933       0.09222092       0.21371678
O       -0.51594003      -0.05799861       1.83363663
H        1.38661971      -1.67480990      -0.97845071
H        2.89412791      -0.72411712      -1.03667739
H        2.45652302      -1.59943997       0.46010823
H        0.52483302       0.36185779      -1.81760468
H        1.52139425       1.70247791      -1.27188924
H       -1.94909426       1.31496231       2.01793973
H       -3.34396910      -0.01765716       0.45870045
H       -1.88963919      -0.82273402      -0.22360975
H       -2.16805424       0.90497459      -0.50694921
H        0.72776503      -0.08977338       0.73897484
16
Frame=1 idx=005028 GeodesicLength=0.23427248441568901 rxn_smarts="[C:1]([O:2][C:3]([C@@:4]([C:5]([H:13])([H:14])[H:15])([O:6][H:16])[H:12])([H:10])[H:11])([H:7])([H:8])[H:9]>>[C:1]([O:2][C:3]([H:10])([H:11])[H:15])([H:7])([H:8])[H:9].[C:4](=[C:5]([H:13])[H:14])([O:6][H:16])[H:12]"
C        2.11658242      -1.02773350      -0.40320826
O        1.38281542       0.10005368       0.07098145
C        0.63042912       1.00790422      -0.95801667
C       -1.51119526       0.46361281       1.41032672
C       -2.30862934       0.11506545       0.21023279
O       -0.52799650      -0.14235695       1.80850870
H        1.46813137      -1.68093096      -0.99111541
H        2.92305286      -0.64978735      -1.02765595
H        2.52309689      -1.56432030       0.45479719
H        0.49059339       0.31244694      -1.80286871
H        1.44049943       1.68692904      -1.25227557
H       -1.85826994       1.33991824       1.98567363
H       -3.37144765       0.09752485       0.46322712
H       -1.99519447      -0.83950901      -0.20857110
H       -2.09283379       0.92054789      -0.54153590
H        0.69036607      -0.13936507       0.78149996
16
Frame=2 idx=005028 GeodesicLength=0.4680960182574518 rxn_smarts="[C:1]([O:2][C:3]([C@@:4]([C:5]([H:13])([H:14])[H:15])([O:6][H:16])[H:12])([H:10])[H:11])([H:7])([H:8])[H:9]>>[C:1]([O:2][C:3]([H:10])([H:11])[H:15])([H:7])([H:8])[H:9].[C:4](=[C:5]([H:13])[H:14])([O:6][H:16])[H:12]"
C        2.15662337      -1.00144587      -0.40357230
O        1.35830735       0.07481223       0.08113462
C        0.58345319       0.95502992      -0.93933958
C       -1.49692428       0.45027193       1.38733773
C       -2.33250694       0.13998548       0.20769637
O       -0.54390836      -0.22206923       1.78207951
H        1.54847411      -1.68217175      -1.00380504
H        2.94767449      -0.57545272      -1.01770326
H        2.58611883      -1.52664157       0.45017389
H        0.45847708       0.26191206      -1.78823044
H        1.36375563       1.66772046      -1.23432322
H       -1.76891911       1.35706728       1.95390531
H       -3.39026775       0.20814263       0.47097891
H       -2.10001727      -0.84512365      -0.19355589
H       -2.02301215       0.92962966      -0.57570412
H        0.65267180      -0.19166685       0.82292752
16
Frame=3 idx=005028 GeodesicLength=0.7015034331204151 rxn_smarts="[C:1]([O:2][C:3]([C@@:4]([C:5]([H:13])([H:14])[H:15])([O:6][H:16])[H:12])([H:10])[H:11])([H:7])([H:8])[H:9]>>[C:1]([O:2][C:3]([H:10])([H:11])[H:15])([H:7])([H:8])[H:9].[C:4](=[C:5]([H:13])[H:14])([O:6][H:16])[H:12]"
C        2.19411066      -0.97374585      -0.40383939
O        1.33577912       0.04847878       0.09052352
C        0.54078200       0.90185634      -0.92143797
C       -1.48293833       0.43853367       1.36347503
C       -2.35527284       0.16624250       0.20621149
O       -0.56301692      -0.29663477       1.75525397
H        1.62704837      -1.67843647      -1.01709302
H        2.96804950      -0.50137717      -1.00675396
H        2.64496474      -1.48729591       0.44586408
H        0.42851478       0.21097446      -1.77371540
H        1.29104542       1.64568044      -1.21735512
H       -1.68163538       1.36801904       1.92177411
H       -3.40134429       0.31379361       0.48154009
H       -2.20249414      -0.84148249      -0.17745699
H       -1.95790247       0.93248107      -0.61020777
H        0.61430979      -0.24708725       0.86321732
16
Frame=4 idx=005028 GeodesicLength=0.9345360885922529 rxn_smarts="[C:1]([O:2][C:3]([C@@:4]([C:5]([H:13])([H:14])[H:15])([O:6][H:16])[H:12])([H:10])[H:11])([H:7])([H:8])[H:9]>>[C:1]([O:2][C:3]([H:10])([H:11])[H:15])([H:7])([H:8])[H:9].[C:4](=[C:5]([H:13])[H:14])([O:6][H:16])[H:12]"
C        2.22924521      -0.94461061      -0.40391347
O        1.31500818       0.02120108       0.09907676
C        0.50184787       0.84831243      -0.90448655
C       -1.46890451       0.42821720       1.33881401
C       -2.37669577       0.19381635       0.20584907
O       -0.58494790      -0.36645909       1.72851687
H        1.70422001      -1.66980235      -1.03111408
H        2.98458508      -0.42728655      -0.99442361
H        2.69977282      -1.44643404       0.44201236
H        0.40053226       0.15933101      -1.75946373
H        1.22180725       1.62101469      -1.20153739
H       -1.59665523       1.37351908       1.88933181
H       -3.40561151       0.41482972       0.49469427
H       -2.30187875      -0.82945349      -0.16002610
H       -1.89699289       0.93026422      -0.64521732
H        0.57466790      -0.30645964       0.90188708
16
Frame=5 idx=005028 GeodesicLength=1.1672321601741191 rxn_smarts="[C:1]([O:2][C:3]([C@@:4]([C:5]([H:13])([H:14])[H:15])([O:6][H:16])[H:12])([H:10])[H:11])([H:7])([H:8])[H:9]>>[C:1]([O:2][C:3]([H:10])([H:11])[H:15])([H:7])([H:8])[H:9].[C:4](=[C:5]([H:13])[H:14])([O:6][H:16])[H:12]"
C        2.26195522      -0.91407883      -0.40373963
O        1.29580989      -0.00677420       0.10668628
C        0.46621122       0.79453242      -0.88862017
C       -1.45445655       0.41922020       1.31339320
C       -2.39642757       0.22245643       0.20666588
O       -0.60932918      -0.43170173       1.70259566
H        1.77995231      -1.65616339      -1.04608828
H        2.99748851      -0.35310948      -0.98030788
H        2.75024148      -1.40449752       0.43868552
H        0.37443149       0.10701372      -1.74564101
H        1.15567803       1.59402081      -1.18698498
H       -1.51420368       1.37436442       1.85653365
H       -3.40368262       0.51140072       0.51007303
H       -2.39722188      -0.81009506      -0.14090304
H       -1.83966204       0.92365390      -0.68091621
H        0.53321540      -0.37024240       0.93856798
16
Frame=6 idx=005028 GeodesicLength=1.3996648265717864 rxn_smarts="[C:1]([O:2][C:3]([C@@:4]([C:5]([H:13])([H:14])[H:15])([O:6][H:16])[H:12])([H:10])[H:11])([H:7])([H:8])[H:9]>>[C:1]([O:2][C:3]([H:10])([H:11])[H:15])([H:7])([H:8])[H:9].[C:4](=[C:5]([H:13])[H:14])([O:6][H:16])[H:12]"
C        2.29246696      -0.88181319      -0.40284010
O        1.27821073      -0.03469832       0.11334432
C        0.43332462       0.74025103      -0.87428350
C       -1.43928825       0.41055677       1.28717395
C       -2.41439477       0.25255347       0.20863428
O       -0.63619030      -0.49406641       1.67691196
H        1.85426438      -1.63776764      -1.06072823
H        3.00675597      -0.27871366      -0.96450100
H        2.79696067      -1.36052526       0.43664618
H        0.34982731       0.05297603      -1.73214288
H        1.09198789       1.56439579      -1.17503921
H       -1.43356301       1.36999609       1.82401551
H       -3.39602062       0.60436380       0.52794284
H       -2.48865510      -0.78338745      -0.12097649
H       -1.78536149       0.91437260      -0.71704058
H        0.48967501      -0.43849364       0.97288295
16
Frame=7 idx=005028 GeodesicLength=1.6318463026515226 rxn_smarts="[C:1]([O:2][C:3]([C@@:4]([C:5]([H:13])([H:14])[H:15])([O:6][H:16])[H:12])([H:10])[H:11])([H:7])([H:8])[H:9]>>[C:1]([O:2][C:3]([H:10])([H:11])[H:15])([H:7])([H:8])[H:9].[C:4](=[C:5]([H:13])[H:14])([O:6][H:16])[H:12]"
C        2.32051734      -0.84781874      -0.40106761
O        1.26234083      -0.06166334       0.11912318
C        0.40296938       0.68585312      -0.86151633
C       -1.42319606       0.40162798       1.26010667
C       -2.43026243       0.28386981       0.21171218
O       -0.66538854      -0.55420871       1.65138740
H        1.92623869      -1.61487917      -1.07421791
H        3.01218530      -0.20460280      -0.94746568
H        2.83977812      -1.31438976       0.43612818
H        0.32659715      -0.00276825      -1.71876423
H        1.03065073       1.53236176      -1.16635166
H       -1.35465427       1.36031277       1.79196238
H       -3.38279458       0.69377509       0.54818812
H       -2.57561223      -0.75006823      -0.10051089
H       -1.73337866       0.90314281      -0.75366922
H        0.44400924      -0.51054434       1.00495542
16
Frame=8 idx=005028 GeodesicLength=1.8638307811826422 rxn_smarts="[C:1]([O:2][C:3]([C@@:4]([C:5]([H:13])([H:14])[H:15])([O:6][H:16])[H:12])([H:10])[H:11])([H:7])([H:8])[H:9]>>[C:1]([O:2][C:3]([H:10])([H:11])[H:15])([H:7])([H:8])[H:9].[C:4](=[C:5]([H:13])[H:14])([O:6][H:16])[H:12]"
C        2.34587003      -0.81219468      -0.39836324
O        1.24833843      -0.08668494       0.12416619
C        0.37502195       0.63183292      -0.85025850
C       -1.40611382       0.39191289       1.23216544
C       -2.44375591       0.31612580       0.21587291
O       -0.69674879      -0.61255760       1.62583832
H        1.99487518      -1.58803028      -1.08574962
H        3.01367492      -0.13144635      -0.92994823
H        2.87862924      -1.26598461       0.43725672
H        0.30465274      -0.06008042      -1.70518282
H        0.97176964       1.49817067      -1.16151289
H       -1.27765415       1.34519452       1.76064949
H       -3.36419824       0.77943266       0.57074619
H       -2.65751090      -0.71088235      -0.07984919
H       -1.68301981       0.89070511      -0.79084619
H        0.39616947      -0.58551333       1.03501542
16
Frame=9 idx=005028 GeodesicLength=2.09543636635611 rxn_smarts="[C:1]([O:2][C:3]([C@@:4]([C:5]([H:13])([H:14])[H:15])([O:6][H:16])[H:12])([H:10])[H:11])([H:7])([H:8])[H:9]>>[C:1]([O:2][C:3]([H:10])([H:11])[H:15])([H:7])([H:8])[H:9].[C:4](=[C:5]([H:13])[H:14])([O:6][H:16])[H:12]"
C        2.36836340      -0.77516687      -0.39484291
O        1.23638820      -0.10877134       0.12868164
C        0.34944561       0.57880543      -0.84026495
C       -1.38812490       0.38101066       1.20330313
C       -2.45470648       0.34891863       0.22104979
O       -0.73023037      -0.66939387       1.60022176
H        2.05914318      -1.55800977      -1.09469593
H        3.01129263      -0.06005145      -0.91300766
H        2.91358541      -1.21533978       0.43990220
H        0.28398320      -0.11855947      -1.69097459
H        0.91558834       1.46220045      -1.16081596
H       -1.20299609       1.32465309       1.73032365
H       -3.34049825       0.86105720       0.59541942
H       -2.73386404      -0.66675743      -0.05924814
H       -1.63361385       0.87766038      -0.82866014
H        0.34624400      -0.66225585       1.06360869
16
Frame=10 idx=005028 GeodesicLength=2.3270381420697173 rxn_smarts="[C:1]([O:2][C:3]([C@@:4]([C:5]([H:13])([H:14])[H:15])([O:6][H:16])[H:12])([H:10])[H:11])([H:7])([H:8])[H:9]>>[C:1]([O:2][C:3]([H:10])([H:11])[H:15])([H:7])([H:8])[H:9].[C:4](=[C:5]([H:13])[H:14])([O:6][H:16])[H:12]"
C        2.38808285      -0.73690567      -0.39064623
O        1.22660841      -0.12705876       0.13285889
C        0.32617939       0.52715006      -0.83133276
C       -1.36943553       0.36863857       1.17353334
C       -2.46310740       0.38209980       0.22730947
O       -0.76585300      -0.72490501       1.57412122
H        2.11850790      -1.52565469      -1.10063265
H        3.00537522       0.00907871      -0.89756828
H        2.94492254      -1.16237166       0.44393643
H        0.26448011      -0.17818715      -1.67558448
H        0.86232778       1.42452324      -1.16474245
H       -1.13110389       1.29872789       1.70134215
H       -3.31217327       0.93820045       0.62246275
H       -2.80436084      -0.61826401      -0.03927056
H       -1.58452325       0.86486914      -0.86713534
H        0.29407299      -0.73994092       1.09134850
16
Frame=11 idx=005028 GeodesicLength=2.55876001157139 rxn_smarts="[C:1]([O:2][C:3]([C@@:4]([C:5]([H:13])([H:14])[H:15])([O:6][H:16])[H:12])([H:10])[H:11])([H:7])([H:8])[H:9]>>[C:1]([O:2][C:3]([H:10])([H:11])[H:15])([H:7])([H:8])[H:9].[C:4](=[C:5]([H:13])[H:14])([O:6][H:16])[H:12]"
C        2.40522474      -0.69758166      -0.38601497
O        1.21911142      -0.14076925       0.13690218
C        0.30522528       0.47730001      -0.82314708
C       -1.35033591       0.35456777       1.14282563
C       -2.46907312       0.41546767       0.23472928
O       -0.80377946      -0.77929741       1.54719293
H        2.17262091      -1.49183867      -1.10332701
H        2.99640723       0.07549549      -0.88464674
H        2.97304725      -1.10700451       0.44906958
H        0.24618983      -0.23870740      -1.65844738
H        0.81228358       1.38530677      -1.17341179
H       -1.06244246       1.26750926       1.67398398
H       -3.27964026       1.01077933       0.65198777
H       -2.86911329      -0.56604984      -0.02007678
H       -1.53514549       0.85262226      -0.90647761
H        0.23941977      -0.81779983       1.11885801
16
Frame=12 idx=005028 GeodesicLength=2.790936045202457 rxn_smarts="[C:1]([O:2][C:3]([C@@:4]([C:5]([H:13])([H:14])[H:15])([O:6][H:16])[H:12])([H:10])[H:11])([H:7])([H:8])[H:9]>>[C:1]([O:2][C:3]([H:10])([H:11])[H:15])([H:7])([H:8])[H:9].[C:4](=[C:5]([H:13])[H:14])([O:6][H:16])[H:12]"
C        2.42018700      -0.65710454      -0.38110579
O        1.21395752      -0.14911749       0.14093632
C        0.28653936       0.42944249      -0.81552586
C       -1.33116416       0.33841989       1.11110471
C       -2.47281652       0.44921933       0.24355056
O       -0.84442974      -0.83314894       1.51843936
H        2.22161931      -1.45740298      -1.10233499
H        2.98494964       0.13905984      -0.87527822
H        2.99862693      -1.04849393       0.45521677
H        0.22916584      -0.30027926      -1.63890656
H        0.76564961       1.34436637      -1.18723995
H       -0.99727698       1.23059391       1.64877072
H       -3.24307761       1.07924493       0.68452277
H       -2.92882115      -0.51006839      -0.00179111
H       -1.48497913       0.84084816      -0.94701861
H        0.18187008      -0.89557938       1.14665988
16
Frame=13 idx=005028 GeodesicLength=3.023351931187764 rxn_smarts="[C:1]([O:2][C:3]([C@@:4]([C:5]([H:13])([H:14])[H:15])([O:6][H:16])[H:12])([H:10])[H:11])([H:7])([H:8])[H:9]>>[C:1]([O:2][C:3]([H:10])([H:11])[H:15])([H:7])([H:8])[H:9].[C:4](=[C:5]([H:13])[H:14])([O:6][H:16])[H:12]"
C        2.43325929      -0.61555649      -0.37619910
O        1.21123836      -0.15125206       0.14509965
C        0.27021569       0.38414209      -0.80811201
C       -1.31230956       0.31995128       1.07828759
C       -2.47450406       0.48317733       0.25393378
O       -0.88814181      -0.88682254       1.48724692
H        2.26536485      -1.42331519      -1.09730735
H        2.97161832       0.19928101      -0.87068851
H        3.02214576      -0.98642686       0.46205708
H        0.21373458      -0.36228007      -1.61640478
H        0.72279373       1.30196166      -1.20598852
H       -0.93614307       1.18785010       1.62601322
H       -3.20251351       1.14388600       0.72008807
H       -2.98408903      -0.45065229       0.01600183
H       -1.43362540       0.82888602      -0.98917843
H        0.12095585      -0.97282997       1.17515059
16
Frame=14 idx=005028 GeodesicLength=3.2559451384725255 rxn_smarts="[C:1]([O:2][C:3]([C@@:4]([C:5]([H:13])([H:14])[H:15])([O:6][H:16])[H:12])([H:10])[H:11])([H:7])([H:8])[H:9]>>[C:1]([O:2][C:3]([H:10])([H:11])[H:15])([H:7])([H:8])[H:9].[C:4](=[C:5]([H:13])[H:14])([O:6][H:16])[H:12]"
C        2.44483151      -0.57288019      -0.37154266
O        1.21094243      -0.14642284       0.14930158
C        0.25627164       0.34171884      -0.80073742
C       -1.29415063       0.29902001       1.04425780
C       -2.47426546       0.51763798       0.26625992
O       -0.93545691      -0.94062450       1.45232831
H        2.30414307      -1.39034027      -1.08791839
H        2.95707471       0.25590444      -0.87184265
H        3.04406124      -0.92018680       0.46934738
H        0.20023467      -0.42438125      -1.59043831
H        0.68395931       1.25803217      -1.22958525
H       -0.87941158       1.13887705       1.60615307
H       -3.15801949       1.20476252       0.75947601
H       -3.03539227      -0.38739127       0.03327107
H       -1.38092221       0.81559063      -1.03357380
H        0.05609997      -1.04931650       1.20524333
16
Frame=15 idx=005028 GeodesicLength=3.4883169800615086 rxn_smarts="[C:1]([O:2][C:3]([C@@:4]([C:5]([H:13])([H:14])[H:15])([O:6][H:16])[H:12])([H:10])[H:11])([H:7])([H:8])[H:9]>>[C:1]([O:2][C:3]([H:10])([H:11])[H:15])([H:7])([H:8])[H:9].[C:4](=[C:5]([H:13])[H:14])([O:6][H:16])[H:12]"
C        2.45523735      -0.52899402      -0.36730879
O        1.21290899      -0.13399276       0.15331576
C        0.24472421       0.30254461      -0.79334533
C       -1.27696875       0.27561222       1.00890122
C       -2.47208769       0.55274355       0.28100149
O       -0.98674159      -0.99469054       1.41256976
H        2.33838834      -1.35901708      -1.07384545
H        2.94198993       0.30869174      -0.87936028
H        3.06459222      -0.84928570       0.47689387
H        0.18929110      -0.48588955      -1.56084888
H        0.64930335       1.21273959      -1.25754756
H       -0.82729231       1.08338588       1.58934258
H       -3.10931461       1.26204105       0.80329612
H       -3.08317873      -0.31994301       0.05067315
H       -1.32700815       0.79904494      -1.08095713
H       -0.01384363      -1.12499091       1.23721949
16
Frame=16 idx=005028 GeodesicLength=3.7202354121316263 rxn_smarts="[C:1]([O:2][C:3]([C@@:4]([C:5]([H:13])([H:14])[H:15])([O:6][H:16])[H:12])([H:10])[H:11])([H:7])([H:8])[H:9]>>[C:1]([O:2][C:3]([H:10])([H:11])[H:15])([H:7])([H:8])[H:9].[C:4](=[C:5]([H:13])[H:14])([O:6][H:16])[H:12]"
C        2.46478204      -0.48364245      -0.36356318
O        1.21677563      -0.11355292       0.15669024
C        0.23548237       0.26671789      -0.78610633
C       -1.26089870       0.24986008       0.97214855
C       -2.46770509       0.58875110       0.29880995
O       -1.04227899      -1.04894061       1.36674895
H        2.36891294      -1.32934391      -1.05488632
H        2.92696800       0.35775249      -0.89322279
H        3.08371870      -0.77326296       0.48460603
H        0.18160702      -0.54635435      -1.52769321
H        0.61876078       1.16603821      -1.28945495
H       -0.77966228       1.02102891       1.57552817
H       -3.05580209       1.31584777       0.85233580
H       -3.12762873      -0.24766196       0.06910267
H       -1.27229515       0.77684295      -1.13215712
H       -0.09073645      -1.20008025       1.27111355
