14
Frame=0 idx=009260 GeodesicLength=0.0 rxn_smarts="[C:1]([C@@:2]([C:3](=[O:4])[H:12])([C:5](=[O:6])[N:7]([H:13])[H:14])[H:11])([H:8])([H:9])[H:10]>>[C:1]([O:4]/[C:3](=[C:2](/[C:5](=[O:6])[N:7]([H:13])[H:14])[H:11])[H:12])([H:8])([H:9])[H:10]"
C       -1.57104904      -1.17776504       0.77966309
C       -0.01042238       0.29487131      -0.27995891
C       -0.99122461       1.20767680       0.11780715
O       -2.11495320       0.80181978       0.46603946
C        1.41224286       0.63307443      -0.18734956
O        1.82004179       1.60394960       0.42848618
N        2.27773698      -0.24738330      -0.78249019
H       -1.37605525      -0.91318185       1.80748801
H       -2.60633831      -1.32283528       0.51052147
H       -0.88648019      -1.89552050       0.35344526
H       -0.34898297      -0.38799625      -1.05287491
H       -0.80624911       2.28701799       0.11178079
H        1.95537199      -0.90251884      -1.46943239
H        3.24636138       0.01879119      -0.80312543
14
Frame=1 idx=009260 GeodesicLength=0.0499712813494064 rxn_smarts="[C:1]([C@@:2]([C:3](=[O:4])[H:12])([C:5](=[O:6])[N:7]([H:13])[H:14])[H:11])([H:8])([H:9])[H:10]>>[C:1]([O:4]/[C:3](=[C:2](/[C:5](=[O:6])[N:7]([H:13])[H:14])[H:11])[H:12])([H:8])([H:9])[H:10]"
C       -1.55714022      -1.16229540       0.77803979
C       -0.01950517       0.28762790      -0.28222928
C       -0.99504229       1.21042153       0.11045569
O       -2.11209877       0.80781854       0.48701789
C        1.40474937       0.62645525      -0.18486183
O        1.81121364       1.59603456       0.43323497
N        2.27035350      -0.24792790      -0.78718182
H       -1.39965239      -0.91696510       1.81754579
H       -2.57921078      -1.32283558       0.46785967
H       -0.86119593      -1.89175262       0.38951716
H       -0.35204454      -0.38547353      -1.06642469
H       -0.79802513       2.28734239       0.11536377
H        1.94846182      -0.90609020      -1.47135698
H        3.23913690       0.01764016      -0.80698011
14
Frame=2 idx=009260 GeodesicLength=0.09992151949805787 rxn_smarts="[C:1]([C@@:2]([C:3](=[O:4])[H:12])([C:5](=[O:6])[N:7]([H:13])[H:14])[H:11])([H:8])([H:9])[H:10]>>[C:1]([O:4]/[C:3](=[C:2](/[C:5](=[O:6])[N:7]([H:13])[H:14])[H:11])[H:12])([H:8])([H:9])[H:10]"
C       -1.54352977      -1.14713346       0.77671443
C       -0.02844260       0.28043571      -0.28454106
C       -0.99882727       1.21288385       0.10340545
O       -2.10855605       0.81351876       0.50813756
C        1.39737127       0.61999459      -0.18234954
O        1.80234440       1.58840218       0.43791209
N        2.26322256      -0.24817540      -0.79171614
H       -1.42331253      -0.92218344       1.82631679
H       -2.55114036      -1.32169708       0.42710962
H       -0.83821909      -1.88713226       0.42416348
H       -0.35476416      -0.38323715      -1.07949334
H       -0.79006656       2.28724284       0.11797632
H        1.94189218      -0.91017503      -1.47235589
H        3.23202799       0.01725589      -0.81127977
14
Frame=3 idx=009260 GeodesicLength=0.1498738271257785 rxn_smarts="[C:1]([C@@:2]([C:3](=[O:4])[H:12])([C:5](=[O:6])[N:7]([H:13])[H:14])[H:11])([H:8])([H:9])[H:10]>>[C:1]([O:4]/[C:3](=[C:2](/[C:5](=[O:6])[N:7]([H:13])[H:14])[H:11])[H:12])([H:8])([H:9])[H:10]"
C       -1.53041420      -1.13225861       0.77569003
C       -0.03710391       0.27314351      -0.28660826
C       -1.00241023       1.21501450       0.09680457
O       -2.10428900       0.81900328       0.52929073
C        1.39023337       0.61350728      -0.17948842
O        1.79354563       1.58096634       0.44268927
N        2.25645840      -0.24798598      -0.79622390
H       -1.44750280      -0.92879008       1.83382772
H       -2.52240420      -1.31940486       0.38799422
H       -0.81752935      -1.88187826       0.45758257
H       -0.35700168      -0.38134505      -1.09190121
H       -0.78223156       2.28671846       0.11944339
H        1.93568743      -0.91505304      -1.47206830
H        3.22496209       0.01836250      -0.81703240
14
Frame=4 idx=009260 GeodesicLength=0.19984270089032108 rxn_smarts="[C:1]([C@@:2]([C:3](=[O:4])[H:12])([C:5](=[O:6])[N:7]([H:13])[H:14])[H:11])([H:8])([H:9])[H:10]>>[C:1]([O:4]/[C:3](=[C:2](/[C:5](=[O:6])[N:7]([H:13])[H:14])[H:11])[H:12])([H:8])([H:9])[H:10]"
C       -1.51739005      -1.11764395       0.77501225
C       -0.04569539       0.26605037      -0.28885506
C       -1.00601827       1.21693719       0.09059217
O       -2.09942284       0.82414067       0.55048329
C        1.38312245       0.60739175      -0.17700069
O        1.78469838       1.57402207       0.44692362
N        2.24973145      -0.24767651      -0.80057932
H       -1.47157253      -0.93660704       1.84005186
H       -2.49288806      -1.31629987       0.35105355
H       -0.79851656      -1.87595577       0.48955587
H       -0.35908821      -0.37953276      -1.10400655
H       -0.77478084       2.28591773       0.12023710
H        1.92974000      -0.91983021      -1.47163439
H        3.21808048       0.01908633      -0.82183371
14
Frame=5 idx=009260 GeodesicLength=0.24982540268233283 rxn_smarts="[C:1]([C@@:2]([C:3](=[O:4])[H:12])([C:5](=[O:6])[N:7]([H:13])[H:14])[H:11])([H:8])([H:9])[H:10]>>[C:1]([O:4]/[C:3](=[C:2](/[C:5](=[O:6])[N:7]([H:13])[H:14])[H:11])[H:12])([H:8])([H:9])[H:10]"
C       -1.50457155      -1.10327106       0.77467986
C       -0.05415641       0.25907743      -0.29113095
C       -1.00958713       1.21865478       0.08481609
O       -2.09398207       0.82900274       0.57165778
C        1.37611901       0.60156188      -0.17472171
O        1.77589095       1.56751852       0.45075275
N        2.24312747      -0.24717305      -0.80487805
H       -1.49576966      -0.94556103       1.84497980
H       -2.46281626      -1.31244107       0.31609466
H       -0.78107914      -1.86951512       0.52025916
H       -0.36097900      -0.37785296      -1.11571468
H       -0.76763872       2.28488386       0.12033107
H        1.92405725      -0.92469801      -1.47085899
H        3.21138527       0.01981309      -0.82626676
14
Frame=6 idx=009260 GeodesicLength=0.2998535525942241 rxn_smarts="[C:1]([C@@:2]([C:3](=[O:4])[H:12])([C:5](=[O:6])[N:7]([H:13])[H:14])[H:11])([H:8])([H:9])[H:10]>>[C:1]([O:4]/[C:3](=[C:2](/[C:5](=[O:6])[N:7]([H:13])[H:14])[H:11])[H:12])([H:8])([H:9])[H:10]"
C       -1.49198651      -1.08911914       0.77462828
C       -0.06246031       0.25223466      -0.29338374
C       -1.01307468       1.22019660       0.07952257
O       -2.08796365       0.83363624       0.59281340
C        1.36924756       0.59600729      -0.17259648
O        1.76715968       1.56142272       0.45425532
N        2.23666716      -0.24646405      -0.80910183
H       -1.52019437      -0.95562973       1.84852094
H       -2.43230852      -1.30787707       0.28294077
H       -0.76506704      -1.86263023       0.54971941
H       -0.36265541      -0.37623849      -1.12703120
H       -0.76074731       2.28366398       0.11984789
H        1.91861386      -0.93014534      -1.46915729
H        3.20476955       0.02094256      -0.83097805
14
Frame=7 idx=009260 GeodesicLength=0.34995120396746493 rxn_smarts="[C:1]([C@@:2]([C:3](=[O:4])[H:12])([C:5](=[O:6])[N:7]([H:13])[H:14])[H:11])([H:8])([H:9])[H:10]>>[C:1]([O:4]/[C:3](=[C:2](/[C:5](=[O:6])[N:7]([H:13])[H:14])[H:11])[H:12])([H:8])([H:9])[H:10]"
C       -1.47974425      -1.07510359       0.77496072
C       -0.07055813       0.24537680      -0.29554660
C       -1.01642731       1.22153440       0.07453031
O       -2.08145877       0.83810639       0.61359749
C        1.36256990       0.59045536      -0.17032616
O        1.75853534       1.55528782       0.45801785
N        2.23042472      -0.24540625      -0.81348796
H       -1.54520488      -0.96646401       1.85069895
H       -2.40149900      -1.30273004       0.25155193
H       -0.75038742      -1.85533033       0.57838768
H       -0.36402503      -0.37492352      -1.13785781
H       -0.75390471       2.28220290       0.11883062
H        1.91348199      -0.93599606      -1.46676793
H        3.19819755       0.02299013      -0.83658909
14
Frame=8 idx=009260 GeodesicLength=0.4001424140635374 rxn_smarts="[C:1]([C@@:2]([C:3](=[O:4])[H:12])([C:5](=[O:6])[N:7]([H:13])[H:14])[H:11])([H:8])([H:9])[H:10]>>[C:1]([O:4]/[C:3](=[C:2](/[C:5](=[O:6])[N:7]([H:13])[H:14])[H:11])[H:12])([H:8])([H:9])[H:10]"
C       -1.46792288      -1.06121052       0.77552238
C       -0.07840390       0.23853098      -0.29755780
C       -1.01955640       1.22272055       0.06989679
O       -2.07445270       0.84248955       0.63401754
C        1.35613188       0.58485998      -0.16776174
O        1.75007596       1.54897798       0.46231869
N        2.22444986      -0.24394214      -0.81799394
H       -1.57090752      -0.97809867       1.85128594
H       -2.37049349      -1.29701736       0.22163797
H       -0.73701357      -1.84765317       0.60621711
H       -0.36502305      -0.37379316      -1.14821032
H       -0.74696224       2.28054929       0.11749457
H        1.90868324      -0.94341848      -1.46222468
H        3.19139481       0.02700518      -0.84464253
14
Frame=9 idx=009260 GeodesicLength=0.45047172773381633 rxn_smarts="[C:1]([C@@:2]([C:3](=[O:4])[H:12])([C:5](=[O:6])[N:7]([H:13])[H:14])[H:11])([H:8])([H:9])[H:10]>>[C:1]([O:4]/[C:3](=[C:2](/[C:5](=[O:6])[N:7]([H:13])[H:14])[H:11])[H:12])([H:8])([H:9])[H:10]"
C       -1.45669276      -1.04731206       0.77660703
C       -0.08593069       0.23137645      -0.29930662
C       -1.02237928       1.22363746       0.06529407
O       -2.06711879       0.84687136       0.65348741
C        1.35002071       0.57872696      -0.16447857
O        1.74180861       1.54174833       0.46798430
N        2.21881679      -0.24185043      -0.82305564
H       -1.59787056      -0.98990934       1.85044306
H       -2.33939427      -1.29092768       0.19334422
H       -0.72494663      -1.83957396       0.63407643
H       -0.36551468      -0.37338123      -1.15786769
H       -0.73963036       2.27851753       0.11566858
H        1.90443714      -0.95116870      -1.45704207
H        3.18439476       0.03324530      -0.85515452
14
Frame=10 idx=009260 GeodesicLength=0.5009050738307033 rxn_smarts="[C:1]([C@@:2]([C:3](=[O:4])[H:12])([C:5](=[O:6])[N:7]([H:13])[H:14])[H:11])([H:8])([H:9])[H:10]>>[C:1]([O:4]/[C:3](=[C:2](/[C:5](=[O:6])[N:7]([H:13])[H:14])[H:11])[H:12])([H:8])([H:9])[H:10]"
C       -1.44573345      -1.03355946       0.77778602
C       -0.09330376       0.22441816      -0.30101749
C       -1.02505793       1.22450651       0.06115829
O       -2.05928137       0.85115639       0.67293186
C        1.34406123       0.57276797      -0.16119537
O        1.73370326       1.53471285       0.47359651
N        2.21325994      -0.23957259      -0.82804681
H       -1.62496717      -1.00255938       1.84776436
H       -2.30822223      -1.28444447       0.16655965
H       -0.71387816      -1.83116521       0.66079461
H       -0.36581987      -0.37287254      -1.16722730
H       -0.73233302       2.27641186       0.11373498
H        1.90054926      -0.96059903      -1.44943311
H        3.17702326       0.04079893      -0.86740619
14
Frame=11 idx=009260 GeodesicLength=0.5514491675862174 rxn_smarts="[C:1]([C@@:2]([C:3](=[O:4])[H:12])([C:5](=[O:6])[N:7]([H:13])[H:14])[H:11])([H:8])([H:9])[H:10]>>[C:1]([O:4]/[C:3](=[C:2](/[C:5](=[O:6])[N:7]([H:13])[H:14])[H:11])[H:12])([H:8])([H:9])[H:10]"
C       -1.43537446      -1.01982478       0.77940902
C       -0.10036797       0.21716609      -0.30243284
C       -1.02740447       1.22515960       0.05709044
O       -2.05111662       0.85551708       0.69157730
C        1.33841799       0.56626165      -0.15718756
O        1.72580748       1.52688974       0.48036219
N        2.20796375      -0.23681103      -0.83344616
H       -1.65306919      -1.01530142       1.84346821
H       -2.27713587      -1.27773994       0.14134240
H       -0.70402143      -1.82245521       0.68750010
H       -0.36564626      -0.37302569      -1.17592390
H       -0.72461858       2.27399935       0.11138470
H        1.89734268      -0.97036032      -1.44098947
H        3.16922295       0.05052488      -0.88215443
14
Frame=12 idx=009260 GeodesicLength=0.602071253413229 rxn_smarts="[C:1]([C@@:2]([C:3](=[O:4])[H:12])([C:5](=[O:6])[N:7]([H:13])[H:14])[H:11])([H:8])([H:9])[H:10]>>[C:1]([O:4]/[C:3](=[C:2](/[C:5](=[O:6])[N:7]([H:13])[H:14])[H:11])[H:12])([H:8])([H:9])[H:10]"
C       -1.42547968      -1.00622458       0.78112322
C       -0.10719500       0.20994593      -0.30362673
C       -1.02949473       1.22572402       0.05344504
O       -2.04248585       0.85987946       0.71010351
C        1.33302365       0.55968097      -0.15289202
O        1.71817342       1.51906732       0.48725381
N        2.20278128      -0.23383685      -0.83883115
H       -1.68143850      -1.02860651       1.83723124
H       -2.24625474      -1.27071935       0.11749188
H       -0.69526354      -1.81355264       0.71332813
H       -0.36514843      -0.37324772      -1.18417419
H       -0.71674096       2.27144552       0.10892195
H        1.89481043      -0.98169156      -1.42999197
H        3.16071264       0.06213598      -0.89938271
14
Frame=13 idx=009260 GeodesicLength=0.6527201190516767 rxn_smarts="[C:1]([C@@:2]([C:3](=[O:4])[H:12])([C:5](=[O:6])[N:7]([H:13])[H:14])[H:11])([H:8])([H:9])[H:10]>>[C:1]([O:4]/[C:3](=[C:2](/[C:5](=[O:6])[N:7]([H:13])[H:14])[H:11])[H:12])([H:8])([H:9])[H:10]"
C       -1.41590384      -0.99272656       0.78329916
C       -0.11390628       0.20261672      -0.30471468
C       -1.03150408       1.22609771       0.04991932
O       -2.03347659       0.86420220       0.72840049
C        1.32773277       0.55306876      -0.14863897
O        1.71059739       1.51126864       0.49402716
N        2.19757666      -0.23081122      -0.84426895
H       -1.70966713      -1.04197831       1.82947631
H       -2.21560206      -1.26370504       0.09557954
H       -0.68733751      -1.80443180       0.73881922
H       -0.36452874      -0.37393120      -1.19192699
H       -0.70892179       2.26868385       0.10587605
H        1.89273387      -0.99159871      -1.42029658
H        3.15220734       0.07324496      -0.91555109
14
Frame=14 idx=009260 GeodesicLength=0.7033414531231086 rxn_smarts="[C:1]([C@@:2]([C:3](=[O:4])[H:12])([C:5](=[O:6])[N:7]([H:13])[H:14])[H:11])([H:8])([H:9])[H:10]>>[C:1]([O:4]/[C:3](=[C:2](/[C:5](=[O:6])[N:7]([H:13])[H:14])[H:11])[H:12])([H:8])([H:9])[H:10]"
C       -1.40666141      -0.97943641       0.78560952
C       -0.12048348       0.19535896      -0.30563243
C       -1.03342589       1.22637044       0.04679675
O       -2.02394821       0.86847664       0.74690471
C        1.32256857       0.54669209      -0.14452797
O        1.70316913       1.50399694       0.50019157
N        2.19235742      -0.22787213      -0.84943915
H       -1.73738453      -1.05574362       1.81997362
H       -2.18538256      -1.25653690       0.07523407
H       -0.68030216      -1.79529296       0.76331347
H       -0.36378049      -0.37467492      -1.19927361
H       -0.70126324       2.26584330       0.10249561
H        1.89112655      -1.00159851      -1.40987505
H        3.14341030       0.08441706      -0.93177111
14
Frame=15 idx=009260 GeodesicLength=0.7539002600418098 rxn_smarts="[C:1]([C@@:2]([C:3](=[O:4])[H:12])([C:5](=[O:6])[N:7]([H:13])[H:14])[H:11])([H:8])([H:9])[H:10]>>[C:1]([O:4]/[C:3](=[C:2](/[C:5](=[O:6])[N:7]([H:13])[H:14])[H:11])[H:12])([H:8])([H:9])[H:10]"
C       -1.39772978      -0.96636880       0.78809778
C       -0.12696033       0.18813965      -0.30638930
C       -1.03532942       1.22650697       0.04401066
O       -2.01388795       0.87268675       0.76566409
C        1.31748881       0.54061406      -0.14066568
O        1.69582238       1.49733405       0.50563255
N        2.18711408      -0.22508635      -0.85429077
H       -1.76431407      -1.06971382       1.80889235
H       -2.15571664      -1.24928693       0.05652135
H       -0.67409395      -1.78620782       0.78686234
H       -0.36296072      -0.37555158      -1.20620173
H       -0.69387318       2.26291045       0.09864384
H        1.88986609      -1.01099259      -1.39966926
H        3.13457469       0.09501595      -0.94710822
14
Frame=16 idx=009260 GeodesicLength=0.8043570268478173 rxn_smarts="[C:1]([C@@:2]([C:3](=[O:4])[H:12])([C:5](=[O:6])[N:7]([H:13])[H:14])[H:11])([H:8])([H:9])[H:10]>>[C:1]([O:4]/[C:3](=[C:2](/[C:5](=[O:6])[N:7]([H:13])[H:14])[H:11])[H:12])([H:8])([H:9])[H:10]"
C       -1.38910563      -0.95355831       0.79071269
C       -0.13335348       0.18096963      -0.30698078
C       -1.03725914       1.22649954       0.04156705
O       -2.00325661       0.87681683       0.78477116
C        1.31247102       0.53491963      -0.13711807
O        1.68852543       1.49140327       0.51023753
N        2.18185200      -0.22248618      -0.85876392
H       -1.79018315      -1.08379005       1.79635334
H       -2.12674225      -1.24196240       0.03937006
H       -0.66869785      -1.77728544       0.80935456
H       -0.36209921      -0.37653065      -1.21272647
H       -0.68683800       2.25989887       0.09429303
H        1.88885886      -1.01971049      -1.38980689
H        3.12582801       0.10481575      -0.96126330
