15
Frame=0 idx=007689 GeodesicLength=0.0 rxn_smarts="[C:1]([C@@:2]1([H:11])[C@@:3]2([H:12])[O:4][C@@:5]2([H:13])[C@:6]1([O:7][H:15])[H:14])([H:8])([H:9])[H:10]>>[C:1]([H:8])([H:9])([H:10])[H:11].[C:2]1[C@@:3]2([H:12])[O:4][C@@:5]2([H:13])[C@:6]1([O:7][H:15])[H:14]"
C        1.89227550      -0.57207947       0.30607171
C        0.07889616       0.60721535       0.74235802
C       -0.23986919       1.34199933      -0.46913987
O       -0.75636388       0.52362369      -1.55729348
C       -1.58114860       0.69047017      -0.43013345
C       -1.11028719      -0.37232583       0.56789214
O       -0.97087788      -1.64544416       0.01389760
H        2.82259440      -0.54787979       0.87461878
H        2.03547994      -0.20522999      -0.70351685
H        1.43335452      -1.55387964       0.33515145
H        1.30067056       0.20774496       1.02864781
H        0.01038188       2.35626794      -0.74537114
H       -2.54716139       1.16354155      -0.55048020
H       -1.68626175      -0.47851246       1.48487412
H       -0.68168303      -1.51551158      -0.89757660
15
Frame=1 idx=007689 GeodesicLength=0.08234926542052924 rxn_smarts="[C:1]([C@@:2]1([H:11])[C@@:3]2([H:12])[O:4][C@@:5]2([H:13])[C@:6]1([O:7][H:15])[H:14])([H:8])([H:9])[H:10]>>[C:1]([H:8])([H:9])([H:10])[H:11].[C:2]1[C@@:3]2([H:12])[O:4][C@@:5]2([H:13])[C@:6]1([O:7][H:15])[H:14]"
C        1.89172676      -0.57341909       0.31475402
C        0.07327345       0.59490911       0.73595497
C       -0.23831834       1.34483270      -0.46677231
O       -0.76144960       0.54151455      -1.56020790
C       -1.58469452       0.69692222      -0.42978399
C       -1.12049973      -0.37716456       0.55603601
O       -0.98001872      -1.64604693      -0.00663065
H        2.84867396      -0.48521869       0.83053261
H        1.99815229      -0.27790756      -0.72282647
H        1.47411822      -1.57016306       0.40630641
H        1.30504849       0.21047386       1.05796609
H        0.01716400       2.36122033      -0.73068702
H       -2.54695570       1.17919838      -0.54290427
H       -1.69774086      -0.48813190       1.47147174
H       -0.67847969      -1.51101935      -0.91320922
15
Frame=2 idx=007689 GeodesicLength=0.16393909946989146 rxn_smarts="[C:1]([C@@:2]1([H:11])[C@@:3]2([H:12])[O:4][C@@:5]2([H:13])[C@:6]1([O:7][H:15])[H:14])([H:8])([H:9])[H:10]>>[C:1]([H:8])([H:9])([H:10])[H:11].[C:2]1[C@@:3]2([H:12])[O:4][C@@:5]2([H:13])[C@:6]1([O:7][H:15])[H:14]"
C        1.89102076      -0.57436125       0.32235450
C        0.06793149       0.58241537       0.72982049
C       -0.23622451       1.34737344      -0.46404076
O       -0.76515298       0.55871900      -1.56260159
C       -1.58760754       0.70299898      -0.42959263
C       -1.13060769      -0.38192727       0.54445613
O       -0.98910354      -1.64677389      -0.02628385
H        2.86852212      -0.42367590       0.78230854
H        1.96153389      -0.35110497      -0.73660367
H        1.51774366      -1.58172043       0.47442999
H        1.30897140       0.21246271       1.08740436
H        0.02466112       2.36562757      -0.71573138
H       -2.54598177       1.19432555      -0.53593277
H       -1.70934963      -0.49720213       1.45822391
H       -0.67635680      -1.50715678      -0.92821128
15
Frame=3 idx=007689 GeodesicLength=0.24503040627102315 rxn_smarts="[C:1]([C@@:2]1([H:11])[C@@:3]2([H:12])[O:4][C@@:5]2([H:13])[C@:6]1([O:7][H:15])[H:14])([H:8])([H:9])[H:10]>>[C:1]([H:8])([H:9])([H:10])[H:11].[C:2]1[C@@:3]2([H:12])[O:4][C@@:5]2([H:13])[C@:6]1([O:7][H:15])[H:14]"
C        1.89021468      -0.57503164       0.32910619
C        0.06281440       0.56965106       0.72406068
C       -0.23360793       1.34968114      -0.46076591
O       -0.76733754       0.57534869      -1.56445884
C       -1.58989523       0.70873651      -0.42960879
C       -1.14068374      -0.38663132       0.53310347
O       -0.99851650      -1.64761936      -0.04528120
H        2.88260244      -0.36348965       0.72958454
H        1.92526571      -0.42465085      -0.74489104
H        1.56442584      -1.58875071       0.54001223
H        1.31264879       0.21393948       1.11687849
H        0.03283507       2.36957775      -0.70023237
H       -2.54429214       1.20886299      -0.52984684
H       -1.72129701      -0.50574328       1.44500879
H       -0.67517683      -1.50388079      -0.94266941
15
Frame=4 idx=007689 GeodesicLength=0.32575544779041965 rxn_smarts="[C:1]([C@@:2]1([H:11])[C@@:3]2([H:12])[O:4][C@@:5]2([H:13])[C@:6]1([O:7][H:15])[H:14])([H:8])([H:9])[H:10]>>[C:1]([H:8])([H:9])([H:10])[H:11].[C:2]1[C@@:3]2([H:12])[O:4][C@@:5]2([H:13])[C@:6]1([O:7][H:15])[H:14]"
C        1.88932779      -0.57561943       0.33493907
C        0.05790959       0.55650932       0.71853179
C       -0.23049173       1.35167027      -0.45705263
O       -0.76822705       0.59135260      -1.56583025
C       -1.59165037       0.71420745      -0.42979166
C       -1.15082666      -0.39126389       0.52197360
O       -1.00862438      -1.64857162      -0.06370708
H        2.89038908      -0.30459196       0.67342471
H        1.89007399      -0.49805822      -0.74787148
H        1.61465553      -1.59160707       0.60252498
H        1.31611976       0.21479577       1.14620686
H        0.04175246       2.37295232      -0.68432894
H       -2.54190422       1.22310612      -0.52436886
H       -1.73353899      -0.51367978       1.43192313
H       -0.67496480      -1.50120188      -0.95657325
15
Frame=5 idx=007689 GeodesicLength=0.40621487090971414 rxn_smarts="[C:1]([C@@:2]1([H:11])[C@@:3]2([H:12])[O:4][C@@:5]2([H:13])[C@:6]1([O:7][H:15])[H:14])([H:8])([H:9])[H:10]>>[C:1]([H:8])([H:9])([H:10])[H:11].[C:2]1[C@@:3]2([H:12])[O:4][C@@:5]2([H:13])[C@:6]1([O:7][H:15])[H:14]"
C        1.88838802      -0.57625170       0.34015851
C        0.05316619       0.54297153       0.71328323
C       -0.22693355       1.35342337      -0.45277305
O       -0.76775357       0.60686997      -1.56671017
C       -1.59288814       0.71942888      -0.43017306
C       -1.16104351      -0.39584912       0.51099015
O       -1.01959014      -1.64959473      -0.08182024
H        2.89217822      -0.24769568       0.61358236
H        1.85561841      -0.57128962      -0.74549907
H        1.66849310      -1.59021865       0.66240174
H        1.31965551       0.21552092       1.17520340
H        0.05123611       2.37588972      -0.66777658
H       -2.53889485       1.23694248      -0.51967404
H       -1.74614799      -0.52111787       1.41884062
H       -0.67548380      -1.49902951      -0.97003379
15
Frame=6 idx=007689 GeodesicLength=0.48649251340906774 rxn_smarts="[C:1]([C@@:2]1([H:11])[C@@:3]2([H:12])[O:4][C@@:5]2([H:13])[C@:6]1([O:7][H:15])[H:14])([H:8])([H:9])[H:10]>>[C:1]([H:8])([H:9])([H:10])[H:11].[C:2]1[C@@:3]2([H:12])[O:4][C@@:5]2([H:13])[C@:6]1([O:7][H:15])[H:14]"
C        1.88738132      -0.57708558       0.34476497
C        0.04854548       0.52897290       0.70818774
C       -0.22297148       1.35487013      -0.44803048
O       -0.76613611       0.62186310      -1.56714979
C       -1.59370548       0.72446874      -0.43072251
C       -1.17143565      -0.40036449       0.50013671
O       -1.03161793      -1.65065070      -0.09969799
H        2.88754820      -0.19293441       0.55101924
H        1.82249408      -0.64400738      -0.73798478
H        1.72637548      -1.58469978       0.71913721
H        1.32323128       0.21601599       1.20380005
H        0.06136865       2.37826838      -0.65074440
H       -2.53528446       1.25063759      -0.51551247
H       -1.75910320      -0.52800177       1.40582828
H       -0.67669020      -1.49735272      -0.98303178
15
Frame=7 idx=007689 GeodesicLength=0.5666105235558874 rxn_smarts="[C:1]([C@@:2]1([H:11])[C@@:3]2([H:12])[O:4][C@@:5]2([H:13])[C@:6]1([O:7][H:15])[H:14])([H:8])([H:9])[H:10]>>[C:1]([H:8])([H:9])([H:10])[H:11].[C:2]1[C@@:3]2([H:12])[O:4][C@@:5]2([H:13])[C@:6]1([O:7][H:15])[H:14]"
C        1.88634549      -0.57820336       0.34910841
C        0.04399690       0.51455060       0.70328246
C       -0.21868714       1.35611019      -0.44271987
O       -0.76334405       0.63648342      -1.56714893
C       -1.59412882       0.72932673      -0.43146250
C       -1.18197010      -0.40483944       0.48932396
O       -1.04469961      -1.65168831      -0.11760864
H        2.87687358      -0.14139763       0.48557045
H        1.79031565      -0.71623142      -0.72517289
H        1.78818444      -1.57475533       0.77295896
H        1.32711768       0.21690326       1.23182760
H        0.07189342       2.38025815      -0.63300364
H       -2.53118259       1.26403266      -0.51201127
H       -1.77241335      -0.53448962       1.39275444
H       -0.67830151      -1.49605991      -0.99569856
15
Frame=8 idx=007689 GeodesicLength=0.6466292768078292 rxn_smarts="[C:1]([C@@:2]1([H:11])[C@@:3]2([H:12])[O:4][C@@:5]2([H:13])[C@:6]1([O:7][H:15])[H:14])([H:8])([H:9])[H:10]>>[C:1]([H:8])([H:9])([H:10])[H:11].[C:2]1[C@@:3]2([H:12])[O:4][C@@:5]2([H:13])[C@:6]1([O:7][H:15])[H:14]"
C        1.88524211      -0.57971170       0.35320346
C        0.03946427       0.49967257       0.69847035
C       -0.21412291       1.35709011      -0.43692646
O       -0.75956717       0.65071480      -1.56674933
C       -1.59424295       0.73406668      -0.43237266
C       -1.19273691      -0.40924732       0.47852454
O       -1.05889236      -1.65265003      -0.13561506
H        2.85987403      -0.09333072       0.41811116
H        1.75951565      -0.78780996      -0.70724559
H        1.85425093      -1.56025664       0.82330735
H        1.33120903       0.21802941       1.25933086
H        0.08290568       2.38174372      -0.61471903
H       -2.52660016       1.27735949      -0.50896183
H       -1.78607474      -0.54054810       1.37964991
H       -0.68022451      -1.49512230      -1.00800767
15
Frame=9 idx=007689 GeodesicLength=0.7266256035143619 rxn_smarts="[C:1]([C@@:2]1([H:11])[C@@:3]2([H:12])[O:4][C@@:5]2([H:13])[C@:6]1([O:7][H:15])[H:14])([H:8])([H:9])[H:10]>>[C:1]([H:8])([H:9])([H:10])[H:11].[C:2]1[C@@:3]2([H:12])[O:4][C@@:5]2([H:13])[C@:6]1([O:7][H:15])[H:14]"
C        1.88411345      -0.58165036       0.35743739
C        0.03488649       0.48439153       0.69384034
C       -0.20933077       1.35791112      -0.43050224
O       -0.75469820       0.66470604      -1.56591846
C       -1.59403724       0.73867830      -0.43348527
C       -1.20369371      -0.41362244       0.46764651
O       -1.07407054      -1.65348928      -0.15394650
H        2.83687579      -0.04971240       0.34828585
H        1.72951761      -0.85885150      -0.68382963
H        1.92445731      -1.54082549       0.87007615
H        1.33567360       0.21990493       1.28628803
H        0.09422534       2.38287994      -0.59563013
H       -2.52160115       1.29045988      -0.50653628
H       -1.80013914      -0.54634024       1.36634138
H       -0.68217883      -1.49444001      -1.02006715
15
Frame=10 idx=007689 GeodesicLength=0.8066286667223238 rxn_smarts="[C:1]([C@@:2]1([H:11])[C@@:3]2([H:12])[O:4][C@@:5]2([H:13])[C@:6]1([O:7][H:15])[H:14])([H:8])([H:9])[H:10]>>[C:1]([H:8])([H:9])([H:10])[H:11].[C:2]1[C@@:3]2([H:12])[O:4][C@@:5]2([H:13])[C@:6]1([O:7][H:15])[H:14]"
C        1.88296489      -0.58401044       0.36183384
C        0.03021898       0.46872938       0.68933546
C       -0.20437656       1.35859903      -0.42346531
O       -0.74886685       0.67854657      -1.56468295
C       -1.59357841       0.74320092      -0.43478277
C       -1.21484552      -0.41797660       0.45660726
O       -1.09013281      -1.65414057      -0.17279832
H        2.80799781      -0.01131866       0.27665348
H        1.70044393      -0.92962899      -0.65478170
H        1.99866101      -1.51591615       0.91286771
H        1.34053173       0.22269342       1.31265562
H        0.10573397       2.38371053      -0.57569363
H       -2.51624691       1.30342023      -0.50455360
H       -1.81454725      -0.55198448       1.35277390
H       -0.68395801      -1.49392419      -1.03196900
15
Frame=11 idx=007689 GeodesicLength=0.88656421558861 rxn_smarts="[C:1]([C@@:2]1([H:11])[C@@:3]2([H:12])[O:4][C@@:5]2([H:13])[C@:6]1([O:7][H:15])[H:14])([H:8])([H:9])[H:10]>>[C:1]([H:8])([H:9])([H:10])[H:11].[C:2]1[C@@:3]2([H:12])[O:4][C@@:5]2([H:13])[C@:6]1([O:7][H:15])[H:14]"
C        1.88181552      -0.58674877       0.36649101
C        0.02543301       0.45275808       0.68494403
C       -0.19933114       1.35922088      -0.41578192
O       -0.74213054       0.69235194      -1.56303460
C       -1.59289828       0.74763789      -0.43625246
C       -1.22613137      -0.42233411       0.44532047
O       -1.10687897      -1.65453569      -0.19237536
H        2.77365677       0.02079274       0.20354181
H        1.67216758      -1.00026991      -0.61970449
H        2.07630393      -1.48500713       0.95115459
H        1.34587499       0.22672590       1.33835839
H        0.11721607       2.38434929      -0.55478742
H       -2.51061487       1.31617966      -0.50292952
H       -1.82920922      -0.55764956       1.33885170
H       -0.68527349      -1.49347120      -1.04379623
15
Frame=12 idx=007689 GeodesicLength=0.966420347088969 rxn_smarts="[C:1]([C@@:2]1([H:11])[C@@:3]2([H:12])[O:4][C@@:5]2([H:13])[C@:6]1([O:7][H:15])[H:14])([H:8])([H:9])[H:10]>>[C:1]([H:8])([H:9])([H:10])[H:11].[C:2]1[C@@:3]2([H:12])[O:4][C@@:5]2([H:13])[C@:6]1([O:7][H:15])[H:14]"
C        1.88065612      -0.58988492       0.37144664
C        0.02049236       0.43656818       0.68067997
C       -0.19427501       1.35987467      -0.40743402
O       -0.73455485       0.70625446      -1.56100031
C       -1.59204077       0.75202214      -0.43788181
C       -1.23749190      -0.42672112       0.43372379
O       -1.12400991      -1.65464383      -0.21284504
H        2.73422535       0.04568742       0.12925885
H        1.64472508      -1.07085027      -0.57819599
H        2.15665821      -1.44771542       0.98435932
H        1.35175564       0.23222922       1.36337183
H        0.12847338       2.38494617      -0.53283555
H       -2.50479297       1.32875435      -0.50155034
H       -1.84403329      -0.56350772       1.32453577
H       -0.68578746      -1.49301334      -1.05563311
15
Frame=13 idx=007689 GeodesicLength=1.0462919122330736 rxn_smarts="[C:1]([C@@:2]1([H:11])[C@@:3]2([H:12])[O:4][C@@:5]2([H:13])[C@:6]1([O:7][H:15])[H:14])([H:8])([H:9])[H:10]>>[C:1]([H:8])([H:9])([H:10])[H:11].[C:2]1[C@@:3]2([H:12])[O:4][C@@:5]2([H:13])[C@:6]1([O:7][H:15])[H:14]"
C        1.87943927      -0.59321829       0.37713247
C        0.01527719       0.42033151       0.67691260
C       -0.18905431       1.36047194      -0.39815443
O       -0.72549355       0.71988019      -1.55831589
C       -1.59076098       0.75620136      -0.43987213
C       -1.24902214      -0.43094387       0.42198927
O       -1.14128298      -1.65438124      -0.23353335
H        2.68892446       0.06384573       0.05409304
H        1.61744212      -1.13974577      -0.52986885
H        2.24023678      -1.40480800       1.00946699
H        1.35759011       0.23814284       1.38863797
H        0.14014450       2.38514435      -0.51000388
H       -2.49852543       1.34081355      -0.50142040
H       -1.85952847      -0.56902679       1.30967684
H       -0.68538656      -1.49270749      -1.06674027
15
Frame=14 idx=007689 GeodesicLength=1.1262780746526866 rxn_smarts="[C:1]([C@@:2]1([H:11])[C@@:3]2([H:12])[O:4][C@@:5]2([H:13])[C@:6]1([O:7][H:15])[H:14])([H:8])([H:9])[H:10]>>[C:1]([H:8])([H:9])([H:10])[H:11].[C:2]1[C@@:3]2([H:12])[O:4][C@@:5]2([H:13])[C@:6]1([O:7][H:15])[H:14]"
C        1.87826659      -0.59671439       0.38321757
C        0.00982088       0.40412425       0.67354519
C       -0.18385794       1.36128892      -0.38795269
O       -0.71525871       0.73373365      -1.55511703
C       -1.58919773       0.76031337      -0.44211058
C       -1.26049230      -0.43517459       0.40988307
O       -1.15817483      -1.65375726      -0.25514694
H        2.63854785       0.07352245      -0.02214667
H        1.59057700      -1.20833735      -0.47373203
H        2.32517752      -1.35529260       1.02718653
H        1.36389226       0.24542134       1.41357797
H        0.15146844       2.38550760      -0.48583791
H       -2.49206189       1.35253724      -0.50184798
H       -1.87525357      -0.57485956       1.29419731
H       -0.68345355      -1.49231307      -1.07771582
15
Frame=15 idx=007689 GeodesicLength=1.206408528458238 rxn_smarts="[C:1]([C@@:2]1([H:11])[C@@:3]2([H:12])[O:4][C@@:5]2([H:13])[C@:6]1([O:7][H:15])[H:14])([H:8])([H:9])[H:10]>>[C:1]([H:8])([H:9])([H:10])[H:11].[C:2]1[C@@:3]2([H:12])[O:4][C@@:5]2([H:13])[C@:6]1([O:7][H:15])[H:14]"
C        1.87710199      -0.60014358       0.38949798
C        0.00411647       0.38808413       0.67070749
C       -0.17869611       1.36245854      -0.37658734
O       -0.70364130       0.74800092      -1.55122797
C       -1.58725111       0.76431267      -0.44460685
C       -1.27173583      -0.43945505       0.39725582
O       -1.17418232      -1.65266716      -0.27794132
H        2.58308291       0.07356701      -0.09985679
H        1.56380154      -1.27672334      -0.40829412
H        2.41020230      -1.29884868       1.03656042
H        1.37088612       0.25434990       1.43799692
H        0.16220156       2.38623039      -0.45988313
H       -2.48536941       1.36374616      -0.50284379
H       -1.89112284      -0.58127272       1.27780173
H       -0.67939398      -1.49163920      -1.08857906
15
Frame=16 idx=007689 GeodesicLength=1.2867392425612474 rxn_smarts="[C:1]([C@@:2]1([H:11])[C@@:3]2([H:12])[O:4][C@@:5]2([H:13])[C@:6]1([O:7][H:15])[H:14])([H:8])([H:9])[H:10]>>[C:1]([H:8])([H:9])([H:10])[H:11].[C:2]1[C@@:3]2([H:12])[O:4][C@@:5]2([H:13])[C@:6]1([O:7][H:15])[H:14]"
C        1.87578329      -0.60336565       0.39564458
C       -0.00187820       0.37247949       0.66861661
C       -0.17359011       1.36415598      -0.36386777
O       -0.69036085       0.76278319      -1.54650098
C       -1.58480361       0.76815255      -0.44742190
C       -1.28258892      -0.44376658       0.38406642
O       -1.18849450      -1.65108152      -0.30183449
H        2.52219381       0.06291758      -0.17895410
H        1.53715714      -1.34414007      -0.33243455
H        2.49380256      -1.23584229       1.03619082
H        1.37870267       0.26488453       1.46184233
H        0.17214806       2.38753033      -0.43190652
H       -2.47841409       1.37425818      -0.50457451
H       -1.90709563      -0.58839646       1.26031060
H       -0.67256161      -1.49056926      -1.09917655
