15
Frame=0 idx=006546 GeodesicLength=0.0 rxn_smarts="[C:1]([N:2]([C@@:3]([C:4]([O:5][H:15])([H:13])[H:14])([C:6]#[N:7])[H:12])[H:11])([H:8])([H:9])[H:10]>>[C:1]([N:2](/[C:3](=[C:4](\[O:5][H:15])[H:14])[H:12])[H:11])([H:8])([H:9])[H:10].[C:6](#[N:7])[H:13]"
C       -1.82855713       0.73521987       0.63385672
N       -0.46978105       0.25991532       0.84298535
C        0.27206716      -0.04580431      -0.31725720
C        1.72488625      -0.19721769      -0.09971973
O        2.39414020       0.63478593       0.69092608
C        0.13809366      -1.32101699      -1.30559325
N       -0.60109749      -2.20942145      -1.53756810
H       -2.45430827       0.00460256       0.10927571
H       -2.28356385       0.96637937       1.59645150
H       -1.80740187       1.65667933       0.04926372
H       -0.43063539      -0.48998654       1.51766120
H        0.03535110       0.69248783      -1.08743198
H        1.22378853      -0.96615861      -1.76049423
H        2.20500173      -1.16237609      -0.15496915
H        1.88201636       1.44191152       0.82261337
15
Frame=1 idx=006546 GeodesicLength=0.10029603372979651 rxn_smarts="[C:1]([N:2]([C@@:3]([C:4]([O:5][H:15])([H:13])[H:14])([C:6]#[N:7])[H:12])[H:11])([H:8])([H:9])[H:10]>>[C:1]([N:2](/[C:3](=[C:4](\[O:5][H:15])[H:14])[H:12])[H:11])([H:8])([H:9])[H:10].[C:6](#[N:7])[H:13]"
C       -1.82173380       0.74740171       0.63856026
N       -0.46823315       0.25354319       0.83798583
C        0.27246115      -0.03655227      -0.32811467
C        1.72420031      -0.18385818      -0.12002619
O        2.38663995       0.65276771       0.67652351
C        0.12946626      -1.34986250      -1.30509470
N       -0.60952018      -2.23868708      -1.52590316
H       -2.45482804       0.03577248       0.09667633
H       -2.27552728       0.96089110       1.60583440
H       -1.79046745       1.68196427       0.07566251
H       -0.44059267      -0.51383867       1.49359002
H        0.02836374       0.69532407      -1.10173042
H        1.24131201      -0.99704750      -1.74394178
H        2.23525223      -1.13467596      -0.16691898
H        1.84320690       1.42685761       0.86689703
15
Frame=2 idx=006546 GeodesicLength=0.20056055692296532 rxn_smarts="[C:1]([N:2]([C@@:3]([C:4]([O:5][H:15])([H:13])[H:14])([C:6]#[N:7])[H:12])[H:11])([H:8])([H:9])[H:10]>>[C:1]([N:2](/[C:3](=[C:4](\[O:5][H:15])[H:14])[H:12])[H:11])([H:8])([H:9])[H:10].[C:6](#[N:7])[H:13]"
C       -1.81512047       0.75935896       0.64321714
N       -0.46704564       0.24734985       0.83269857
C        0.27257335      -0.02701514      -0.33903998
C        1.72309355      -0.17070323      -0.13992144
O        2.37835750       0.67187795       0.66145113
C        0.12117692      -1.37901854      -1.30402833
N       -0.61781105      -2.26784339      -1.51418467
H       -2.45527665       0.06703278       0.08459203
H       -2.26795480       0.95524320       1.61469616
H       -1.77367579       1.70630228       0.10213018
H       -0.45100942      -0.53660808       1.46907930
H        0.02137461       0.69873154      -1.11580753
H        1.25900221      -1.02709585      -1.72608964
H        2.26561487      -1.10553880      -0.17922190
H        1.80670081       1.40792646       0.91042900
15
Frame=3 idx=006546 GeodesicLength=0.30075448157111 rxn_smarts="[C:1]([N:2]([C@@:3]([C:4]([O:5][H:15])([H:13])[H:14])([C:6]#[N:7])[H:12])[H:11])([H:8])([H:9])[H:10]>>[C:1]([N:2](/[C:3](=[C:4](\[O:5][H:15])[H:14])[H:12])[H:11])([H:8])([H:9])[H:10].[C:6](#[N:7])[H:13]"
C       -1.80871189       0.77111893       0.64780737
N       -0.46621976       0.24134826       0.82710769
C        0.27239792      -0.01721142      -0.35003816
C        1.72157327      -0.15775636      -0.15943513
O        2.36906813       0.69205702       0.64592326
C        0.11322505      -1.40855023      -1.30234170
N       -0.62597999      -2.29695802      -1.50235508
H       -2.45564859       0.09841733       0.07297951
H       -2.26083880       0.94944987       1.62302748
H       -1.75701375       1.72974557       0.12865940
H       -0.46187596      -0.55828606       1.44416270
H        0.01438557       0.70269290      -1.12968793
H        1.27685627      -1.05631437      -1.70689940
H        2.29613291      -1.07480740      -0.19206399
H        1.77264962       1.38505398       0.95315398
15
Frame=4 idx=006546 GeodesicLength=0.400951672259286 rxn_smarts="[C:1]([N:2]([C@@:3]([C:4]([O:5][H:15])([H:13])[H:14])([C:6]#[N:7])[H:12])[H:11])([H:8])([H:9])[H:10]>>[C:1]([N:2](/[C:3](=[C:4](\[O:5][H:15])[H:14])[H:12])[H:11])([H:8])([H:9])[H:10].[C:6](#[N:7])[H:13]"
C       -1.80252672       0.78272753       0.65231914
N       -0.46576778       0.23556510       0.82119630
C        0.27193671      -0.00715347      -0.36112582
C        1.71967494      -0.14499141      -0.17863232
O        2.35859425       0.71321892       0.63022222
C        0.10561672      -1.43855576      -1.29998971
N       -0.63402992      -2.32616914      -1.49033494
H       -2.45597428       0.12996234       0.06180595
H       -2.25420601       0.94356152       1.63083055
H       -1.74048207       1.75236728       0.15524800
H       -0.47320017      -0.57885951       1.41886878
H        0.00740713       0.70719684      -1.14340527
H        1.29488957      -1.08472550      -1.68635481
H        2.32686161      -1.04228614      -0.20570606
H        1.74120601       1.35814138       0.99505799
15
Frame=5 idx=006546 GeodesicLength=0.5010101088892823 rxn_smarts="[C:1]([N:2]([C@@:3]([C:4]([O:5][H:15])([H:13])[H:14])([C:6]#[N:7])[H:12])[H:11])([H:8])([H:9])[H:10]>>[C:1]([N:2](/[C:3](=[C:4](\[O:5][H:15])[H:14])[H:12])[H:11])([H:8])([H:9])[H:10].[C:6](#[N:7])[H:13]"
C       -1.79664042       0.79417985       0.65666581
N       -0.46565469       0.23016961       0.81496655
C        0.27118559       0.00321054      -0.37230512
C        1.71744595      -0.13240113      -0.19755832
O        2.34665615       0.73496560       0.61474600
C        0.09832828      -1.46902413      -1.29687575
N       -0.64200583      -2.35541283      -1.47800114
H       -2.45626928       0.16146652       0.05113418
H       -2.24808558       0.93771623       1.63803557
H       -1.72436282       1.77405989       0.18156840
H       -0.48480310      -0.59808734       1.39337102
H        0.00038271       0.71228528      -1.15701455
H        1.31305252      -1.11233693      -1.66444946
H        2.35799324      -1.00773554      -0.22060894
H        1.71277728       1.32694437       1.03632574
15
Frame=6 idx=006546 GeodesicLength=0.6010306225562438 rxn_smarts="[C:1]([N:2]([C@@:3]([C:4]([O:5][H:15])([H:13])[H:14])([C:6]#[N:7])[H:12])[H:11])([H:8])([H:9])[H:10]>>[C:1]([N:2](/[C:3](=[C:4](\[O:5][H:15])[H:14])[H:12])[H:11])([H:8])([H:9])[H:10].[C:6](#[N:7])[H:13]"
C       -1.79100611       0.80552130       0.66085819
N       -0.46589616       0.22512244       0.80839437
C        0.27016352       0.01385047      -0.38358207
C        1.71490127      -0.11989373      -0.21629387
O        2.33311668       0.75697271       0.60013825
C        0.09139868      -1.50006936      -1.29292471
N       -0.64987678      -2.38486252      -1.46526174
H       -2.45651828       0.19301539       0.04089914
H       -2.24244581       0.93192609       1.64465550
H       -1.70849569       1.79495267       0.20773134
H       -0.49674820      -0.61606855       1.36763465
H       -0.00660556       0.71794595      -1.17049789
H        1.33137880      -1.13910056      -1.64111202
H        2.38937392      -0.97089381      -0.23706576
H        1.68725972       1.29158151       1.07642663
15
Frame=7 idx=006546 GeodesicLength=0.7009284084222641 rxn_smarts="[C:1]([N:2]([C@@:3]([C:4]([O:5][H:15])([H:13])[H:14])([C:6]#[N:7])[H:12])[H:11])([H:8])([H:9])[H:10]>>[C:1]([N:2](/[C:3](=[C:4](\[O:5][H:15])[H:14])[H:12])[H:11])([H:8])([H:9])[H:10].[C:6](#[N:7])[H:13]"
C       -1.78559057       0.81675631       0.66484979
N       -0.46646728       0.22045562       0.80146765
C        0.26887634       0.02476958      -0.39493963
C        1.71204630      -0.10741222      -0.23485619
O        2.31784454       0.77861263       0.58705489
C        0.08482942      -1.53171592      -1.28802742
N       -0.65765342      -2.41452700      -1.45200147
H       -2.45667637       0.22458061       0.03105813
H       -2.23723737       0.92621262       1.65063451
H       -1.69286837       1.81504431       0.23366604
H       -0.50897678      -0.63277039       1.34169798
H       -0.01353720       0.72419161      -1.18382572
H        1.34984717      -1.16499222      -1.61622601
H        2.42095369      -0.93146030      -0.25553204
H        1.66460990       1.25225476       1.11497950
15
Frame=8 idx=006546 GeodesicLength=0.8007207990921498 rxn_smarts="[C:1]([N:2]([C@@:3]([C:4]([O:5][H:15])([H:13])[H:14])([C:6]#[N:7])[H:12])[H:11])([H:8])([H:9])[H:10]>>[C:1]([N:2](/[C:3](=[C:4](\[O:5][H:15])[H:14])[H:12])[H:11])([H:8])([H:9])[H:10].[C:6](#[N:7])[H:13]"
C       -1.78035649       0.82788303       0.66861556
N       -0.46734635       0.21617906       0.79418270
C        0.26735204       0.03596773      -0.40635799
C        1.70890403      -0.09491986      -0.25325324
O        2.30090060       0.79923902       0.57614620
C        0.07861675      -1.56399820      -1.28209999
N       -0.66538018      -2.44442473      -1.43815483
H       -2.45670054       0.25613721       0.02156480
H       -2.23242900       0.92057303       1.65593816
H       -1.67743097       1.83434847       0.25935662
H       -0.52146314      -0.64820453       1.31558225
H       -0.02032723       0.73105513      -1.19694829
H        1.36846577      -1.19000756      -1.58965575
H        2.45258672      -0.88918089      -0.27643216
H        1.64460800       1.20935309       1.15151594
15
Frame=9 idx=006546 GeodesicLength=0.9003992094672143 rxn_smarts="[C:1]([N:2]([C@@:3]([C:4]([O:5][H:15])([H:13])[H:14])([C:6]#[N:7])[H:12])[H:11])([H:8])([H:9])[H:10]>>[C:1]([N:2](/[C:3](=[C:4](\[O:5][H:15])[H:14])[H:12])[H:11])([H:8])([H:9])[H:10].[C:6](#[N:7])[H:13]"
C       -1.77541211       0.83893512       0.67213638
N       -0.46852113       0.21234938       0.78661420
C        0.26562262       0.04744297      -0.41781561
C        1.70558774      -0.08250771      -0.27144091
O        2.28245090       0.81804997       0.56798308
C        0.07280479      -1.59691739      -1.27506671
N       -0.67306707      -2.47446799      -1.42368274
H       -2.45668236       0.28766845       0.01237328
H       -2.22814619       0.91508416       1.66059871
H       -1.66239392       1.85288489       0.28468702
H       -0.53411413      -0.66231870       1.28946784
H       -0.02695036       0.73859317      -1.20988743
H        1.38734688      -1.21422343      -1.56130128
H        2.48436235      -0.84386171      -0.30040448
H        1.62711199       1.16328880       1.18573865
15
Frame=10 idx=006546 GeodesicLength=1.0000582078245237 rxn_smarts="[C:1]([N:2]([C@@:3]([C:4]([O:5][H:15])([H:13])[H:14])([C:6]#[N:7])[H:12])[H:11])([H:8])([H:9])[H:10]>>[C:1]([N:2](/[C:3](=[C:4](\[O:5][H:15])[H:14])[H:12])[H:11])([H:8])([H:9])[H:10].[C:6](#[N:7])[H:13]"
C       -1.77065339       0.84991846       0.67541307
N       -0.46998478       0.20890282       0.77872359
C        0.26372046       0.05920008      -0.42931405
C        1.70206353      -0.07011393      -0.28944905
O        2.26280053       0.83465314       0.56282107
C        0.06740047      -1.63054237      -1.26686593
N       -0.68074835      -2.50473264      -1.40856676
H       -2.45651764       0.31923433       0.00341871
H       -2.22430775       0.90968164       1.66459037
H       -1.64754873       1.87073173       0.30977834
H       -0.54699707      -0.67525765       1.26325519
H       -0.03326979       0.74688098      -1.22257709
H        1.40655956      -1.23775975      -1.53082319
H        2.51588446      -0.79520150      -0.32777786
H        1.61159851       1.11440466       1.21737358
15
Frame=11 idx=006546 GeodesicLength=1.0997117836676311 rxn_smarts="[C:1]([N:2]([C@@:3]([C:4]([O:5][H:15])([H:13])[H:14])([C:6]#[N:7])[H:12])[H:11])([H:8])([H:9])[H:10]>>[C:1]([N:2](/[C:3](=[C:4](\[O:5][H:15])[H:14])[H:12])[H:11])([H:8])([H:9])[H:10].[C:6](#[N:7])[H:13]"
C       -1.76615539       0.86087216       0.67842575
N       -0.47173848       0.20587166       0.77054665
C        0.26167503       0.07126942      -0.44085705
C        1.69839547      -0.05778185      -0.30728160
O        2.24226331       0.84845818       0.56085473
C        0.06245850      -1.66487919      -1.25742124
N       -0.68841945      -2.53515330      -1.39276756
H       -2.45625500       0.35085611      -0.00535579
H       -2.22101523       0.90440531       1.66792701
H       -1.63303690       1.88794870       0.33457379
H       -0.56007551      -0.68703445       1.23702538
H       -0.03923435       0.75603957      -1.23503490
H        1.42629684      -1.26084621      -1.49781672
H        2.54702133      -0.74284107      -0.35923846
H        1.59781981       1.06281498       1.24642004
15
Frame=12 idx=006546 GeodesicLength=1.1994438584853975 rxn_smarts="[C:1]([N:2]([C@@:3]([C:4]([O:5][H:15])([H:13])[H:14])([C:6]#[N:7])[H:12])[H:11])([H:8])([H:9])[H:10]>>[C:1]([N:2](/[C:3](=[C:4](\[O:5][H:15])[H:14])[H:12])[H:11])([H:8])([H:9])[H:10].[C:6](#[N:7])[H:13]"
C       -1.76191383       0.87183799       0.68120150
N       -0.47378734       0.20321965       0.76203585
C        0.25948725       0.08368201      -0.45253282
C        1.69460996      -0.04536124      -0.32509999
O        2.22125185       0.85917357       0.56197596
C        0.05803588      -1.69996752      -1.24675574
N       -0.69607086      -2.56575752      -1.37634735
H       -2.45594160       0.38267334      -0.01400271
H       -2.21826953       0.89922312       1.67066401
H       -1.61878432       1.90461669       0.35921012
H       -0.57339826      -0.69774670       1.21067446
H       -0.04485133       0.76613656      -1.24732201
H        1.44682287      -1.28382068      -1.46155446
H        2.57733374      -0.68634157      -0.39507055
H        1.58547553       1.00843231       1.27292373
15
Frame=13 idx=006546 GeodesicLength=1.2991022322431423 rxn_smarts="[C:1]([N:2]([C@@:3]([C:4]([O:5][H:15])([H:13])[H:14])([C:6]#[N:7])[H:12])[H:11])([H:8])([H:9])[H:10]>>[C:1]([N:2](/[C:3](=[C:4](\[O:5][H:15])[H:14])[H:12])[H:11])([H:8])([H:9])[H:10].[C:6](#[N:7])[H:13]"
C       -1.75785005       0.88274636       0.68363583
N       -0.47605266       0.20104636       0.75312553
C        0.25717253       0.09660413      -0.46433521
C        1.69060138      -0.03273401      -0.34299059
O        2.20001201       0.86616216       0.56625376
C        0.05412773      -1.73564811      -1.23478579
N       -0.70373231      -2.59630892      -1.35926384
H       -2.45536969       0.41448998      -0.02256150
H       -2.21596988       0.89401709       1.67262113
H       -1.60489269       1.92069911       0.38357033
H       -0.58680735      -0.70736750       1.18408561
H       -0.05002665       0.77748653      -1.25930482
H        1.46833103      -1.30708693      -1.42078927
H        2.60604311      -0.62508549      -0.43607557
H        1.57441349       0.95097925       1.29681438
15
Frame=14 idx=006546 GeodesicLength=1.3987684840040373 rxn_smarts="[C:1]([N:2]([C@@:3]([C:4]([O:5][H:15])([H:13])[H:14])([C:6]#[N:7])[H:12])[H:11])([H:8])([H:9])[H:10]>>[C:1]([N:2](/[C:3](=[C:4](\[O:5][H:15])[H:14])[H:12])[H:11])([H:8])([H:9])[H:10].[C:6](#[N:7])[H:13]"
C       -1.75400003       0.89354762       0.68593405
N       -0.47844843       0.19926861       0.74374414
C        0.25471072       0.11012918      -0.47653464
C        1.68648418      -0.01957840      -0.36142790
O        2.17927505       0.86929178       0.57301324
C        0.05089978      -1.77181804      -1.22193989
N       -0.71140766      -2.62655319      -1.34227710
H       -2.45476038       0.44637832      -0.03085991
H       -2.21402952       0.88862282       1.67415198
H       -1.59140237       1.93617879       0.40797168
H       -0.60015769      -0.71605506       1.15709457
H       -0.05495413       0.79024933      -1.27118888
H        1.49129843      -1.33104426      -1.37409364
H        2.63214887      -0.55970189      -0.48111381
H        1.56434318       0.89108440       1.31752611
15
Frame=15 idx=006546 GeodesicLength=1.4982638909544743 rxn_smarts="[C:1]([N:2]([C@@:3]([C:4]([O:5][H:15])([H:13])[H:14])([C:6]#[N:7])[H:12])[H:11])([H:8])([H:9])[H:10]>>[C:1]([N:2](/[C:3](=[C:4](\[O:5][H:15])[H:14])[H:12])[H:11])([H:8])([H:9])[H:10].[C:6](#[N:7])[H:13]"
C       -1.75009093       0.90402125       0.68825498
N       -0.48074887       0.19782302       0.73371956
C        0.25202083       0.12445101      -0.48935084
C        1.68207110      -0.00553357      -0.38088282
O        2.15935260       0.86871259       0.58129767
C        0.04849119      -1.80820381      -1.20870324
N       -0.71898734      -2.65607672      -1.32627890
H       -2.45389571       0.47817585      -0.03867774
H       -2.21196130       0.88260973       1.67540165
H       -1.57815568       1.95085926       0.43279142
H       -0.61310405      -0.72395533       1.12928935
H       -0.05985150       0.80471558      -1.28293918
H        1.51578863      -1.35570263      -1.31970688
H        2.65411534      -0.49174041      -0.52831890
H        1.55495568       0.82984420       1.33410389
15
Frame=16 idx=006546 GeodesicLength=1.5977440920114085 rxn_smarts="[C:1]([N:2]([C@@:3]([C:4]([O:5][H:15])([H:13])[H:14])([C:6]#[N:7])[H:12])[H:11])([H:8])([H:9])[H:10]>>[C:1]([N:2](/[C:3](=[C:4](\[O:5][H:15])[H:14])[H:12])[H:11])([H:8])([H:9])[H:10].[C:6](#[N:7])[H:13]"
C       -1.74622181       0.91394629       0.69088225
N       -0.48276110       0.19672577       0.72303587
C        0.24907791       0.13988160      -0.50305698
C        1.67744956       0.00955298      -0.40194862
O        2.14079918       0.86496640       0.58955429
C        0.04721722      -1.84453736      -1.19565111
N       -0.72624559      -2.68448602      -1.31220393
H       -2.45296104       0.50961073      -0.04562719
H       -2.20970567       0.87553787       1.67679618
H       -1.56556933       1.96462677       0.45832249
H       -0.62519516      -0.73121819       1.10056778
H       -0.06493906       0.82143246      -1.29468643
H        1.54168908      -1.38021723      -1.25689571
H        2.67109494      -0.42469734      -0.57459898
H        1.54627086       0.76887528       1.34551012
