12
Frame=0 idx=001934 GeodesicLength=0.0 rxn_smarts="[O:1]([C:2]([C:3]([O:4][C:5](=[O:6])[H:12])([H:10])[H:11])([H:8])[H:9])[H:7]>>[H:7][H:10].[O:1]=[C:2]([C:3]([O:4][C:5](=[O:6])[H:12])([H:8])[H:11])[H:9]"
O       -1.91100216      -0.12364939       1.47824174
C       -1.42112625      -0.35006888       0.30309308
C       -0.05454461       0.11399692       0.07057849
O        0.65958077      -0.39414390      -0.93261368
C        1.71835419       0.34705887      -1.43090905
O        1.99844633       1.43914628      -1.07921283
H       -0.47050032      -0.47215904       2.10473693
H       -1.69733770       0.48436976      -0.45888858
H       -1.63252255      -1.29900923      -0.22351803
H        0.31666923      -0.56605752       1.89661293
H        0.26360645       1.07722299       0.45836610
H        2.23037665      -0.25670682      -2.18648710
12
Frame=1 idx=001934 GeodesicLength=0.11990042691557616 rxn_smarts="[O:1]([C:2]([C:3]([O:4][C:5](=[O:6])[H:12])([H:10])[H:11])([H:8])[H:9])[H:7]>>[H:7][H:10].[O:1]=[C:2]([C:3]([O:4][C:5](=[O:6])[H:12])([H:8])[H:11])[H:9]"
O       -1.93282655      -0.11055462       1.44886432
C       -1.40613573      -0.34867453       0.29170901
C       -0.01881215       0.08221781       0.10767977
O        0.71165134      -0.42754062      -0.89020011
C        1.68696070       0.36016864      -1.47006911
O        1.89480313       1.48933592      -1.18851245
H       -0.53928521      -0.47645495       2.14093305
H       -1.60678969       0.52360775      -0.47093972
H       -1.63060470      -1.28779782      -0.24545604
H        0.27601694      -0.57563764       1.94835461
H        0.33542800       1.01851579       0.52890907
H        2.22959393      -0.24718573      -2.20127240
12
Frame=2 idx=001934 GeodesicLength=0.23903444851964778 rxn_smarts="[O:1]([C:2]([C:3]([O:4][C:5](=[O:6])[H:12])([H:10])[H:11])([H:8])[H:9])[H:7]>>[H:7][H:10].[O:1]=[C:2]([C:3]([O:4][C:5](=[O:6])[H:12])([H:8])[H:11])[H:9]"
O       -1.94899392      -0.09810124       1.42135327
C       -1.39167135      -0.34805840       0.28087291
C        0.01217892       0.05223010       0.13900472
O        0.75630716      -0.45281178      -0.85878402
C        1.65593343       0.36909906      -1.50145972
O        1.79205725       1.52279486      -1.27645410
H       -0.60044160      -0.47324255       2.17045240
H       -1.52189408       0.55873096      -0.47668745
H       -1.62815324      -1.27776785      -0.26576122
H        0.24278509      -0.58067723       1.98984167
H        0.40047527       0.96138349       0.58892458
H        2.23141709      -0.23357941      -2.21130305
12
Frame=3 idx=001934 GeodesicLength=0.3581722609297645 rxn_smarts="[O:1]([C:2]([C:3]([O:4][C:5](=[O:6])[H:12])([H:10])[H:11])([H:8])[H:9])[H:7]>>[H:7][H:10].[O:1]=[C:2]([C:3]([O:4][C:5](=[O:6])[H:12])([H:8])[H:11])[H:9]"
O       -1.96121833      -0.08620062       1.39601406
C       -1.37844384      -0.34847921       0.27076325
C        0.03872256       0.02371742       0.16507012
O        0.79408016      -0.47241314      -0.83666076
C        1.62589743       0.37552125      -1.52753290
O        1.69510744       1.54399367      -1.34616953
H       -0.65538265      -0.46327332       2.19516228
H       -1.44295417       0.58957225      -0.47790466
H       -1.62624364      -1.26968933      -0.28363316
H        0.21597738      -0.58221812       2.02310160
H        0.45914677       0.90565589       0.63998327
H        2.23531088      -0.21618674      -2.21819356
12
Frame=4 idx=001934 GeodesicLength=0.47716234109108524 rxn_smarts="[O:1]([C:2]([C:3]([O:4][C:5](=[O:6])[H:12])([H:10])[H:11])([H:8])[H:9])[H:7]>>[H:7][H:10].[O:1]=[C:2]([C:3]([O:4][C:5](=[O:6])[H:12])([H:8])[H:11])[H:9]"
O       -1.97106626      -0.07463378       1.37191457
C       -1.36629659      -0.35011205       0.26110629
C        0.06185468      -0.00378749       0.18718813
O        0.82719903      -0.48840049      -0.82075661
C        1.59798231       0.38035324      -1.54877264
O        1.60555343       1.55675379      -1.40100740
H       -0.70603338      -0.44640846       2.21634988
H       -1.36884437       0.61615404      -0.47615832
H       -1.62460923      -1.26400539      -0.29913577
H        0.19385257      -0.58146005       2.05039320
H        0.51243040       0.85079912       0.68444581
H        2.23797740      -0.19525247      -2.22556714
12
Frame=5 idx=001934 GeodesicLength=0.5961947808697918 rxn_smarts="[O:1]([C:2]([C:3]([O:4][C:5](=[O:6])[H:12])([H:10])[H:11])([H:8])[H:9])[H:7]>>[H:7][H:10].[O:1]=[C:2]([C:3]([O:4][C:5](=[O:6])[H:12])([H:8])[H:11])[H:9]"
O       -1.97905196      -0.06339267       1.34895807
C       -1.35531117      -0.35267181       0.25187260
C        0.08199644      -0.03002698       0.20601382
O        0.85640827      -0.50143463      -0.80939208
C        1.57158042       0.38414944      -1.56663111
O        1.52316301       1.56374160      -1.44470272
H       -0.75323751      -0.42447361       2.23462572
H       -1.29923631       0.63902160      -0.47226086
H       -1.62351184      -1.26031699      -0.31240439
H        0.17605797      -0.57931834       2.07259872
H        0.56120121       0.79674964       0.72356853
H        2.23994147      -0.17202724      -2.23224628
12
Frame=6 idx=001934 GeodesicLength=0.7150508176055732 rxn_smarts="[O:1]([C:2]([C:3]([O:4][C:5](=[O:6])[H:12])([H:10])[H:11])([H:8])[H:9])[H:7]>>[H:7][H:10].[O:1]=[C:2]([C:3]([O:4][C:5](=[O:6])[H:12])([H:8])[H:11])[H:9]"
O       -1.98597481      -0.05249547       1.32660687
C       -1.34522404      -0.35632740       0.24292860
C        0.09983897      -0.05545386       0.22233620
O        0.88299417      -0.51240074      -0.80127086
C        1.54732029       0.38758690      -1.58123139
O        1.44744273       1.56701843      -1.47930942
H       -0.79790244      -0.39627579       2.25050038
H       -1.23327134       0.65851386      -0.46666015
H       -1.62264085      -1.25888459      -0.32368598
H        0.16136616      -0.57716180       2.09089152
H        0.60616495       0.74286546       0.75890553
H        2.23988620      -0.14698499      -2.24001131
12
Frame=7 idx=001934 GeodesicLength=0.8338762502262219 rxn_smarts="[O:1]([C:2]([C:3]([O:4][C:5](=[O:6])[H:12])([H:10])[H:11])([H:8])[H:9])[H:7]>>[H:7][H:10].[O:1]=[C:2]([C:3]([O:4][C:5](=[O:6])[H:12])([H:8])[H:11])[H:9]"
O       -1.99192259      -0.04187332       1.30510531
C       -1.33617545      -0.36082867       0.23438973
C        0.11555774      -0.08011940       0.23632387
O        0.90693251      -0.52163983      -0.79610921
C        1.52422756       0.39086690      -1.59388104
O        1.37699665       1.56774215      -1.50739756
H       -0.84005636      -0.36238431       2.26414294
H       -1.17085663       0.67526619      -0.45943301
H       -1.62253151      -1.25925276      -0.33303214
H        0.14975377      -0.57597703       2.10550629
H        0.64804075       0.68868322       0.79088562
H        2.24003356      -0.12048314      -2.24650081
12
Frame=8 idx=001934 GeodesicLength=0.9526426728227383 rxn_smarts="[O:1]([C:2]([C:3]([O:4][C:5](=[O:6])[H:12])([H:10])[H:11])([H:8])[H:9])[H:7]>>[H:7][H:10].[O:1]=[C:2]([C:3]([O:4][C:5](=[O:6])[H:12])([H:8])[H:11])[H:9]"
O       -1.99722017      -0.03162899       1.28410453
C       -1.32795521      -0.36622976       0.22615456
C        0.12955625      -0.10407776       0.24850493
O        0.92899502      -0.52940786      -0.79296317
C        1.50248909       0.39420776      -1.60458220
O        1.31148951       1.56677764      -1.53000914
H       -0.88019550      -0.32256823       2.27560198
H       -1.11146710       0.68947445      -0.45092501
H       -1.62285181      -1.26147367      -0.34065159
H        0.14061416      -0.57628060       2.11716145
H        0.68719856       0.63401779       0.82029650
H        2.23934722      -0.09281077      -2.25269283
12
Frame=9 idx=001934 GeodesicLength=1.0713885896554673 rxn_smarts="[O:1]([C:2]([C:3]([O:4][C:5](=[O:6])[H:12])([H:10])[H:11])([H:8])[H:9])[H:7]>>[H:7][H:10].[O:1]=[C:2]([C:3]([O:4][C:5](=[O:6])[H:12])([H:8])[H:11])[H:9]"
O       -2.00199825      -0.02184312       1.26353755
C       -1.32049303      -0.37250488       0.21822539
C        0.14207188      -0.12737704       0.25916246
O        0.94949407      -0.53586360      -0.79138508
C        1.48188490       0.39771807      -1.61367443
O        1.25029492       1.56469225      -1.54820503
H       -0.91847429      -0.27674486       2.28481073
H       -1.05482969       0.70141346      -0.44127245
H       -1.62358249      -1.26543691      -0.34665226
H        0.13366582      -0.57857393       2.12624536
H        0.72397413       0.57862958       0.84753684
H        2.23799202      -0.06410901      -2.25832907
12
Frame=10 idx=001934 GeodesicLength=1.190074854142106 rxn_smarts="[O:1]([C:2]([C:3]([O:4][C:5](=[O:6])[H:12])([H:10])[H:11])([H:8])[H:9])[H:7]>>[H:7][H:10].[O:1]=[C:2]([C:3]([O:4][C:5](=[O:6])[H:12])([H:8])[H:11])[H:9]"
O       -2.00638276      -0.01267281       1.24328409
C       -1.31366177      -0.37971271       0.21057238
C        0.15335874      -0.15017258       0.26859880
O        0.96881216      -0.54115843      -0.79096706
C        1.46241369       0.40159850      -1.62118041
O        1.19289259       1.56196345      -1.56257765
H       -0.95500640      -0.22437227       2.29144219
H       -1.00060607       0.71128467      -0.43053200
H       -1.62457819      -1.27117173      -0.35115757
H        0.12849237      -0.58327526       2.13320843
H        0.75861066       0.52219809       0.87306366
H        2.23565498      -0.03450892      -2.26375483
12
Frame=11 idx=001934 GeodesicLength=1.308730482753041 rxn_smarts="[O:1]([C:2]([C:3]([O:4][C:5](=[O:6])[H:12])([H:10])[H:11])([H:8])[H:9])[H:7]>>[H:7][H:10].[O:1]=[C:2]([C:3]([O:4][C:5](=[O:6])[H:12])([H:8])[H:11])[H:9]"
O       -2.01037771      -0.00421376       1.22341796
C       -1.30743574      -0.38784025       0.20323382
C        0.16356059      -0.17256827       0.27697492
O        0.98707069      -0.54540028      -0.79151897
C        1.44382653       0.40591112      -1.62733634
O        1.13864837       1.55885862      -1.57377805
H       -0.98974180      -0.16517305       2.29509719
H       -0.94861473       0.71929633      -0.41871425
H       -1.62589278      -1.27859293      -0.35419103
H        0.12493455      -0.59074644       2.13829671
H        0.79131805       0.46442664       0.89705147
H        2.23270397      -0.00395773      -2.26853345
12
Frame=12 idx=001934 GeodesicLength=1.427353657046277 rxn_smarts="[O:1]([C:2]([C:3]([O:4][C:5](=[O:6])[H:12])([H:10])[H:11])([H:8])[H:9])[H:7]>>[H:7][H:10].[O:1]=[C:2]([C:3]([O:4][C:5](=[O:6])[H:12])([H:8])[H:11])[H:9]"
O       -2.01396850       0.00341318       1.20401588
C       -1.30176361      -0.39689419       0.19624275
C        0.17282122      -0.19466493       0.28447452
O        1.00444047      -0.54866425      -0.79280903
C        1.42598943       0.41072949      -1.63221646
O        1.08700324       1.55556324      -1.58226156
H       -1.02264297      -0.09877721       2.29520474
H       -0.89865353       0.72560884      -0.40581378
H       -1.62751472      -1.28764517      -0.35578115
H        0.12283528      -0.60133077       2.14175555
H        0.82222265       0.40506218       0.91967916
H        2.22923105       0.02759959      -2.27249062
12
Frame=13 idx=001934 GeodesicLength=1.545933461695863 rxn_smarts="[O:1]([C:2]([C:3]([O:4][C:5](=[O:6])[H:12])([H:10])[H:11])([H:8])[H:9])[H:7]>>[H:7][H:10].[O:1]=[C:2]([C:3]([O:4][C:5](=[O:6])[H:12])([H:8])[H:11])[H:9]"
O       -2.01711212       0.01008225       1.18516763
C       -1.29656981      -0.40687770       0.18963140
C        0.18128506      -0.21652504       0.29130773
O        1.02114235      -0.55096746      -0.79454276
C        1.40887647       0.41615544      -1.63575194
O        1.03746119       1.55220428      -1.58835733
H       -1.05374289      -0.02482587       2.29102759
H       -0.85050808       0.73035817      -0.39181307
H       -1.62937009      -1.29828863      -0.35594132
H        0.12208089      -0.61539776       2.14380422
H        0.85137354       0.34392914       0.94114851
H        2.22508349       0.06015317      -2.27568067
12
Frame=14 idx=001934 GeodesicLength=1.6644780947814126 rxn_smarts="[O:1]([C:2]([C:3]([O:4][C:5](=[O:6])[H:12])([H:10])[H:11])([H:8])[H:9])[H:7]>>[H:7][H:10].[O:1]=[C:2]([C:3]([O:4][C:5](=[O:6])[H:12])([H:8])[H:11])[H:9]"
O       -2.01968270       0.01573716       1.16713591
C       -1.29184584      -0.41776662       0.18350314
C        0.18903139      -0.23820816       0.29761130
O        1.03726353      -0.55233383      -0.79654438
C        1.39233758       0.42223916      -1.63797068
O        0.98941142       1.54879271      -1.59244665
H       -1.08298005       0.05715577       2.28162815
H       -0.80406426       0.73364716      -0.37670811
H       -1.63151824      -1.31045979      -0.35455642
H        0.12273364      -0.63354506       2.14451548
H        0.87878175       0.28085148       0.96152466
H        2.22053177       0.09389001      -2.27769238
12
Frame=15 idx=001934 GeodesicLength=1.7829901790470715 rxn_smarts="[O:1]([C:2]([C:3]([O:4][C:5](=[O:6])[H:12])([H:10])[H:11])([H:8])[H:9])[H:7]>>[H:7][H:10].[O:1]=[C:2]([C:3]([O:4][C:5](=[O:6])[H:12])([H:8])[H:11])[H:9]"
O       -2.02152725       0.02032758       1.15020721
C       -1.28754224      -0.42952142       0.17797636
C        0.19615665      -0.25967678       0.30359138
O        1.05300070      -0.55269711      -0.79848884
C        1.37635240       0.42907449      -1.63874315
O        0.94234118       1.54530952      -1.59482044
H       -1.11046025       0.14765006       2.26585226
H       -0.75919482       0.73556773      -0.36052656
H       -1.63391794      -1.32410769      -0.35147496
H        0.12492652      -0.65661091       2.14391217
H        0.90437359       0.21582163       0.98095888
H        2.21549146       0.12886291      -2.27844431
12
Frame=16 idx=001934 GeodesicLength=1.9014790846267333 rxn_smarts="[O:1]([C:2]([C:3]([O:4][C:5](=[O:6])[H:12])([H:10])[H:11])([H:8])[H:9])[H:7]>>[H:7][H:10].[O:1]=[C:2]([C:3]([O:4][C:5](=[O:6])[H:12])([H:8])[H:11])[H:9]"
O       -2.02242339       0.02382821       1.13481105
C       -1.28360837      -0.44206341       0.17323995
C        0.20274786      -0.28079725       0.30948923
O        1.06856470      -0.55192552      -0.79998383
C        1.36090780       0.43675443      -1.63790850
O        0.89571084       1.54165754      -1.59581179
H       -1.13641441       0.24723906       2.24226255
H       -0.71581662       0.73622358      -0.34332091
H       -1.63652584      -1.33914384      -0.34645793
H        0.12894756      -0.68587863       2.14187193
H        0.92802113       0.14899632       0.99962437
H        2.20988873       0.16510951      -2.27781612
