15
Frame=0 idx=008156 GeodesicLength=0.0 rxn_smarts="[O:1]([C@@:2]12[C:3]([H:9])([H:10])[C@@:4]3([H:11])[C:5]([H:12])([H:13])[C@:6]1([H:14])[C@@:7]23[H:15])[H:8]>>[O:1]([C@@:7]1([H:15])[C@@:4]2([H:11])[C:3]([H:9])([H:10])[C:2][C@:6]1([H:14])[C:5]2([H:12])[H:13])[H:8]"
O        1.84041570       0.43551328      -0.80310077
C        1.06585638       0.44562317       0.60860609
C        0.65702474      -1.05973649       0.62102170
C       -0.57903801      -0.90354222      -0.23671226
C       -1.39623208       0.13959200       0.57951256
C       -0.30228419       1.12697921       0.14576758
C       -0.07622153       0.32237626      -1.01853566
H        2.21889351       1.31599256      -0.86110363
H        0.44884800      -1.43429790       1.62388095
H        1.44557978      -1.66203580       0.17475041
H       -1.06684416      -1.74636046      -0.72422128
H       -2.36388096       0.36806265       0.13290630
H       -1.50468184      -0.05349111       1.64876347
H       -0.36528333       2.20716034       0.19451755
H       -0.02215206       0.49816448      -2.08605302
15
Frame=1 idx=008156 GeodesicLength=0.05580868992245126 rxn_smarts="[O:1]([C@@:2]12[C:3]([H:9])([H:10])[C@@:4]3([H:11])[C:5]([H:12])([H:13])[C@:6]1([H:14])[C@@:7]23[H:15])[H:8]>>[O:1]([C@@:7]1([H:15])[C@@:4]2([H:11])[C:3]([H:9])([H:10])[C:2][C@:6]1([H:14])[C:5]2([H:12])[H:13])[H:8]"
O        1.84337951       0.44004230      -0.81574423
C        1.06124569       0.44073865       0.60863584
C        0.65588114      -1.06148296       0.62766317
C       -0.57739392      -0.90403321      -0.23648678
C       -1.39708324       0.13845636       0.57620371
C       -0.29903241       1.12598411       0.15259983
C       -0.06538763       0.31962367      -1.01635108
H        2.22354705       1.31990126      -0.87074431
H        0.44879497      -1.43547728       1.63110009
H        1.44516794      -1.66445489       0.18290320
H       -1.06186728      -1.74831722      -0.72439302
H       -2.36041466       0.37117017       0.12238584
H       -1.51324708      -0.05509615       1.64455459
H       -0.36036476       2.20631671       0.20050123
H       -0.04322531       0.50662846      -2.08282807
15
Frame=2 idx=008156 GeodesicLength=0.111613850870322 rxn_smarts="[O:1]([C@@:2]12[C:3]([H:9])([H:10])[C@@:4]3([H:11])[C:5]([H:12])([H:13])[C@:6]1([H:14])[C@@:7]23[H:15])[H:8]>>[O:1]([C@@:7]1([H:15])[C@@:4]2([H:11])[C:3]([H:9])([H:10])[C:2][C@:6]1([H:14])[C:5]2([H:12])[H:13])[H:8]"
O        1.84635993       0.44473124      -0.82849327
C        1.05662104       0.43580352       0.60876246
C        0.65468106      -1.06325926       0.63428441
C       -0.57573183      -0.90451572      -0.23633363
C       -1.39790303       0.13735467       0.57279022
C       -0.29575460       1.12493660       0.15937808
C       -0.05450787       0.31682385      -1.01428242
H        2.22813659       1.32398532      -0.88058002
H        0.44867231      -1.43670382       1.63828995
H        1.44472740      -1.66686855       0.19103808
H       -1.05690674      -1.75027583      -0.72456325
H       -2.35683804       0.37434585       0.11180318
H       -1.52182800      -0.05665963       1.64018192
H       -0.35536635       2.20542025       0.20646160
H       -0.06436186       0.51488150      -2.07873731
15
Frame=3 idx=008156 GeodesicLength=0.1673940090093007 rxn_smarts="[O:1]([C@@:2]12[C:3]([H:9])([H:10])[C@@:4]3([H:11])[C:5]([H:12])([H:13])[C@:6]1([H:14])[C@@:7]23[H:15])[H:8]>>[O:1]([C@@:7]1([H:15])[C@@:4]2([H:11])[C:3]([H:9])([H:10])[C:2][C@:6]1([H:14])[C:5]2([H:12])[H:13])[H:8]"
O        1.84933812       0.44959526      -0.84134813
C        1.05197133       0.43082009       0.60898042
C        0.65341419      -1.06506462       0.64087383
C       -0.57406133      -0.90498529      -0.23624985
C       -1.39868682       0.13628700       0.56928239
C       -0.29245564       1.12384016       0.16610496
C       -0.04359411       0.31398284      -1.01232242
H        2.23263959       1.32826303      -0.89060775
H        0.44847768      -1.43798236       1.64543375
H        1.44424005      -1.66927253       0.19913773
H       -1.05197943      -1.75222780      -0.72472671
H       -2.35314687       0.37758675       0.10118345
H       -1.53040823      -0.05818206       1.63565080
H       -0.35029130       2.20447343       0.21239511
H       -0.08545725       0.52286611      -2.07378756
15
Frame=4 idx=008156 GeodesicLength=0.22317550480894674 rxn_smarts="[O:1]([C@@:2]12[C:3]([H:9])([H:10])[C@@:4]3([H:11])[C:5]([H:12])([H:13])[C@:6]1([H:14])[C@@:7]23[H:15])[H:8]>>[O:1]([C@@:7]1([H:15])[C@@:4]2([H:11])[C:3]([H:9])([H:10])[C:2][C@:6]1([H:14])[C:5]2([H:12])[H:13])[H:8]"
O        1.85231804       0.45463906      -0.85432489
C        1.04729597       0.42578630       0.60929131
C        0.65208418      -1.06690325       0.64743271
C       -0.57238651      -0.90543829      -0.23623824
C       -1.39944675       0.13525809       0.56568996
C       -0.28914648       1.12270006       0.17279012
C       -0.03265347       0.31110866      -1.01047530
H        2.23705813       1.33274124      -0.90084640
H        0.44821531      -1.43931978       1.65253924
H        1.44371378      -1.67167635       0.20719740
H       -1.04708911      -1.75416918      -0.72489249
H       -2.34936102       0.38090201       0.09053403
H       -1.53899853      -0.05966143       1.63097753
H       -0.34515408       2.20348334       0.21831871
H       -0.10644945       0.53054950      -2.06799369
15
Frame=5 idx=008156 GeodesicLength=0.27894834078704955 rxn_smarts="[O:1]([C@@:2]12[C:3]([H:9])([H:10])[C@@:4]3([H:11])[C:5]([H:12])([H:13])[C@:6]1([H:14])[C@@:7]23[H:15])[H:8]>>[O:1]([C@@:7]1([H:15])[C@@:4]2([H:11])[C:3]([H:9])([H:10])[C:2][C@:6]1([H:14])[C:5]2([H:12])[H:13])[H:8]"
O        1.85527911       0.45987349      -0.86743263
C        1.04258951       0.42070482       0.60968027
C        0.65067695      -1.06876853       0.65395549
C       -0.57071379      -0.90587344      -0.23629222
C       -1.40017724       0.13426051       0.56201522
C       -0.28582378       1.12151093       0.17943760
C       -0.02169352       0.30820191      -1.00872830
H        2.24137150       1.33743135      -0.91131310
H        0.44787293      -1.44070424       1.65959463
H        1.44312602      -1.67407024       0.21521878
H       -1.04224520      -1.75609680      -0.72504923
H       -2.34546790       0.38427865       0.07986339
H       -1.54759370      -0.06110635       1.62615323
H       -0.33993922       2.20243971       0.22423962
H       -0.12726167       0.53791824      -2.06134274
15
Frame=6 idx=008156 GeodesicLength=0.334720886217211 rxn_smarts="[O:1]([C@@:2]12[C:3]([H:9])([H:10])[C@@:4]3([H:11])[C:5]([H:12])([H:13])[C@:6]1([H:14])[C@@:7]23[H:15])[H:8]>>[O:1]([C@@:7]1([H:15])[C@@:4]2([H:11])[C:3]([H:9])([H:10])[C:2][C@:6]1([H:14])[C:5]2([H:12])[H:13])[H:8]"
O        1.85821796       0.46530693      -0.88068037
C        1.03784524       0.41557399       0.61015624
C        0.64919600      -1.07066918       0.66043989
C       -0.56905229      -0.90628654      -0.23641264
C       -1.40088971       0.13330249       0.55827777
C       -0.28250454       1.12028373       0.18605866
C       -0.01072741       0.30527270      -1.00708255
H        2.24557202       1.34234582      -0.92201250
H        0.44746276      -1.44215504       1.66660414
H        1.44248277      -1.67646640       0.22318330
H       -1.03746071      -1.75800326      -0.72520659
H       -2.34149092       0.38773111       0.06919773
H       -1.55619252      -0.06251131       1.62120749
H       -0.33467390       2.20135803       0.23016442
H       -0.14778476       0.54491693      -2.05389499
15
Frame=7 idx=008156 GeodesicLength=0.3904717151549725 rxn_smarts="[O:1]([C@@:2]12[C:3]([H:9])([H:10])[C@@:4]3([H:11])[C:5]([H:12])([H:13])[C@:6]1([H:14])[C@@:7]23[H:15])[H:8]>>[O:1]([C@@:7]1([H:15])[C@@:4]2([H:11])[C:3]([H:9])([H:10])[C:2][C@:6]1([H:14])[C:5]2([H:12])[H:13])[H:8]"
O        1.86111453       0.47095394      -0.89406677
C        1.03305427       0.41039520       0.61071409
C        0.64763140      -1.07260380       0.66687752
C       -0.56741134      -0.90667465      -0.23659304
C       -1.40157961       0.13238187       0.55448905
C       -0.27919031       1.11901875       0.19265696
C        0.00023695       0.30232350      -1.00552508
H        2.24963879       1.34750122      -0.93293833
H        0.44698076      -1.44367510       1.67355283
H        1.44176512      -1.67885990       0.23107759
H       -1.03275303      -1.75988136      -0.72535515
H       -2.33742571       0.39125281       0.05856130
H       -1.56477976      -0.06387655       1.61614713
H       -0.32935820       2.20023647       0.23608652
H       -0.16792385       0.55150760      -2.04568463
15
Frame=8 idx=008156 GeodesicLength=0.4462193777491182 rxn_smarts="[O:1]([C@@:2]12[C:3]([H:9])([H:10])[C@@:4]3([H:11])[C:5]([H:12])([H:13])[C@:6]1([H:14])[C@@:7]23[H:15])[H:8]>>[O:1]([C@@:7]1([H:15])[C@@:4]2([H:11])[C:3]([H:9])([H:10])[C:2][C@:6]1([H:14])[C:5]2([H:12])[H:13])[H:8]"
O        1.86396194       0.47681344      -0.90761133
C        1.02821551       0.40516781       0.61135192
C        0.64598151      -1.07457346       0.67327265
C       -0.56579518      -0.90703773      -0.23683087
C       -1.40225526       0.13149746       0.55065642
C       -0.27588850       1.11771594       0.19924466
C        0.01119228       0.29935618      -1.00405020
H        2.25356477       1.35289611      -0.94411978
H        0.44642909      -1.44526116       1.68045012
H        1.44097432      -1.68125526       0.23890890
H       -1.02812367      -1.76172950      -0.72549979
H       -2.33328438       0.39484420       0.04796085
H       -1.57336607      -0.06520650       1.61098024
H       -0.32399800       2.19907424       0.24201976
H       -0.18760836       0.55769824      -2.03673353
15
Frame=9 idx=008156 GeodesicLength=0.5019557243050802 rxn_smarts="[O:1]([C@@:2]12[C:3]([H:9])([H:10])[C@@:4]3([H:11])[C:5]([H:12])([H:13])[C@:6]1([H:14])[C@@:7]23[H:15])[H:8]>>[O:1]([C@@:7]1([H:15])[C@@:4]2([H:11])[C:3]([H:9])([H:10])[C:2][C@:6]1([H:14])[C:5]2([H:12])[H:13])[H:8]"
O        1.86674664       0.48289829      -0.92131471
C        1.02332229       0.39988974       0.61207242
C        0.64424242      -1.07658212       0.67962324
C       -0.56421130      -0.90737259      -0.23711990
C       -1.40291775       0.13065199       0.54679497
C       -0.27260429       1.11637832       0.20582905
C        0.02213346       0.29637416      -1.00264722
H        2.25733611       1.35854534      -0.95555261
H        0.44580740      -1.44692382       1.68729173
H        1.44010266      -1.68365549       0.24666688
H       -1.02358281      -1.76353892      -0.72564234
H       -2.32907166       0.39850870       0.03741892
H       -1.58194234      -0.06650181       1.60572244
H       -0.31859994       2.19787543       0.24795688
H       -0.20676089       0.56345280      -2.02709976
15
Frame=10 idx=008156 GeodesicLength=0.5576872311387839 rxn_smarts="[O:1]([C@@:2]12[C:3]([H:9])([H:10])[C@@:4]3([H:11])[C:5]([H:12])([H:13])[C@:6]1([H:14])[C@@:7]23[H:15])[H:8]>>[O:1]([C@@:7]1([H:15])[C@@:4]2([H:11])[C:3]([H:9])([H:10])[C:2][C@:6]1([H:14])[C:5]2([H:12])[H:13])[H:8]"
O        1.86945441       0.48921370      -0.93519222
C        1.01837389       0.39456068       0.61287398
C        0.64241017      -1.07863128       0.68593450
C       -0.56266341      -0.90768144      -0.23745438
C       -1.40357100       0.12984364       0.54291089
C       -0.26934057       1.11500627       0.21242165
C        0.03305582       0.29337798      -1.00130505
H        2.26093676       1.36445659      -0.96725932
H        0.44511250      -1.44866327       1.69408416
H        1.43914458      -1.68606553       0.25435843
H       -1.01913232      -1.76531226      -0.72577947
H       -2.32478924       0.40224765       0.02693900
H       -1.59051447      -0.06776705       1.60037904
H       -0.31316002       2.19664025       0.25391710
H       -0.22531711       0.56877406      -2.01682830
15
Frame=11 idx=008156 GeodesicLength=0.6134209892656837 rxn_smarts="[O:1]([C@@:2]12[C:3]([H:9])([H:10])[C@@:4]3([H:11])[C:5]([H:12])([H:13])[C@:6]1([H:14])[C@@:7]23[H:15])[H:8]>>[O:1]([C@@:7]1([H:15])[C@@:4]2([H:11])[C:3]([H:9])([H:10])[C:2][C@:6]1([H:14])[C:5]2([H:12])[H:13])[H:8]"
O        1.87207360       0.49576226      -0.94925566
C        1.01337144       0.38917621       0.61375637
C        0.64048135      -1.08072345       0.69221382
C       -0.56115202      -0.90796583      -0.23782854
C       -1.40421808       0.12907056       0.53900788
C       -0.26609784       1.11359649       0.21903447
C        0.04395884       0.29036689      -1.00001180
H        2.26434570       1.37063628      -0.97926906
H        0.44434136      -1.45047637       1.70083683
H        1.43809662      -1.68849113       0.26199557
H       -1.01477017      -1.76704921      -0.72591050
H       -2.32043582       0.40606260       0.01651849
H       -1.59909191      -0.06900431       1.59495157
H       -0.30767287       2.19536400       0.25992167
H       -0.24323019       0.57367502      -2.00596113
15
Frame=12 idx=008156 GeodesicLength=0.6691624237653807 rxn_smarts="[O:1]([C@@:2]12[C:3]([H:9])([H:10])[C@@:4]3([H:11])[C:5]([H:12])([H:13])[C@:6]1([H:14])[C@@:7]23[H:15])[H:8]>>[O:1]([C@@:7]1([H:15])[C@@:4]2([H:11])[C:3]([H:9])([H:10])[C:2][C@:6]1([H:14])[C:5]2([H:12])[H:13])[H:8]"
O        1.87459143       0.50254730      -0.96351575
C        1.00831701       0.38373411       0.61472077
C        0.63845275      -1.08286115       0.69846813
C       -0.55967703      -0.90822787      -0.23823821
C       -1.40485976       0.12833166       0.53508789
C       -0.26287454       1.11214801       0.22567955
C        0.05484401       0.28734077      -0.99875496
H        2.26754493       1.37709145      -0.99160636
H        0.44349020      -1.45236117       1.70755754
H        1.43695497      -1.69093816       0.26959048
H       -1.01049499      -1.76875213      -0.72603476
H       -2.31600661       0.40995693       0.00615226
H       -1.60768309      -0.07021703       1.58943866
H       -0.30213266       2.19404541       0.26599268
H       -0.26046660       0.57816186      -1.99453793
15
Frame=13 idx=008156 GeodesicLength=0.724906107927171 rxn_smarts="[O:1]([C@@:2]12[C:3]([H:9])([H:10])[C@@:4]3([H:11])[C:5]([H:12])([H:13])[C@:6]1([H:14])[C@@:7]23[H:15])[H:8]>>[O:1]([C@@:7]1([H:15])[C@@:4]2([H:11])[C:3]([H:9])([H:10])[C:2][C@:6]1([H:14])[C:5]2([H:12])[H:13])[H:8]"
O        1.87699627       0.50957703      -0.97797777
C        1.00320636       0.37823210       0.61577229
C        0.63632331      -1.08504855       0.70469850
C       -0.55824302      -0.90846765      -0.23867733
C       -1.40549819       0.12762752       0.53116213
C       -0.25967515       1.11066124       0.23236428
C        0.06571151       0.28429823      -0.99752304
H        2.27052502       1.38383020      -1.00426785
H        0.44255925      -1.45432557       1.71424658
H        1.43571792      -1.69340992       0.27713849
H       -1.00631706      -1.77041481      -0.72615156
H       -2.31150720       0.41393213      -0.00414281
H       -1.61628297      -0.07140171       1.58385348
H       -0.29654767       2.19268473       0.27212410
H       -0.27696838       0.58222505      -1.98261948
15
Frame=14 idx=008156 GeodesicLength=0.780660056350691 rxn_smarts="[O:1]([C@@:2]12[C:3]([H:9])([H:10])[C@@:4]3([H:11])[C:5]([H:12])([H:13])[C@:6]1([H:14])[C@@:7]23[H:15])[H:8]>>[O:1]([C@@:7]1([H:15])[C@@:4]2([H:11])[C:3]([H:9])([H:10])[C:2][C@:6]1([H:14])[C:5]2([H:12])[H:13])[H:8]"
O        1.87927687       0.51685365      -0.99265316
C        0.99804208       0.37266609       0.61691294
C        0.63408839      -1.08728871       0.71091533
C       -0.55684882      -0.90868826      -0.23914029
C       -1.40613423       0.12695591       0.52723114
C       -0.25649656       1.10913230       0.23909900
C        0.07656671       0.28123585      -0.99630355
H        2.27326379       1.39086041      -1.01728654
H        0.44154217      -1.45636781       1.72091600
H        1.43438020      -1.69591388       0.28465756
H       -1.00223059      -1.77204144      -0.72625850
H       -2.30693169       0.41798888      -0.01437418
H       -1.62490197      -0.07256328       1.57819321
H       -0.29090779       2.19127729       0.27833501
H       -0.29270856       0.58589301      -1.97024397
15
Frame=15 idx=008156 GeodesicLength=0.8364179914451046 rxn_smarts="[O:1]([C@@:2]12[C:3]([H:9])([H:10])[C@@:4]3([H:11])[C:5]([H:12])([H:13])[C@:6]1([H:14])[C@@:7]23[H:15])[H:8]>>[O:1]([C@@:7]1([H:15])[C@@:4]2([H:11])[C:3]([H:9])([H:10])[C:2][C@:6]1([H:14])[C:5]2([H:12])[H:13])[H:8]"
O        1.88142287       0.52437984      -1.00754682
C        0.99282220       0.36703479       0.61815024
C        0.63174856      -1.08958530       0.71712268
C       -0.55549595      -0.90888981      -0.23962267
C       -1.40676913       0.12631895       0.52330222
C       -0.25334154       1.10756230       0.24589109
C        0.08741333       0.27815163      -0.99508573
H        2.27575168       1.39818540      -1.03066354
H        0.44044336      -1.45849319       1.72757076
H        1.43294013      -1.69845651       0.29214697
H       -0.99824358      -1.77362845      -0.72635358
H       -2.30228270       0.42212697      -0.02453608
H       -1.63353878      -0.07370061       1.57246590
H       -0.28522055       2.18982446       0.28462553
H       -0.30764989       0.58916952      -1.95746696
15
Frame=16 idx=008156 GeodesicLength=0.8921820340426208 rxn_smarts="[O:1]([C@@:2]12[C:3]([H:9])([H:10])[C@@:4]3([H:11])[C:5]([H:12])([H:13])[C@:6]1([H:14])[C@@:7]23[H:15])[H:8]>>[O:1]([C@@:7]1([H:15])[C@@:4]2([H:11])[C:3]([H:9])([H:10])[C:2][C@:6]1([H:14])[C:5]2([H:12])[H:13])[H:8]"
O        1.88341984       0.53216434      -1.02266588
C        0.98754907       0.36133307       0.61948645
C        0.62929706      -1.09194102       0.72332847
C       -0.55418329      -0.90907541      -0.24011786
C       -1.40740005       0.12571372       0.51937440
C       -0.25020321       1.10594573       0.25275045
C        0.09825961       0.27504095      -0.99385301
H        2.27796155       1.40582017      -1.04442413
H        0.43924935      -1.46070166       1.73421536
H        1.43139012      -1.70104152       0.29962340
H       -0.99434989      -1.77517751      -0.72643627
H       -2.29754884       0.42634859      -0.03463276
H       -1.64219813      -0.07481388       1.56666512
H       -0.27946872       2.18831882       0.29101053
H       -0.32177449       0.59206561      -1.94432426
