14
Frame=0 idx=004595 GeodesicLength=0.0 rxn_smarts="[C:1]([C@@:2]1([H:9])[C:3]([H:10])([H:11])[N:4]1[C:5]([H:12])([H:13])[H:14])([H:6])([H:7])[H:8]>>[C:1]([C@@:2]1([H:9])[C:3]([H:11])=[N+:4]1[C-:5]([H:12])[H:14])([H:6])([H:7])[H:8].[H:10][H:13]"
C       -1.54319131       0.36212335      -0.57602689
C       -0.63487036       0.59566233       0.60503100
C        0.09491477      -0.52942560       1.25016705
N        0.79730668       0.34161570       0.51387304
C        1.67195897       0.18569223      -0.46750988
H       -2.55544974       0.16068231      -0.22051268
H       -1.58541783       1.24643012      -1.21599705
H       -1.21732762      -0.48866097      -1.17178254
H       -0.84997884       1.50793665       1.16204690
H        0.40751474      -1.64839281       0.03229258
H        0.23975975      -0.86316745       2.26609066
H        2.62480703      -0.26154401      -0.21497306
H        0.91260441      -1.49621377      -0.66990927
H        1.63736940       0.88726187      -1.29278989
14
Frame=1 idx=004595 GeodesicLength=0.08265668255832591 rxn_smarts="[C:1]([C@@:2]1([H:9])[C:3]([H:10])([H:11])[N:4]1[C:5]([H:12])([H:13])[H:14])([H:6])([H:7])[H:8]>>[C:1]([C@@:2]1([H:9])[C:3]([H:11])=[N+:4]1[C-:5]([H:12])[H:14])([H:6])([H:7])[H:8].[H:10][H:13]"
C       -1.56126347       0.36792621      -0.57194152
C       -0.64217627       0.59391370       0.60192741
C        0.08810832      -0.53762684       1.23472027
N        0.78538571       0.33787120       0.49251279
C        1.68000979       0.17620400      -0.47174899
H       -2.57276930       0.17588620      -0.20903469
H       -1.60069485       1.25131041      -1.21338380
H       -1.24625611      -0.48631778      -1.16888991
H       -0.83980586       1.50942224       1.16034592
H        0.41657971      -1.66620284       0.03670035
H        0.24912263      -0.85471818       2.25387996
H        2.63439337      -0.24702059      -0.18313887
H        0.94674033      -1.50728454      -0.67190821
H        1.66262599       0.88663683      -1.29004072
14
Frame=2 idx=004595 GeodesicLength=0.16490435760444502 rxn_smarts="[C:1]([C@@:2]1([H:9])[C:3]([H:10])([H:11])[N:4]1[C:5]([H:12])([H:13])[H:14])([H:6])([H:7])[H:8]>>[C:1]([C@@:2]1([H:9])[C:3]([H:11])=[N+:4]1[C-:5]([H:12])[H:14])([H:6])([H:7])[H:8].[H:10][H:13]"
C       -1.57968214       0.37401134      -0.56766740
C       -0.64934577       0.59211872       0.59851493
C        0.08114864      -0.54605729       1.21872524
N        0.77321694       0.33349853       0.47011089
C        1.68858747       0.16676396      -0.47568385
H       -2.59022718       0.19185950      -0.19688776
H       -1.61629513       1.25636237      -1.21071712
H       -1.27628449      -0.48386924      -1.16574588
H       -0.82890341       1.51081660       1.15814135
H        0.42603864      -1.68440836       0.04148697
H        0.25820189      -0.84662880       2.24059410
H        2.64298268      -0.23133989      -0.15063719
H        0.98262440      -1.51857836      -0.67318479
H        1.68793746       0.88545093      -1.28704951
14
Frame=3 idx=004595 GeodesicLength=0.24692786759714308 rxn_smarts="[C:1]([C@@:2]1([H:9])[C:3]([H:10])([H:11])[N:4]1[C:5]([H:12])([H:13])[H:14])([H:6])([H:7])[H:8]>>[C:1]([C@@:2]1([H:9])[C:3]([H:11])=[N+:4]1[C-:5]([H:12])[H:14])([H:6])([H:7])[H:8].[H:10][H:13]"
C       -1.59845967       0.38039558      -0.56318554
C       -0.65635045       0.59027310       0.59475350
C        0.07402343      -0.55474266       1.20213409
N        0.76078679       0.32842742       0.44657251
C        1.69772791       0.15738735      -0.47926083
H       -2.60779850       0.20863537      -0.18401178
H       -1.63224879       1.26159518      -1.20798605
H       -1.30747846      -0.48129191      -1.16232178
H       -0.81721369       1.51207768       1.15537603
H        0.43588131      -1.70304230       0.04669366
H        0.26696327      -0.83891591       2.22620359
H        2.65047269      -0.21446472      -0.11744742
H        1.02037839      -1.53003232      -0.67370279
H        1.71331576       0.88369815      -1.28381717
14
Frame=4 idx=004595 GeodesicLength=0.3289365054681083 rxn_smarts="[C:1]([C@@:2]1([H:9])[C:3]([H:10])([H:11])[N:4]1[C:5]([H:12])([H:13])[H:14])([H:6])([H:7])[H:8]>>[C:1]([C@@:2]1([H:9])[C:3]([H:11])=[N+:4]1[C-:5]([H:12])[H:14])([H:6])([H:7])[H:8].[H:10][H:13]"
C       -1.61760974       0.38709156      -0.55847678
C       -0.66315404       0.58837021       0.59059456
C        0.06672162      -0.56370896       1.18489730
N        0.74808168       0.32257398       0.42178463
C        1.70746998       0.14808945      -0.48241911
H       -2.62544647       0.22625873      -0.17033529
H       -1.64858501       1.26701188      -1.20518266
H       -1.33991211      -0.47856439      -1.15857726
H       -0.80466073       1.51315072       1.15197729
H        0.44607974      -1.72214461       0.05237780
H        0.27537126      -0.83160115       2.21066563
H        2.65672441      -0.19634486      -0.08354666
H        1.06013529      -1.54157380      -0.67342474
H        1.73878412       0.88139123      -1.28033470
14
Frame=5 idx=004595 GeodesicLength=0.4108117630283623 rxn_smarts="[C:1]([C@@:2]1([H:9])[C:3]([H:10])([H:11])[N:4]1[C:5]([H:12])([H:13])[H:14])([H:6])([H:7])[H:8]>>[C:1]([C@@:2]1([H:9])[C:3]([H:11])=[N+:4]1[C-:5]([H:12])[H:14])([H:6])([H:7])[H:8].[H:10][H:13]"
C       -1.63720647       0.39412727      -0.55349648
C       -0.66974592       0.58635002       0.58594023
C        0.05922616      -0.57303125       1.16687892
N        0.73501177       0.31581929       0.39553183
C        1.71782241       0.13894814      -0.48505444
H       -2.64316045       0.24480534      -0.15573312
H       -1.66541187       1.27263154      -1.20226967
H       -1.37377827      -0.47563668      -1.15444071
H       -0.79115173       1.51399591       1.14781547
H        0.45664952      -1.74175004       0.05848747
H        0.28341057      -0.82466613       2.19392866
H        2.66172544      -0.17702253      -0.04887721
H        1.10212974      -1.55313173      -0.67214317
H        1.76447911       0.87856085      -1.27656777
14
Frame=6 idx=004595 GeodesicLength=0.4928387334699543 rxn_smarts="[C:1]([C@@:2]1([H:9])[C:3]([H:10])([H:11])[N:4]1[C:5]([H:12])([H:13])[H:14])([H:6])([H:7])[H:8]>>[C:1]([C@@:2]1([H:9])[C:3]([H:11])=[N+:4]1[C-:5]([H:12])[H:14])([H:6])([H:7])[H:8].[H:10][H:13]"
C       -1.65722973       0.40151850      -0.54822768
C       -0.67604650       0.58422232       0.58073655
C        0.05152550      -0.58274279       1.14804370
N        0.72159722       0.30802732       0.36769455
C        1.72882741       0.12993816      -0.48711285
H       -2.66086889       0.26435444      -0.14012730
H       -1.68271688       1.27844788      -1.19925737
H       -1.40913226      -0.47250931      -1.14985889
H       -0.77653838       1.51454556       1.14278762
H        0.46751672      -1.76192235       0.06511090
H        0.29104334      -0.81818095       2.17593431
H        2.66517957      -0.15628856      -0.01338696
H        1.14649143      -1.56462519      -0.66984388
H        1.79035145       0.87521496      -1.27249272
14
Frame=7 idx=004595 GeodesicLength=0.5752058628805417 rxn_smarts="[C:1]([C@@:2]1([H:9])[C:3]([H:10])([H:11])[N:4]1[C:5]([H:12])([H:13])[H:14])([H:6])([H:7])[H:8]>>[C:1]([C@@:2]1([H:9])[C:3]([H:11])=[N+:4]1[C-:5]([H:12])[H:14])([H:6])([H:7])[H:8].[H:10][H:13]"
C       -1.67769954       0.40927935      -0.54263421
C       -0.68198767       0.58196690       0.57489221
C        0.04360428      -0.59288684       1.12831179
N        0.70780998       0.29905016       0.33808314
C        1.74049056       0.12110536      -0.48851253
H       -2.67852452       0.28497817      -0.12338981
H       -1.70054013       1.28444696      -1.19614507
H       -1.44609579      -0.46916912      -1.14475491
H       -0.76068313       1.51475352       1.13675835
H        0.47860793      -1.78272113       0.07229355
H        0.29823780      -0.81217484       2.15661463
H        2.66692538      -0.13408662       0.02298984
H        1.19340704      -1.57595718      -0.66645867
H        1.81644782       0.87141531      -1.26804830
14
Frame=8 idx=004595 GeodesicLength=0.6578660838409583 rxn_smarts="[C:1]([C@@:2]1([H:9])[C:3]([H:10])([H:11])[N:4]1[C:5]([H:12])([H:13])[H:14])([H:6])([H:7])[H:8]>>[C:1]([C@@:2]1([H:9])[C:3]([H:11])=[N+:4]1[C-:5]([H:12])[H:14])([H:6])([H:7])[H:8].[H:10][H:13]"
C       -1.69861916       0.41744291      -0.53667728
C       -0.68748419       0.57954664       0.56829641
C        0.03544433      -0.60354171       1.10758399
N        0.69362151       0.28869676       0.30649224
C        1.75280040       0.11248617      -0.48916388
H       -2.69602414       0.30679950      -0.10539283
H       -1.71890212       1.29063488      -1.19292492
H       -1.48480836      -0.46558022      -1.13902806
H       -0.74340440       1.51453349       1.12954992
H        0.48987012      -1.80421413       0.08005580
H        0.30495158      -0.80672449       2.13588171
H        2.66669935      -0.11024498       0.06029553
H        1.24309452      -1.58703699      -0.66178326
H        1.84276055       0.86720217      -1.26318537
14
Frame=9 idx=004595 GeodesicLength=0.7405362940586117 rxn_smarts="[C:1]([C@@:2]1([H:9])[C:3]([H:10])([H:11])[N:4]1[C:5]([H:12])([H:13])[H:14])([H:6])([H:7])[H:8]>>[C:1]([C@@:2]1([H:9])[C:3]([H:11])=[N+:4]1[C-:5]([H:12])[H:14])([H:6])([H:7])[H:8].[H:10][H:13]"
C       -1.72005546       0.42604536      -0.53027056
C       -0.69247193       0.57685571       0.56074216
C        0.02702851      -0.61483904       1.08562596
N        0.67889210       0.27673600       0.27253139
C        1.76565181       0.10420076      -0.48894063
H       -2.71326812       0.32995380      -0.08589411
H       -1.73791069       1.29701721      -1.18954766
H       -1.52554610      -0.46168115      -1.13250095
H       -0.72445693       1.51384162       1.12087433
H        0.50127842      -1.82648724       0.08824563
H        0.31115769      -0.80182744       2.11359601
H        2.66439509      -0.08478944       0.09867676
H        1.29590374      -1.59772961      -0.65536964
H        1.86940187       0.86270344      -1.25776868
14
Frame=10 idx=004595 GeodesicLength=0.823547746270588 rxn_smarts="[C:1]([C@@:2]1([H:9])[C:3]([H:10])([H:11])[N:4]1[C:5]([H:12])([H:13])[H:14])([H:6])([H:7])[H:8]>>[C:1]([C@@:2]1([H:9])[C:3]([H:11])=[N+:4]1[C-:5]([H:12])[H:14])([H:6])([H:7])[H:8].[H:10][H:13]"
C       -1.74189221       0.43513601      -0.52340135
C       -0.69676240       0.57387452       0.55213643
C        0.01832635      -0.62687227       1.06242631
N        0.66369322       0.26287162       0.23608885
C        1.77898807       0.09626135      -0.48775509
H       -2.73004923       0.35463925      -0.06481325
H       -1.75742610       1.30359449      -1.18605619
H       -1.56833020      -0.45744437      -1.12508023
H       -0.70355471       1.51251710       1.11055473
H        0.51268202      -1.84965998       0.09702429
H        0.31677268      -0.79769934       2.08969118
H        2.65938217      -0.05724386       0.13808557
H        1.35206863      -1.60787506      -0.64709207
H        1.89610170       0.85790055      -1.25180919
14
Frame=11 idx=004595 GeodesicLength=0.9067413405469649 rxn_smarts="[C:1]([C@@:2]1([H:9])[C:3]([H:10])([H:11])[N:4]1[C:5]([H:12])([H:13])[H:14])([H:6])([H:7])[H:8]>>[C:1]([C@@:2]1([H:9])[C:3]([H:11])=[N+:4]1[C-:5]([H:12])[H:14])([H:6])([H:7])[H:8].[H:10][H:13]"
C       -1.76401914       0.44476519      -0.51603869
C       -0.70018536       0.57052580       0.54232906
C        0.00930447      -0.63978465       1.03789277
N        0.64802175       0.24681906       0.19700687
C        1.79261352       0.08876759      -0.48551956
H       -2.74612578       0.38101091      -0.04204198
H       -1.77731222       1.31039151      -1.18244952
H       -1.61318739      -0.45278626      -1.11664969
H       -0.68044434       1.51040236       1.09837655
H        0.52399426      -1.87384453       0.10642514
H        0.32171270      -0.79449274       2.06411416
H        2.65123853      -0.02735471       0.17842551
H        1.41179334      -1.61727145      -0.63657458
H        1.92259567       0.85285192      -1.24529605
14
Frame=12 idx=004595 GeodesicLength=0.9900036008187674 rxn_smarts="[C:1]([C@@:2]1([H:9])[C:3]([H:10])([H:11])[N:4]1[C:5]([H:12])([H:13])[H:14])([H:6])([H:7])[H:8]>>[C:1]([C@@:2]1([H:9])[C:3]([H:11])=[N+:4]1[C-:5]([H:12])[H:14])([H:6])([H:7])[H:8].[H:10][H:13]"
C       -1.78624017       0.45497683      -0.50816555
C       -0.70255471       0.56668501       0.53117086
C       -0.00005801      -0.65372873       1.01198689
N        0.63190886       0.22829406       0.15521728
C        1.80622763       0.08183479      -0.48217638
H       -2.76113406       0.40923098      -0.01754052
H       -1.79733944       1.31741037      -1.17875290
H       -1.66004689      -0.44761420      -1.10707325
H       -0.65489207       1.50730048       1.08413199
H        0.53509229      -1.89915756       0.11654534
H        0.32587728      -0.79239503       2.03685785
H        2.63946227       0.00506341       0.21944658
H        1.47520024      -1.62558468      -0.62343123
H        1.94849677       0.84768426      -1.23821697
14
Frame=13 idx=004595 GeodesicLength=1.0727358069047261 rxn_smarts="[C:1]([C@@:2]1([H:9])[C:3]([H:10])([H:11])[N:4]1[C:5]([H:12])([H:13])[H:14])([H:6])([H:7])[H:8]>>[C:1]([C@@:2]1([H:9])[C:3]([H:11])=[N+:4]1[C-:5]([H:12])[H:14])([H:6])([H:7])[H:8].[H:10][H:13]"
C       -1.80825858       0.46578565      -0.49978401
C       -0.70371329       0.56218504       0.51851328
C       -0.00975104      -0.66886579       0.98467042
N        0.61539988       0.20713047       0.11077311
C        1.81933425       0.07564461      -0.47773720
H       -2.77463503       0.43934665       0.00865066
H       -1.81716675       1.32464288      -1.17498953
H       -1.70867187      -0.44181634      -1.09621435
H       -0.62682287       1.50303381       1.06770098
H        0.54592679      -1.92566239       0.12739670
H        0.32916861      -0.79152169       2.00798644
H        2.62374342       0.03984282       0.26071928
H        1.54213713      -1.63237424      -0.60712112
H        1.97330934       0.84262853      -1.23056465
14
Frame=14 idx=004595 GeodesicLength=1.1551391807922096 rxn_smarts="[C:1]([C@@:2]1([H:9])[C:3]([H:10])([H:11])[N:4]1[C:5]([H:12])([H:13])[H:14])([H:6])([H:7])[H:8]>>[C:1]([C@@:2]1([H:9])[C:3]([H:11])=[N+:4]1[C-:5]([H:12])[H:14])([H:6])([H:7])[H:8].[H:10][H:13]"
C       -1.82958289       0.47718318      -0.49101876
C       -0.70345053       0.55692924       0.50444432
C       -0.01977996      -0.68528606       0.95629010
N        0.59875347       0.18320101       0.06427054
C        1.83148642       0.07028507      -0.47228031
H       -2.78615154       0.47133056       0.03615402
H       -1.83616096       1.33207407      -1.17127372
H       -1.75839463      -0.43531220      -1.08416389
H       -0.59622671       1.49730856       1.04920885
H        0.55619618      -1.95340502       0.13942325
H        0.33150992      -0.79214112       1.97784237
H        2.60346493       0.07714693       0.30147310
H        1.61215271      -1.63708352      -0.58782539
H        1.99618357       0.83776929      -1.22254447
14
Frame=15 idx=004595 GeodesicLength=1.2369477272391607 rxn_smarts="[C:1]([C@@:2]1([H:9])[C:3]([H:10])([H:11])[N:4]1[C:5]([H:12])([H:13])[H:14])([H:6])([H:7])[H:8]>>[C:1]([C@@:2]1([H:9])[C:3]([H:11])=[N+:4]1[C-:5]([H:12])[H:14])([H:6])([H:7])[H:8].[H:10][H:13]"
C       -1.84967220       0.48907194      -0.48202289
C       -0.70168295       0.55079706       0.48911212
C       -0.03008813      -0.70299544       0.92726446
N        0.58221716       0.15666313       0.01650662
C        1.84212591       0.06587048      -0.46599967
H       -2.79519357       0.50489644       0.06445680
H       -1.85366497       1.33963432      -1.16770635
H       -1.80831834      -0.42804164      -1.07104686
H       -0.56343170       1.48994511       1.02893338
H        0.56556583      -1.98230482       0.15296114
H        0.33289725      -0.79430427       1.94690009
H        2.57852827       0.11649871       0.34080658
H        1.68437478      -1.63910338      -0.56585170
H        2.01634267       0.83337236      -1.21431372
14
Frame=16 idx=004595 GeodesicLength=1.3179194435931727 rxn_smarts="[C:1]([C@@:2]1([H:9])[C:3]([H:10])([H:11])[N:4]1[C:5]([H:12])([H:13])[H:14])([H:6])([H:7])[H:8]>>[C:1]([C@@:2]1([H:9])[C:3]([H:11])=[N+:4]1[C-:5]([H:12])[H:14])([H:6])([H:7])[H:8].[H:10][H:13]"
C       -1.86798275       0.50127921      -0.47299717
C       -0.69846043       0.54370547       0.47280508
C       -0.04056584      -0.72186498       0.89817245
N        0.56607608       0.12793262      -0.03148377
C        1.85077749       0.06247140      -0.45917268
H       -2.80137143       0.53955805       0.09288036
H       -1.86904014       1.34719867      -1.16441251
H       -1.85738088      -0.42001139      -1.05706774
H       -0.52904333       1.48085159       1.00733318
H        0.57355517      -2.01215323       0.16831606
H        0.33343715      -0.79791186       1.91577238
H        2.54919497       0.15704829       0.37774251
H        1.75765843      -1.63785750      -0.54187676
H        2.03314551       0.82975367      -1.20601138
