11
Frame=0 idx=001451 GeodesicLength=0.0 rxn_smarts="[O:1]([C@@:2]1([H:8])[C:3]([H:9])([H:10])[N:4]([H:11])[C:5]1=[O:6])[H:7]>>[O:1]([C:2](=[C:5]([N:4]([C+:3]([H:9])[H:10])[H:11])[O-:6])[H:8])[H:7]"
O        1.29262928       1.94101636      -0.14078689
C        0.46199967       0.97338596       0.24633984
C       -1.49068229      -0.56088645      -0.07350648
N       -0.33551409      -1.13893207       0.24306570
C        0.77745728      -0.35949888      -0.10138392
O        1.80084079      -0.74669885      -0.66623512
H        1.90888145       1.53585366      -0.77135514
H       -0.20161058       1.22967514       1.05695846
H       -2.37771045      -0.78998501       0.50700865
H       -1.59075808      -0.05976897      -1.02061125
H       -0.24553298      -2.02416092       0.72050612
11
Frame=1 idx=001451 GeodesicLength=0.04780897765892725 rxn_smarts="[O:1]([C@@:2]1([H:8])[C:3]([H:9])([H:10])[N:4]([H:11])[C:5]1=[O:6])[H:7]>>[O:1]([C:2](=[C:5]([N:4]([C+:3]([H:9])[H:10])[H:11])[O-:6])[H:8])[H:7]"
O        1.25038019       1.94583724      -0.17518619
C        0.45108508       0.96440073       0.24930946
C       -1.47909753      -0.54035832      -0.07241856
N       -0.33305992      -1.14735871       0.23291156
C        0.78860754      -0.36916676      -0.08424661
O        1.81699619      -0.75541776      -0.63926650
H        1.89159179       1.53913338      -0.77862457
H       -0.18205285       1.21818968       1.08548024
H       -2.36802200      -0.76319767       0.50789602
H       -1.58174122      -0.05372402      -1.02735029
H       -0.25468729      -2.03833779       0.70149545
11
Frame=2 idx=001451 GeodesicLength=0.09575945977136098 rxn_smarts="[O:1]([C@@:2]1([H:8])[C:3]([H:9])([H:10])[N:4]([H:11])[C:5]1=[O:6])[H:7]>>[O:1]([C:2](=[C:5]([N:4]([C+:3]([H:9])[H:10])[H:11])[O-:6])[H:8])[H:7]"
O        1.20886611       1.94871946      -0.20916758
C        0.43963045       0.95591850       0.25032122
C       -1.46805166      -0.52130178      -0.07065536
N       -0.33061826      -1.15520404       0.22250677
C        0.79843930      -0.37806583      -0.06922604
O        1.83187315      -0.76369610      -0.61389797
H        1.87944053       1.54260658      -0.77953377
H       -0.16395034       1.20913573       1.10899923
H       -2.35767768      -0.73793707       0.51120001
H       -1.57541702      -0.04847533      -1.03261220
H       -0.26253459      -2.05170012       0.68206568
11
Frame=3 idx=001451 GeodesicLength=0.14351937856506908 rxn_smarts="[O:1]([C@@:2]1([H:8])[C:3]([H:9])([H:10])[N:4]([H:11])[C:5]1=[O:6])[H:7]>>[O:1]([C:2](=[C:5]([N:4]([C+:3]([H:9])[H:10])[H:11])[O-:6])[H:8])[H:7]"
O        1.16931695       1.94934050      -0.24175213
C        0.42811792       0.94775895       0.25033542
C       -1.45731740      -0.50341246      -0.06849494
N       -0.32817646      -1.16236474       0.21227235
C        0.80744060      -0.38634634      -0.05508187
O        1.84561659      -0.77156680      -0.58950448
H        1.86934500       1.54653350      -0.77735408
H       -0.14708496       1.20236338       1.12851861
H       -2.34691935      -0.71423139       0.51570049
H       -1.57082334      -0.04365873      -1.03662288
H       -0.26951553      -2.06441587       0.66198351
11
Frame=4 idx=001451 GeodesicLength=0.19142395315867974 rxn_smarts="[O:1]([C@@:2]1([H:8])[C:3]([H:9])([H:10])[N:4]([H:11])[C:5]1=[O:6])[H:7]>>[O:1]([C:2](=[C:5]([N:4]([C+:3]([H:9])[H:10])[H:11])[O-:6])[H:8])[H:7]"
O        1.13165461       1.94822005      -0.27375044
C        0.41619887       0.94001981       0.24867774
C       -1.44720486      -0.48684792      -0.06592623
N       -0.32584549      -1.16923439       0.20181430
C        0.81541848      -0.39413314      -0.04267785
O        1.85848696      -0.77933513      -0.56629568
H        1.86268209       1.55167265      -0.77050424
H       -0.13143191       1.19760935       1.14423070
H       -2.33586295      -0.69189002       0.52208383
H       -1.56850103      -0.03954372      -1.03960705
H       -0.27559477      -2.07653755       0.64195492
11
Frame=5 idx=001451 GeodesicLength=0.23884700411879578 rxn_smarts="[O:1]([C@@:2]1([H:8])[C:3]([H:9])([H:10])[N:4]([H:11])[C:5]1=[O:6])[H:7]>>[O:1]([C:2](=[C:5]([N:4]([C+:3]([H:9])[H:10])[H:11])[O-:6])[H:8])[H:7]"
O        1.09672871       1.94501426      -0.30347251
C        0.40465306       0.93234394       0.24700260
C       -1.43709836      -0.47109276      -0.06333936
N       -0.32350952      -1.17542326       0.19154585
C        0.82293496      -0.40144469      -0.03012421
O        1.87054106      -0.78669253      -0.54284967
H        1.85487627       1.55706310      -0.76408892
H       -0.11659464       1.19445143       1.15736126
H       -2.32436032      -0.67073504       0.52862782
H       -1.56688499      -0.03545207      -1.04165757
H       -0.28128623      -2.08803238       0.62099473
11
Frame=6 idx=001451 GeodesicLength=0.2865394313977536 rxn_smarts="[O:1]([C@@:2]1([H:8])[C:3]([H:9])([H:10])[N:4]([H:11])[C:5]1=[O:6])[H:7]>>[O:1]([C:2](=[C:5]([N:4]([C+:3]([H:9])[H:10])[H:11])[O-:6])[H:8])[H:7]"
O        1.06408740       1.94063863      -0.33174811
C        0.39330771       0.92493797       0.24517671
C       -1.42724759      -0.45612862      -0.06069920
N       -0.32123201      -1.18147543       0.18120287
C        0.83005867      -0.40856763      -0.01780685
O        1.88246854      -0.79415107      -0.51907221
H        1.84694784       1.56321829      -0.75781473
H       -0.10278551       1.19280486       1.16852944
H       -2.31280480      -0.65060255       0.53584295
H       -1.56610020      -0.03107147      -1.04302662
H       -0.28670004      -2.09960298       0.59941575
11
Frame=7 idx=001451 GeodesicLength=0.33459730257351056 rxn_smarts="[O:1]([C@@:2]1([H:8])[C:3]([H:9])([H:10])[N:4]([H:11])[C:5]1=[O:6])[H:7]>>[O:1]([C:2](=[C:5]([N:4]([C+:3]([H:9])[H:10])[H:11])[O-:6])[H:8])[H:7]"
O        1.03263725       1.93469484      -0.36013724
C        0.38200717       0.91762895       0.24279889
C       -1.41766267      -0.44186054      -0.05782605
N       -0.31896999      -1.18719161       0.17064707
C        0.83664395      -0.41543091      -0.00586270
O        1.89418262      -0.80159985      -0.49450562
H        1.83977515       1.57011367      -0.74983864
H       -0.08957124       1.19250615       1.17754248
H       -2.30080443      -0.63122242       0.54419416
H       -1.56656442      -0.02652340      -1.04349357
H       -0.29167338      -2.11111488       0.57648121
11
Frame=8 idx=001451 GeodesicLength=0.3823438829060454 rxn_smarts="[O:1]([C@@:2]1([H:8])[C:3]([H:9])([H:10])[N:4]([H:11])[C:5]1=[O:6])[H:7]>>[O:1]([C:2](=[C:5]([N:4]([C+:3]([H:9])[H:10])[H:11])[O-:6])[H:8])[H:7]"
O        1.00332977       1.92758630      -0.38683986
C        0.37115229       0.91045434       0.24072843
C       -1.40807204      -0.42816024      -0.05492715
N       -0.31671448      -1.19243615       0.16002510
C        0.84289456      -0.42194657       0.00649968
O        1.90548416      -0.80880355      -0.46878656
H        1.83121946       1.57680299      -0.74341405
H       -0.07692436       1.19340213       1.18512597
H       -2.28844727      -0.61289082       0.55264123
H       -1.56742306      -0.02169557      -1.04316430
H       -0.29649902      -2.12231287       0.55211151
11
Frame=9 idx=001451 GeodesicLength=0.43036723958717643 rxn_smarts="[O:1]([C@@:2]1([H:8])[C:3]([H:9])([H:10])[N:4]([H:11])[C:5]1=[O:6])[H:7]>>[O:1]([C:2](=[C:5]([N:4]([C+:3]([H:9])[H:10])[H:11])[O-:6])[H:8])[H:7]"
O        0.97574322       1.91959591      -0.41210086
C        0.36065939       0.90338060       0.23903827
C       -1.39856701      -0.41490064      -0.05208111
N       -0.31440657      -1.19743767       0.14906275
C        0.84890687      -0.42831931       0.01915994
O        1.91687923      -0.81605800      -0.44168182
H        1.82144680       1.58347535      -0.73887102
H       -0.06495758       1.19513511       1.19172149
H       -2.27590901      -0.59540585       0.56131132
H       -1.56870209      -0.01610538      -1.04223292
H       -0.30109326      -2.13336012       0.52667395
11
Frame=10 idx=001451 GeodesicLength=0.4785651688414321 rxn_smarts="[O:1]([C@@:2]1([H:8])[C:3]([H:9])([H:10])[N:4]([H:11])[C:5]1=[O:6])[H:7]>>[O:1]([C:2](=[C:5]([N:4]([C+:3]([H:9])[H:10])[H:11])[O-:6])[H:8])[H:7]"
O        0.94945570       1.91070648      -0.43673442
C        0.35050317       0.89647609       0.23757972
C       -1.38915999      -0.40207657      -0.04907207
N       -0.31205913      -1.20211354       0.13780954
C        0.85463619      -0.43448206       0.03227862
O        1.92824594      -0.82325537      -0.41287446
H        1.81099559       1.58993584      -0.73550806
H       -0.05353758       1.19795953       1.19722882
H       -2.26307337      -0.57879915       0.57050478
H       -1.57052112      -0.00993120      -1.04048231
H       -0.30548540      -2.14442005       0.49926984
11
Frame=11 idx=001451 GeodesicLength=0.5268762641700575 rxn_smarts="[O:1]([C@@:2]1([H:8])[C:3]([H:9])([H:10])[N:4]([H:11])[C:5]1=[O:6])[H:7]>>[O:1]([C:2](=[C:5]([N:4]([C+:3]([H:9])[H:10])[H:11])[O-:6])[H:8])[H:7]"
O        0.92446842       1.90096257      -0.46072322
C        0.34062713       0.88973385       0.23625195
C       -1.37988731      -0.38969329      -0.04590394
N       -0.30965642      -1.20644500       0.12614266
C        0.86003751      -0.44042282       0.04574966
O        1.93948044      -0.83039217      -0.38244129
H        1.80004799       1.59612786      -0.73316414
H       -0.04262373       1.20174084       1.20166039
H       -2.24993468      -0.56315982       0.58020805
H       -1.57297957      -0.00320556      -1.03791197
H       -0.30957979      -2.15524646       0.47013186
11
Frame=12 idx=001451 GeodesicLength=0.5753272277502381 rxn_smarts="[O:1]([C@@:2]1([H:8])[C:3]([H:9])([H:10])[N:4]([H:11])[C:5]1=[O:6])[H:7]>>[O:1]([C:2](=[C:5]([N:4]([C+:3]([H:9])[H:10])[H:11])[O-:6])[H:8])[H:7]"
O        0.90065148       1.89041376      -0.48432172
C        0.33101151       0.88319671       0.23503804
C       -1.37075320      -0.37771998      -0.04247581
N       -0.30717479      -1.21041194       0.11405096
C        0.86511232      -0.44613747       0.05973694
O        1.95055609      -0.83744664      -0.35013383
H        1.78874549       1.60188007      -0.73185138
H       -0.03223309       1.20657389       1.20504628
H       -2.23646599      -0.54852543       0.59055559
H       -1.57609769       0.00408475      -1.03443256
H       -0.31335212      -2.16590770       0.43878749
11
Frame=13 idx=001451 GeodesicLength=0.6238484528776457 rxn_smarts="[O:1]([C@@:2]1([H:8])[C:3]([H:9])([H:10])[N:4]([H:11])[C:5]1=[O:6])[H:7]>>[O:1]([C:2](=[C:5]([N:4]([C+:3]([H:9])[H:10])[H:11])[O-:6])[H:8])[H:7]"
O        0.87804880       1.87912457      -0.50747082
C        0.32161684       0.87686848       0.23387186
C       -1.36178561      -0.36617070      -0.03880006
N       -0.30460390      -1.21400558       0.10140274
C        0.86981489      -0.45162336       0.07415584
O        1.96135807      -0.84442451      -0.31600878
H        1.77720138       1.60713743      -0.73150470
H       -0.02232001       1.21235667       1.20741109
H       -2.22266517      -0.53499996       0.60151381
H       -1.57994759       0.01191157      -1.03003870
H       -0.31671772      -2.17617462       0.40546771
11
Frame=14 idx=001451 GeodesicLength=0.6723724310512907 rxn_smarts="[O:1]([C@@:2]1([H:8])[C:3]([H:9])([H:10])[N:4]([H:11])[C:5]1=[O:6])[H:7]>>[O:1]([C:2](=[C:5]([N:4]([C+:3]([H:9])[H:10])[H:11])[O-:6])[H:8])[H:7]"
O        0.85673743       1.86714171      -0.53029576
C        0.31236595       0.87077864       0.23258335
C       -1.35303455      -0.35508006      -0.03481526
N       -0.30193143      -1.21719989       0.08821065
C        0.87409606      -0.45686169       0.08895345
O        1.97170009      -0.85132945      -0.28027741
H        1.76577576       1.61191962      -0.73171179
H       -0.01293735       1.21910922       1.20863534
H       -2.20854274      -0.52268912       0.61317382
H       -1.58464181       0.02013388      -1.02468924
H       -0.31958742      -2.18592287       0.37023286
11
Frame=15 idx=001451 GeodesicLength=0.7208189165634288 rxn_smarts="[O:1]([C@@:2]1([H:8])[C:3]([H:9])([H:10])[N:4]([H:11])[C:5]1=[O:6])[H:7]>>[O:1]([C:2](=[C:5]([N:4]([C+:3]([H:9])[H:10])[H:11])[O-:6])[H:8])[H:7]"
O        0.83678181       1.85455090      -0.55278269
C        0.30322319       0.86493984       0.23110370
C       -1.34453491      -0.34446489      -0.03051228
N       -0.29914907      -1.21998288       0.07438586
C        0.87792012      -0.46184984       0.10407767
O        1.98148005      -0.85817036      -0.24297975
H        1.75460533       1.61618741      -0.73240108
H       -0.00407228       1.22677673       1.20870768
H       -2.19410636      -0.51168709       0.62553893
H       -1.59025768       0.02870466      -1.01835263
H       -0.32189019      -2.19500450       0.33321458
11
Frame=16 idx=001451 GeodesicLength=0.7691146042770053 rxn_smarts="[O:1]([C@@:2]1([H:8])[C:3]([H:9])([H:10])[N:4]([H:11])[C:5]1=[O:6])[H:7]>>[O:1]([C:2](=[C:5]([N:4]([C+:3]([H:9])[H:10])[H:11])[O-:6])[H:8])[H:7]"
O        0.81824978       1.84139453      -0.57499019
C        0.29414015       0.85935711       0.22932047
C       -1.33631431      -0.33435312      -0.02587643
N       -0.29624960      -1.22232943       0.05991755
C        0.88124077      -0.46658269       0.11945810
O        1.99052468      -0.86496551      -0.20431890
H        1.74390002       1.61998903      -0.73327788
H        0.00427188       1.23532042       1.20756051
H       -2.17934661      -0.50205268       0.63862758
H       -1.59686124       0.03749925      -1.01101145
H       -0.32355552      -2.20327690       0.29459065
