14
Frame=0 idx=008249 GeodesicLength=0.0 rxn_smarts="[C:1]([C@:2]12[N:3]([H:11])[C@@:4]1([H:12])[C:5]([H:13])([H:14])[C:6]2=[O:7])([H:8])([H:9])[H:10]>>[C:1]([C@@:2]1([H:12])[N:3]([H:11])[C:4][C:5]([H:13])([H:14])[C:6]1=[O:7])([H:8])([H:9])[H:10]"
C       -1.93761101      -0.11444868       0.16658520
C       -0.44386330       0.02484642       0.19914232
N        0.32969499      -0.90582219       1.04760775
C        1.18173520       0.24953316       1.15453955
C        1.79844785       0.34038943      -0.24819069
C        0.45303672       0.27544842      -0.99050436
O        0.17280149       0.51577665      -2.12624026
H       -2.37298192       0.66069105      -0.46368361
H       -2.35056845      -0.04174593       1.17123894
H       -2.20358444      -1.08924504      -0.24455824
H        0.72322192      -1.62872236       0.44360636
H       -0.13377294       1.00698552       0.80611367
H        2.42589930      -0.53682598      -0.42607083
H        2.35754458       1.24313956      -0.48958586
14
Frame=1 idx=008249 GeodesicLength=0.06570337562495007 rxn_smarts="[C:1]([C@:2]12[N:3]([H:11])[C@@:4]1([H:12])[C:5]([H:13])([H:14])[C:6]2=[O:7])([H:8])([H:9])[H:10]>>[C:1]([C@@:2]1([H:12])[N:3]([H:11])[C:4][C:5]([H:13])([H:14])[C:6]1=[O:7])([H:8])([H:9])[H:10]"
C       -1.93512548      -0.11633209       0.16230786
C       -0.44260791       0.03293118       0.20285939
N        0.32779368      -0.89789736       1.05166521
C        1.18621329       0.24681588       1.14855358
C        1.79900137       0.33665390      -0.25456717
C        0.45102188       0.27526183      -0.99157074
O        0.16865538       0.51881502      -2.12623767
H       -2.37273803       0.66155427      -0.46306049
H       -2.35337497      -0.05510451       1.16564156
H       -2.19381194      -1.08895062      -0.25868521
H        0.71045469      -1.64250494       0.46947558
H       -0.12971989       1.02266037       0.82649310
H        2.42940785      -0.53653454      -0.44049489
H        2.35483007       1.24263162      -0.49238011
14
Frame=2 idx=008249 GeodesicLength=0.13139442227892884 rxn_smarts="[C:1]([C@:2]12[N:3]([H:11])[C@@:4]1([H:12])[C:5]([H:13])([H:14])[C:6]2=[O:7])([H:8])([H:9])[H:10]>>[C:1]([C@@:2]1([H:12])[N:3]([H:11])[C:4][C:5]([H:13])([H:14])[C:6]1=[O:7])([H:8])([H:9])[H:10]"
C       -1.93256816      -0.11818076       0.15796086
C       -0.44134614       0.04080317       0.20628138
N        0.32591862      -0.89020683       1.05539659
C        1.19047086       0.24389015       1.14241833
C        1.79945955       0.33298500      -0.26101499
C        0.44902532       0.27493576      -0.99284881
O        0.16455990       0.52200968      -2.12637713
H       -2.37244578       0.66237141      -0.46253292
H       -2.35584553      -0.06822407       1.15991548
H       -2.18413539      -1.08853825      -0.27260955
H        0.69740688      -1.65617884       0.49624746
H       -0.12542953       1.03795288       0.84733540
H        2.43303025      -0.53589710      -0.45510301
H        2.35189914       1.24227780      -0.49506911
14
Frame=3 idx=008249 GeodesicLength=0.1970607167305114 rxn_smarts="[C:1]([C@:2]12[N:3]([H:11])[C@@:4]1([H:12])[C:5]([H:13])([H:14])[C:6]2=[O:7])([H:8])([H:9])[H:10]>>[C:1]([C@@:2]1([H:12])[N:3]([H:11])[C:4][C:5]([H:13])([H:14])[C:6]1=[O:7])([H:8])([H:9])[H:10]"
C       -1.92994580      -0.11999227       0.15354255
C       -0.44007626       0.04845126       0.20939759
N        0.32407177      -0.88277857       1.05877226
C        1.19450970       0.24073528       1.13612953
C        1.79982788       0.32939305      -0.26753668
C        0.44705137       0.27447145      -0.99434689
O        0.16052287       0.52535106      -2.12666694
H       -2.37210172       0.66313150      -0.46212766
H       -2.35798696      -0.08105369       1.15406760
H       -2.17458133      -1.08802612      -0.28629979
H        0.68406742      -1.66971809       0.52394079
H       -0.12088763       1.05282513       0.86866914
H        2.43678289      -0.53488450      -0.46990180
H        2.34874580       1.24209452      -0.49763969
14
Frame=4 idx=008249 GeodesicLength=0.2626943011596662 rxn_smarts="[C:1]([C@:2]12[N:3]([H:11])[C@@:4]1([H:12])[C:5]([H:13])([H:14])[C:6]2=[O:7])([H:8])([H:9])[H:10]>>[C:1]([C@@:2]1([H:12])[N:3]([H:11])[C:4][C:5]([H:13])([H:14])[C:6]1=[O:7])([H:8])([H:9])[H:10]"
C       -1.92726479      -0.12176404       0.14905079
C       -0.43879621       0.05586508       0.21219847
N        0.32225636      -0.87564068       1.06176537
C        1.19833220       0.23733324       1.12968394
C        1.80011179       0.32588850      -0.27413590
C        0.44510388       0.27386961      -0.99607468
O        0.15655041       0.52882549      -2.12711901
H       -2.37170183       0.66383109      -0.46186631
H       -2.35980720      -0.09355243       1.14810714
H       -2.16517460      -1.08743096      -0.29973595
H        0.67042362      -1.68309427       0.55258041
H       -0.11607879       1.06723999       0.89052469
H        2.44068153      -0.53346886      -0.48489711
H        2.34536363       1.24209825      -0.50008185
14
Frame=5 idx=008249 GeodesicLength=0.32827882474347214 rxn_smarts="[C:1]([C@:2]12[N:3]([H:11])[C@@:4]1([H:12])[C:5]([H:13])([H:14])[C:6]2=[O:7])([H:8])([H:9])[H:10]>>[C:1]([C@@:2]1([H:12])[N:3]([H:11])[C:4][C:5]([H:13])([H:14])[C:6]1=[O:7])([H:8])([H:9])[H:10]"
C       -1.92453399      -0.12349434       0.14448519
C       -0.43750474       0.06303494       0.21467597
N        0.32047494      -0.86881890       1.06434858
C        1.20194055       0.23366813       1.12307376
C        1.80032027       0.32248222      -0.28081838
C        0.44318953       0.27313184      -0.99803949
O        0.15265319       0.53241210      -2.12774181
H       -2.37124360       0.66447086      -0.46176076
H       -2.36132085      -0.10569276       1.14204410
H       -2.15593971      -1.08676458      -0.31290535
H        0.65645623      -1.69627002       0.58219317
H       -0.11098819       1.08115770       0.91292993
H        2.44474533      -0.53162042      -0.50009435
H        2.34175105       1.24230322      -0.50239058
14
Frame=6 idx=008249 GeodesicLength=0.393799191068829 rxn_smarts="[C:1]([C@:2]12[N:3]([H:11])[C@@:4]1([H:12])[C:5]([H:13])([H:14])[C:6]2=[O:7])([H:8])([H:9])[H:10]>>[C:1]([C@@:2]1([H:12])[N:3]([H:11])[C:4][C:5]([H:13])([H:14])[C:6]1=[O:7])([H:8])([H:9])[H:10]"
C       -1.92175280      -0.12517881       0.13983931
C       -0.43619649       0.06994672       0.21681809
N        0.31873364      -0.86234147       1.06648861
C        1.20533819       0.22971987       1.11629460
C        1.80045089       0.31918497      -0.28758520
C        0.44130632       0.27225396      -1.00024988
O        0.14882619       0.53608851      -2.12854425
H       -2.37071313       0.66504813      -0.46183444
H       -2.36252198      -0.11742841       1.13588298
H       -2.14690026      -1.08603944      -0.32579422
H        0.64215326      -1.70920069       0.61280878
H       -0.10559202       1.09452717       0.93592003
H        2.44897934      -0.52930395      -0.51549562
H        2.33788885       1.24272343      -0.50454879
14
Frame=7 idx=008249 GeodesicLength=0.459271448771533 rxn_smarts="[C:1]([C@:2]12[N:3]([H:11])[C@@:4]1([H:12])[C:5]([H:13])([H:14])[C:6]2=[O:7])([H:8])([H:9])[H:10]>>[C:1]([C@@:2]1([H:12])[N:3]([H:11])[C:4][C:5]([H:13])([H:14])[C:6]1=[O:7])([H:8])([H:9])[H:10]"
C       -1.91893388      -0.12681868       0.13510969
C       -0.43487125       0.07659905       0.21862353
N        0.31703791      -0.85622836       1.06817897
C        1.20853487       0.22548265       1.10934206
C        1.80051906       0.31600163      -0.29445168
C        0.43946110       0.27123538      -1.00272132
O        0.14507562       0.53985427      -2.12954536
H       -2.37011899       0.66558299      -0.46208477
H       -2.36343982      -0.12877513       1.12963599
H       -2.13806708      -1.08526426      -0.33843033
H        0.62748774      -1.72185227       0.64450064
H       -0.09987522       1.10731967       0.95953204
H        2.45340749      -0.52650621      -0.53111829
H        2.33378245       1.24336929      -0.50657115
14
Frame=8 idx=008249 GeodesicLength=0.5246741308097724 rxn_smarts="[C:1]([C@:2]12[N:3]([H:11])[C@@:4]1([H:12])[C:5]([H:13])([H:14])[C:6]2=[O:7])([H:8])([H:9])[H:10]>>[C:1]([C@@:2]1([H:12])[N:3]([H:11])[C:4][C:5]([H:13])([H:14])[C:6]1=[O:7])([H:8])([H:9])[H:10]"
C       -1.91607565      -0.12841815       0.13028608
C       -0.43352324       0.08298318       0.22008200
N        0.31538607      -0.85049059       1.06938911
C        1.21153813       0.22094706       1.10219106
C        1.80052519       0.31293378      -0.30142984
C        0.43765301       0.27006340      -1.00545790
O        0.14139487       0.54371296      -2.13073142
H       -2.36944669       0.66608484      -0.46249887
H       -2.36407736      -0.13975207       1.12329364
H       -2.12945216      -1.08443563      -0.35084582
H        0.61243073      -1.73414374       0.67736444
H       -0.09380319       1.11947967       0.98379266
H        2.45802420      -0.52320026      -0.54697355
H        2.32942609       1.24423554      -0.50846159
14
Frame=9 idx=008249 GeodesicLength=0.5900131630232898 rxn_smarts="[C:1]([C@:2]12[N:3]([H:11])[C@@:4]1([H:12])[C:5]([H:13])([H:14])[C:6]2=[O:7])([H:8])([H:9])[H:10]>>[C:1]([C@@:2]1([H:12])[N:3]([H:11])[C:4][C:5]([H:13])([H:14])[C:6]1=[O:7])([H:8])([H:9])[H:10]"
C       -1.91317640      -0.12997933       0.12536216
C       -0.43214654       0.08910193       0.22119992
N        0.31378630      -0.84514130       1.07011253
C        1.21436066       0.21610759       1.09483559
C        1.80047483       0.30998920      -0.30853362
C        0.43588174       0.26874698      -1.00846495
O        0.13778276       0.54762662      -2.13211559
H       -2.36868527       0.66657318      -0.46306567
H       -2.36444709      -0.15039961       1.11685563
H       -2.12104729      -1.08354649      -0.36309193
H        0.59691706      -1.74601242       0.71147387
H       -0.08734415       1.13096773       1.00875213
H        2.46283046      -0.51936486      -0.56308407
H        2.32481294       1.24533077      -0.51023601
14
Frame=10 idx=008249 GeodesicLength=0.6553462795170657 rxn_smarts="[C:1]([C@:2]12[N:3]([H:11])[C@@:4]1([H:12])[C:5]([H:13])([H:14])[C:6]2=[O:7])([H:8])([H:9])[H:10]>>[C:1]([C@@:2]1([H:12])[N:3]([H:11])[C:4][C:5]([H:13])([H:14])[C:6]1=[O:7])([H:8])([H:9])[H:10]"
C       -1.91024566      -0.13150091       0.12032258
C       -0.43073916       0.09495084       0.22197043
N        0.31225874      -0.84021660       1.07034454
C        1.21701873       0.21095224       1.08728560
C        1.80037646       0.30716614      -0.31577913
C        0.43414294       0.26727932      -1.01177633
O        0.13421930       0.55161901      -2.13374449
H       -2.36785291       0.66708486      -0.46379011
H       -2.36456073      -0.16073614       1.11033288
H       -2.11286041      -1.08260624      -0.37522540
H        0.58094034      -1.75740697       0.74696298
H       -0.08047599       1.14174786       1.03447037
H        2.46784610      -0.51499969      -0.57947255
H        2.31993227       1.24666627      -0.51190137
14
Frame=11 idx=008249 GeodesicLength=0.7205429869532949 rxn_smarts="[C:1]([C@:2]12[N:3]([H:11])[C@@:4]1([H:12])[C:5]([H:13])([H:14])[C:6]2=[O:7])([H:8])([H:9])[H:10]>>[C:1]([C@@:2]1([H:12])[N:3]([H:11])[C:4][C:5]([H:13])([H:14])[C:6]1=[O:7])([H:8])([H:9])[H:10]"
C       -1.90728024      -0.13299797       0.11516244
C       -0.42929496       0.10050941       0.22237092
N        0.31078142      -0.83570840       1.06999728
C        1.21950898       0.20546188       1.07945752
C        1.80023381       0.30446523      -0.32318452
C        0.43244862       0.26564573      -1.01536533
O        0.13072534       0.55569509      -2.13552537
H       -2.36691865       0.66759034      -0.46462318
H       -2.36442334      -0.17080207       1.10368504
H       -2.10491050      -1.08158193      -0.38725257
H        0.56442866      -1.76813517       0.78394919
H       -0.07315083       1.15169475       1.06093766
H        2.47305590      -0.51004108      -0.59614874
H        2.31479579       1.24820420      -0.51346034
14
Frame=12 idx=008249 GeodesicLength=0.7857293605186695 rxn_smarts="[C:1]([C@:2]12[N:3]([H:11])[C@@:4]1([H:12])[C:5]([H:13])([H:14])[C:6]2=[O:7])([H:8])([H:9])[H:10]>>[C:1]([C@@:2]1([H:12])[N:3]([H:11])[C:4][C:5]([H:13])([H:14])[C:6]1=[O:7])([H:8])([H:9])[H:10]"
C       -1.90427803      -0.13446826       0.10986286
C       -0.42780629       0.10578349       0.22241032
N        0.30939371      -0.83167570       1.06909871
C        1.22185685       0.19962446       1.07139670
C        1.80005150       0.30189270      -0.33076779
C        0.43078744       0.26386735      -1.01928189
O        0.12727113       0.55984972      -2.13756245
H       -2.36589717       0.66814582      -0.46558740
H       -2.36403265      -0.18063671       1.09693676
H       -2.09717823      -1.08049563      -0.39926090
H        0.54731899      -1.77816111       0.82257666
H       -0.06533603       1.16079363       1.08825760
H        2.47846947      -0.50450460      -0.61315272
H        2.30937931       1.24998484      -0.51492646
14
Frame=13 idx=008249 GeodesicLength=0.8508805732291851 rxn_smarts="[C:1]([C@:2]12[N:3]([H:11])[C@@:4]1([H:12])[C:5]([H:13])([H:14])[C:6]2=[O:7])([H:8])([H:9])[H:10]>>[C:1]([C@@:2]1([H:12])[N:3]([H:11])[C:4][C:5]([H:13])([H:14])[C:6]1=[O:7])([H:8])([H:9])[H:10]"
C       -1.90124116      -0.13592485       0.10440935
C       -0.42626699       0.11076074       0.22207619
N        0.30809840      -0.82814100       1.06759272
C        1.22407644       0.19341803       1.06305617
C        1.79983977       0.29944760      -0.33855606
C        0.42916356       0.26193966      -1.02353046
O        0.12385555       0.56409619      -2.13983117
H       -2.36478112       0.66876375      -0.46664003
H       -2.36339907      -0.19031108       1.09006184
H       -2.08966898      -1.07932335      -0.41131854
H        0.52953063      -1.78730840       0.86304192
H       -0.05698221       1.16894037       1.11647217
H        2.48408897      -0.49835475      -0.63052266
H        2.30368620       1.25199709      -0.51631145
14
Frame=14 idx=008249 GeodesicLength=0.9160146345697346 rxn_smarts="[C:1]([C@:2]12[N:3]([H:11])[C@@:4]1([H:12])[C:5]([H:13])([H:14])[C:6]2=[O:7])([H:8])([H:9])[H:10]>>[C:1]([C@@:2]1([H:12])[N:3]([H:11])[C:4][C:5]([H:13])([H:14])[C:6]1=[O:7])([H:8])([H:9])[H:10]"
C       -1.89816315      -0.13737938       0.09877556
C       -0.42466792       0.11542822       0.22135571
N        0.30691491      -0.82514765       1.06543270
C        1.22618666       0.18681412       1.05441114
C        1.79959780       0.29712525      -0.34657628
C        0.42756733       0.25986972      -1.02813353
O        0.12045309       0.56847163      -2.14234283
H       -2.36356583       0.66947201      -0.46775430
H       -2.36251301      -0.19990498       1.08303468
H       -2.08237858      -1.07804588      -0.42352084
H        0.51099531      -1.79538756       0.90559667
H       -0.04803305       1.17602921       1.14564824
H        2.48989855      -0.49157562      -0.64830142
H        2.29770788       1.25423091      -0.51762550
14
Frame=15 idx=008249 GeodesicLength=0.9811349417522687 rxn_smarts="[C:1]([C@:2]12[N:3]([H:11])[C@@:4]1([H:12])[C:5]([H:13])([H:14])[C:6]2=[O:7])([H:8])([H:9])[H:10]>>[C:1]([C@@:2]1([H:12])[N:3]([H:11])[C:4][C:5]([H:13])([H:14])[C:6]1=[O:7])([H:8])([H:9])[H:10]"
C       -1.89503104      -0.13885469       0.09294756
C       -0.42299553       0.11976932       0.22023939
N        0.30586379      -0.82274422       1.06255648
C        1.22820198       0.17977748       1.04542084
C        1.79933545       0.29492687      -0.35486637
C        0.42600797       0.25767410      -1.03310964
O        0.11707006       0.57301298      -2.14509632
H       -2.36223799       0.67027415      -0.46888941
H       -2.36136768      -0.20951976       1.07583781
H       -2.07528251      -1.07664823      -0.43594601
H        0.49152710      -1.80215401       0.95049926
H       -0.03842987       1.18193589       1.17584422
H        2.49589517      -0.48413225      -0.66655704
H        2.29144309       1.25668237      -0.51888077
14
Frame=16 idx=008249 GeodesicLength=1.0462192957358527 rxn_smarts="[C:1]([C@:2]12[N:3]([H:11])[C@@:4]1([H:12])[C:5]([H:13])([H:14])[C:6]2=[O:7])([H:8])([H:9])[H:10]>>[C:1]([C@@:2]1([H:12])[N:3]([H:11])[C:4][C:5]([H:13])([H:14])[C:6]1=[O:7])([H:8])([H:9])[H:10]"
C       -1.89184936      -0.14036756       0.08689986
C       -0.42124235       0.12373366       0.21868896
N        0.30496498      -0.82103138       1.05884685
C        1.23012935       0.17224299       1.03603269
C        1.79905800       0.29285284      -0.36346147
C        0.42448716       0.25536164      -1.03849054
O        0.11369956       0.57780487      -2.14808582
H       -2.36079081       0.67117988      -0.47002576
H       -2.35995291      -0.21919026       1.06844692
H       -2.06841523      -1.07512235      -0.44864280
H        0.47106124      -1.80729601       0.99807322
H       -0.02812107       1.18647209       1.20711565
H        2.50208106      -0.47598559      -0.68532977
H        2.28489039       1.25934518      -0.52006802
