13
Frame=0 idx=004548 GeodesicLength=0.0 rxn_smarts="[O:1]=[C:2]([C:3]([N:4]1[C:5]([H:10])([H:11])[C:6]1([H:12])[H:13])([H:8])[H:9])[H:7]>>[N:4]1=[C:6]([H:12])[C:5]1([H:10])[H:11].[O:1]([C:2](=[C:3]([H:8])[H:9])[H:7])[H:13]"
O       -0.89258730       1.45711273      -0.53371593
C       -1.34389305       0.58772293       0.32033029
C       -0.60341788       0.27450866       1.43058223
N        0.94450720      -0.52424311       0.42204684
C        0.62543302      -1.11899647      -0.90322452
C        1.25021599       0.17100804      -0.66073863
H       -2.18172347      -0.03701075       0.00317654
H       -0.93294171      -0.51650031       2.09081918
H        0.07215839       1.00584776       1.84939488
H       -0.41651878      -1.12131492      -1.21871467
H        1.18061901      -2.01986571      -1.14225069
H        2.15352637       0.72967079      -0.86734848
H        0.14462220       1.11206035      -0.79035705
13
Frame=1 idx=004548 GeodesicLength=0.1641307183691315 rxn_smarts="[O:1]=[C:2]([C:3]([N:4]1[C:5]([H:10])([H:11])[C:6]1([H:12])[H:13])([H:8])[H:9])[H:7]>>[N:4]1=[C:6]([H:12])[C:5]1([H:10])[H:11].[O:1]([C:2](=[C:3]([H:8])[H:9])[H:7])[H:13]"
O       -0.90418824       1.50464275      -0.49259581
C       -1.36228292       0.61782410       0.33634925
C       -0.61314512       0.25381448       1.42697478
N        0.96008132      -0.48704283       0.40829957
C        0.65212988      -1.13630011      -0.89226255
C        1.25855668       0.17138157      -0.69886850
H       -2.21908820       0.02826590       0.00208806
H       -0.96771191      -0.54678909       2.06306250
H        0.06249713       0.96091199       1.88591412
H       -0.39211831      -1.17251485      -1.19697249
H        1.22547257      -2.03477053      -1.09511198
H        2.15540656       0.72232023      -0.94924494
H        0.14439057       1.11825638      -0.79763201
13
Frame=2 idx=004548 GeodesicLength=0.3277561817741135 rxn_smarts="[O:1]=[C:2]([C:3]([N:4]1[C:5]([H:10])([H:11])[C:6]1([H:12])[H:13])([H:8])[H:9])[H:7]>>[N:4]1=[C:6]([H:12])[C:5]1([H:10])[H:11].[O:1]([C:2](=[C:3]([H:8])[H:9])[H:7])[H:13]"
O       -0.91333000       1.55611661      -0.44668613
C       -1.38057020       0.65131129       0.35410084
C       -0.62371755       0.23215753       1.42139316
N        0.97459134      -0.44785342       0.39270917
C        0.68071870      -1.15463190      -0.87931874
C        1.26447239       0.17077536      -0.73920635
H       -2.25516107       0.09907099       0.00173428
H       -1.00371335      -0.57868771       2.03014007
H        0.05228380       0.91020638       1.92225831
H       -0.36489920      -1.22820517      -1.17141350
H        1.27486236      -2.04748195      -1.04400331
H        2.15248851       0.71385536      -1.03392902
H        0.14197428       1.12336662      -0.80777880
13
Frame=3 idx=004548 GeodesicLength=0.49080464009134817 rxn_smarts="[O:1]=[C:2]([C:3]([N:4]1[C:5]([H:10])([H:11])[C:6]1([H:12])[H:13])([H:8])[H:9])[H:7]>>[N:4]1=[C:6]([H:12])[C:5]1([H:10])[H:11].[O:1]([C:2](=[C:3]([H:8])[H:9])[H:7])[H:13]"
O       -0.91943938       1.61121173      -0.39566726
C       -1.39862732       0.68859733       0.37408323
C       -0.63529707       0.20973016       1.41354910
N        0.98751822      -0.40700331       0.37503233
C        0.71154535      -1.17393726      -0.86427039
C        1.26743175       0.16889317      -0.78164922
H       -2.28962478       0.17593625       0.00259651
H       -1.04135242      -0.61165907       1.99153837
H        0.04165895       0.85300319       1.95765778
H       -0.33408729      -1.28866944      -1.14175693
H        1.32947278      -2.05716393      -0.98904590
H        2.14417325       0.70399511      -1.12103583
H        0.13662797       1.12706608      -0.82103179
13
Frame=4 idx=004548 GeodesicLength=0.6532751880665886 rxn_smarts="[O:1]=[C:2]([C:3]([N:4]1[C:5]([H:10])([H:11])[C:6]1([H:12])[H:13])([H:8])[H:9])[H:7]>>[N:4]1=[C:6]([H:12])[C:5]1([H:10])[H:11].[O:1]([C:2](=[C:3]([H:8])[H:9])[H:7])[H:13]"
O       -0.92190468       1.66937671      -0.33941206
C       -1.41627372       0.73007992       0.39688036
C       -0.64811898       0.18676284       1.40310923
N        0.99829970      -0.36499587       0.35503319
C        0.74505281      -1.19414356      -0.84704387
C        1.26689109       0.16535292      -0.82604025
H       -2.32228861       0.25960714       0.00544493
H       -1.08120089      -0.64499105       1.94670456
H        0.03066433       0.78857492       1.99113426
H       -0.29870709      -1.35424619      -1.10767876
H        1.39011856      -2.06281610      -0.93054327
H        2.12983367       0.69243624      -1.21016717
H        0.12763381       1.12900209      -0.83742115
13
Frame=5 idx=004548 GeodesicLength=0.8151574487005608 rxn_smarts="[O:1]=[C:2]([C:3]([N:4]1[C:5]([H:10])([H:11])[C:6]1([H:12])[H:13])([H:8])[H:9])[H:7]>>[N:4]1=[C:6]([H:12])[C:5]1([H:10])[H:11].[O:1]([C:2](=[C:3]([H:8])[H:9])[H:7])[H:13]"
O       -0.92018389       1.72979573      -0.27806476
C       -1.43326135       0.77599860       0.42309214
C       -0.66251173       0.16349991       1.38967050
N        1.00636423      -0.32253940       0.33251865
C        0.78179680      -1.21510950      -0.82763162
C        1.26236780       0.15968791      -0.87213545
H       -2.35315202       0.35097133       0.01150651
H       -1.12401615      -0.67769768       1.89518494
H        0.01918308       0.71626304       2.02138198
H       -0.25750860      -1.42515526      -1.06893530
H        1.45760817      -2.06329332      -0.86900875
H        2.10892262       0.67878665      -1.30085034
H        0.11439105       1.12879200      -0.85672850
13
Frame=6 idx=004548 GeodesicLength=0.9764389909642242 rxn_smarts="[O:1]=[C:2]([C:3]([N:4]1[C:5]([H:10])([H:11])[C:6]1([H:12])[H:13])([H:8])[H:9])[H:7]>>[N:4]1=[C:6]([H:12])[C:5]1([H:10])[H:11].[O:1]([C:2](=[C:3]([H:8])[H:9])[H:7])[H:13]"
O       -0.91376734       1.79156075      -0.21192168
C       -1.44923820       0.82644074       0.45330080
C       -0.67893035       0.14018075       1.37274359
N        1.01119519      -0.28050066       0.30736893
C        0.82243454      -1.23663617      -0.80604114
C        1.25344679       0.15131776      -0.91964840
H       -2.38229418       0.45104542       0.02241023
H       -1.17075489      -0.70860734       1.83654829
H        0.00680027       0.63550569       2.04683796
H       -0.20898034      -1.50153872      -1.02518593
H        1.53272784      -2.05730772      -0.80518304
H        2.08093628       0.66256845      -1.39262886
H        0.09642440       1.12597104      -0.87860075
13
Frame=7 idx=004548 GeodesicLength=1.1370706957044354 rxn_smarts="[O:1]=[C:2]([C:3]([N:4]1[C:5]([H:10])([H:11])[C:6]1([H:12])[H:13])([H:8])[H:9])[H:7]>>[N:4]1=[C:6]([H:12])[C:5]1([H:10])[H:11].[O:1]([C:2](=[C:3]([H:8])[H:9])[H:7])[H:13]"
O       -0.90212669       1.85376767      -0.14130234
C       -1.46369943       0.88131285       0.48803109
C       -0.69797707       0.11702326       1.35172944
N        1.01237714      -0.23983063       0.27954370
C        0.86770474      -1.25843317      -0.78223284
C        1.23976423       0.13952144      -0.96828927
H       -2.40971785       0.56089954       0.04011911
H       -1.22256891      -0.73642981       1.77030193
H       -0.00730716       0.54581936       2.06573548
H       -0.15134489      -1.58335935      -0.97586541
H        1.61617751      -2.04341194      -0.73996781
H        2.04536036       0.64316238      -1.48515484
H        0.07335800       1.11995838      -0.90264822
13
Frame=8 idx=004548 GeodesicLength=1.296879504435828 rxn_smarts="[O:1]=[C:2]([C:3]([N:4]1[C:5]([H:10])([H:11])[C:6]1([H:12])[H:13])([H:8])[H:9])[H:7]>>[N:4]1=[C:6]([H:12])[C:5]1([H:10])[H:11].[O:1]([C:2](=[C:3]([H:8])[H:9])[H:7])[H:13]"
O       -0.88473963       1.91549882      -0.06636486
C       -1.47594557       0.94019705       0.52773796
C       -0.72035382       0.09421449       1.32596554
N        1.00956696      -0.20147030       0.24904305
C        0.91826863      -1.27997897      -0.75622074
C        1.22099441       0.12346367      -1.01781952
H       -2.43486445       0.68098366       0.06650921
H       -1.28078041      -0.75958811       1.69615457
H       -0.02436800       0.44686505       2.07611913
H       -0.08268515      -1.67009514      -0.92030994
H        1.70817300      -2.02001158      -0.67422945
H        2.00172418       0.61970046      -1.57819837
H        0.04500985       1.11022089      -0.92838657
13
Frame=9 idx=004548 GeodesicLength=1.4556047552160953 rxn_smarts="[O:1]=[C:2]([C:3]([N:4]1[C:5]([H:10])([H:11])[C:6]1([H:12])[H:13])([H:8])[H:9])[H:7]>>[N:4]1=[C:6]([H:12])[C:5]1([H:10])[H:11].[O:1]([C:2](=[C:3]([H:8])[H:9])[H:7])[H:13]"
O       -0.86105948       1.97585222       0.01306183
C       -1.48514468       1.00232781       0.57276435
C       -0.74682269       0.07215154       1.29488328
N        1.00250888      -0.16651679       0.21604671
C        0.97454061      -1.30058876      -0.72791978
C        1.19674131       0.10206710      -1.06783216
H       -2.45631906       0.81087243       0.10270246
H       -1.34649838      -0.77640339       1.61392579
H       -0.04611206       0.33890108       2.07605454
H       -0.00120656      -1.76064050      -0.85745313
H        1.80855866      -1.98533525      -0.60957581
H        1.94940108       0.59102299      -1.67141159
H        0.01141236       1.09628952      -0.95524649
13
Frame=10 idx=004548 GeodesicLength=1.612902855788995 rxn_smarts="[O:1]=[C:2]([C:3]([N:4]1[C:5]([H:10])([H:11])[C:6]1([H:12])[H:13])([H:8])[H:9])[H:7]>>[N:4]1=[C:6]([H:12])[C:5]1([H:10])[H:11].[O:1]([C:2](=[C:3]([H:8])[H:9])[H:7])[H:13]"
O       -0.83088965       2.03357058       0.09758993
C       -1.49043349       1.06587716       0.62300699
C       -0.77794799       0.05116117       1.25812602
N        0.99109503      -0.13592771       0.18077227
C        1.03637688      -1.31908765      -0.69772364
C        1.16702977       0.07435800      -1.11786630
H       -2.47197167       0.94811811       0.14867757
H       -1.42048092      -0.78472650       1.52493958
H       -0.07432402       0.22303447       2.06358608
H        0.09427364      -1.85238561      -0.78696201
H        1.91553634      -1.93794412      -0.54729785
H        1.88842830       0.55576803      -1.76424918
H       -0.02669223       1.07818407      -0.98259946
13
Frame=11 idx=004548 GeodesicLength=1.7690655989619568 rxn_smarts="[O:1]=[C:2]([C:3]([N:4]1[C:5]([H:10])([H:11])[C:6]1([H:12])[H:13])([H:8])[H:9])[H:7]>>[N:4]1=[C:6]([H:12])[C:5]1([H:10])[H:11].[O:1]([C:2](=[C:3]([H:8])[H:9])[H:7])[H:13]"
O       -0.79386053       2.08744097       0.18860020
C       -1.49114546       1.12873969       0.67801540
C       -0.81427483       0.03169606       1.21558495
N        0.97558890      -0.11017613       0.14368543
C        1.10345913      -1.33421729      -0.66545000
C        1.13196702       0.03917495      -1.16736786
H       -2.47987877       1.09046113       0.20385671
H       -1.50282188      -0.78335318       1.42953913
H       -0.11116461       0.10070294       2.03741322
H        0.20448772      -1.94207684      -0.70773323
H        2.02734884      -1.87648456      -0.48920252
H        1.81864785       0.51205098      -1.85668213
H       -0.06835338       1.05604128      -1.01025929
13
Frame=12 idx=004548 GeodesicLength=1.9234897086090106 rxn_smarts="[O:1]=[C:2]([C:3]([N:4]1[C:5]([H:10])([H:11])[C:6]1([H:12])[H:13])([H:8])[H:9])[H:7]>>[N:4]1=[C:6]([H:12])[C:5]1([H:10])[H:11].[O:1]([C:2](=[C:3]([H:8])[H:9])[H:7])[H:13]"
O       -0.74949604       2.13525868       0.28860333
C       -1.48658291       1.18780743       0.73683165
C       -0.85566959       0.01391448       1.16714985
N        0.95616457      -0.08939903       0.10497652
C        1.17429152      -1.34397405      -0.63193034
C        1.09186484      -0.00417018      -1.21562053
H       -2.47692224       1.23311963       0.26491746
H       -1.59278291      -0.77056890       1.33022983
H       -0.15796143      -0.02613367       1.99623731
H        0.32866557      -2.02483412      -0.61915712
H        2.14007974      -1.79945602      -0.43611902
H        1.74038016       0.45795093      -1.94790119
H       -0.11203128       1.03048483      -1.03821776
13
Frame=13 idx=004548 GeodesicLength=2.0770069511619114 rxn_smarts="[O:1]=[C:2]([C:3]([N:4]1[C:5]([H:10])([H:11])[C:6]1([H:12])[H:13])([H:8])[H:9])[H:7]>>[N:4]1=[C:6]([H:12])[C:5]1([H:10])[H:11].[O:1]([C:2](=[C:3]([H:8])[H:9])[H:7])[H:13]"
O       -0.69904468       2.17513267       0.39925565
C       -1.47787974       1.24041242       0.79793244
C       -0.90155735      -0.00084184       1.11437734
N        0.93336539      -0.07405674       0.06565409
C        1.24720031      -1.34736232      -0.59779662
C        1.04862678      -0.05603444      -1.26114171
H       -2.46272855       1.37202412       0.32891858
H       -1.68755582      -0.74619392       1.22974929
H       -0.21521192      -0.15245649       1.94086988
H        0.46458125      -2.09584222      -0.52325379
H        2.24999728      -1.70841523      -0.39156177
H        1.65663415       0.39251834      -2.03554975
H       -0.15642709       1.00111564      -1.06745363
13
Frame=14 idx=004548 GeodesicLength=2.230105030371784 rxn_smarts="[O:1]=[C:2]([C:3]([N:4]1[C:5]([H:10])([H:11])[C:6]1([H:12])[H:13])([H:8])[H:9])[H:7]>>[N:4]1=[C:6]([H:12])[C:5]1([H:10])[H:11].[O:1]([C:2](=[C:3]([H:8])[H:9])[H:7])[H:13]"
O       -0.64160517       2.20435534       0.52436964
C       -1.46525773       1.28504900       0.86080662
C       -0.95168418      -0.01236962       1.05748245
N        0.90724529      -0.06344503       0.02544826
C        1.32102592      -1.34301211      -0.56384520
C        1.00298634      -0.11680582      -1.30366035
H       -2.43542185       1.50548778       0.39271619
H       -1.78608212      -0.71000423       1.12940384
H       -0.28372339      -0.27701727       1.87134006
H        0.61124877      -2.15122979      -0.41949015
H        2.35440153      -1.60230166      -0.35565301
H        1.56851795       0.31432025      -2.11924597
H       -0.20165136       0.96697317      -1.09967239
13
Frame=15 idx=004548 GeodesicLength=2.381743816172871 rxn_smarts="[O:1]=[C:2]([C:3]([N:4]1[C:5]([H:10])([H:11])[C:6]1([H:12])[H:13])([H:8])[H:9])[H:7]>>[N:4]1=[C:6]([H:12])[C:5]1([H:10])[H:11].[O:1]([C:2](=[C:3]([H:8])[H:9])[H:7])[H:13]"
O       -0.57857385       2.21930795       0.66620171
C       -1.44993273       1.32034365       0.92415892
C       -1.00438552      -0.01938535       0.99836689
N        0.87808209      -0.05690697      -0.01527358
C        1.39368556      -1.32978436      -0.53066391
C        0.95737441      -0.18572262      -1.34191591
H       -2.39425290       1.63145172       0.45292892
H       -1.88462300      -0.66245150       1.03094818
H       -0.36188085      -0.39556052       1.78936577
H        0.76474289      -2.18645825      -0.31201852
H        2.44911940      -1.48325093      -0.32860328
H        1.47983226       0.22367277      -2.19656725
H       -0.24918776       0.92474442      -1.13692794
13
Frame=16 idx=004548 GeodesicLength=2.5318182911347074 rxn_smarts="[O:1]=[C:2]([C:3]([N:4]1[C:5]([H:10])([H:11])[C:6]1([H:12])[H:13])([H:8])[H:9])[H:7]>>[N:4]1=[C:6]([H:12])[C:5]1([H:10])[H:11].[O:1]([C:2](=[C:3]([H:8])[H:9])[H:7])[H:13]"
O       -0.51080492       2.21576529       0.82767057
C       -1.43251379       1.34630110       0.98759272
C       -1.05905663      -0.02137919       0.93785259
N        0.84575567      -0.05308417      -0.05751840
C        1.46406932      -1.30666059      -0.49873603
C        0.91416739      -0.26219987      -1.37610897
H       -2.33745131       1.75095914       0.50850381
H       -1.98203344      -0.60360992       0.93605746
H       -0.44903361      -0.50670191       1.69529709
H        0.92227621      -2.19839930      -0.20200090
H        2.53198059      -1.35172472      -0.30974278
H        1.39483942       0.12116778      -2.26667859
H       -0.30219489       0.86956636      -1.18218858
