16
Frame=0 idx=008599 GeodesicLength=0.0 rxn_smarts="[C:1]1([H:8])([H:9])[C@@:2]2([H:10])[C@@:3]3([H:11])[C:4]([H:12])([H:13])[C@:5]([H:14])([C:6]3([H:15])[H:16])[N:7]12>>[C:1]1([H:8])([H:9])[C@@:2]2([H:10])[C@:3]([C:6][H:15])([H:11])[C:4]([H:12])([H:13])[C:5]([H:14])([H:16])[N:7]12"
C        1.58482556       0.84961734      -0.13211004
C        1.01695420      -0.36178506       0.51069859
C       -0.45834312      -0.39127881       0.97137016
C       -1.07800169      -1.10887850      -0.24890809
C       -0.48377580      -0.04506439      -1.16209224
C       -1.17451606       0.93019975       0.82712908
N        0.93168430      -0.16795210      -0.93773124
H        2.65722792       0.91401308      -0.27339730
H        1.08327164       1.80333074      -0.01609656
H        1.68349199      -1.14490026       0.85485420
H       -0.59935194      -0.81965554       1.96516463
H       -0.68950915      -2.10437407      -0.47001813
H       -2.16527493      -1.10556127      -0.22049971
H       -0.76631607       0.06066455      -2.20869496
H       -0.52001619       1.75537235       1.16180191
H       -1.02235067       0.93625223      -0.62147032
16
Frame=1 idx=008599 GeodesicLength=0.0694320408220698 rxn_smarts="[C:1]1([H:8])([H:9])[C@@:2]2([H:10])[C@@:3]3([H:11])[C:4]([H:12])([H:13])[C@:5]([H:14])([C:6]3([H:15])[H:16])[N:7]12>>[C:1]1([H:8])([H:9])[C@@:2]2([H:10])[C@:3]([C:6][H:15])([H:11])[C:4]([H:12])([H:13])[C:5]([H:14])([H:16])[N:7]12"
C        1.58387967       0.85292169      -0.13326720
C        1.01804856      -0.35757098       0.51243550
C       -0.45623382      -0.39736433       0.97177311
C       -1.08150903      -1.10574790      -0.24980580
C       -0.48188049      -0.04487427      -1.16340922
C       -1.15879166       0.92897058       0.82685809
N        0.93518546      -0.16886740      -0.93650122
H        2.65643250       0.91966812      -0.27228646
H        1.08187292       1.80702984      -0.02447390
H        1.68784684      -1.13450178       0.86403564
H       -0.59407327      -0.83419982       1.96218587
H       -0.70765668      -2.10676084      -0.47010160
H       -2.16889386      -1.08910330      -0.22212445
H       -0.75331516       0.03618861      -2.21518390
H       -0.51449749       1.74856166       1.19107436
H       -1.04641448       0.94565013      -0.64120881
16
Frame=2 idx=008599 GeodesicLength=0.13885525987646247 rxn_smarts="[C:1]1([H:8])([H:9])[C@@:2]2([H:10])[C@@:3]3([H:11])[C:4]([H:12])([H:13])[C@:5]([H:14])([C:6]3([H:15])[H:16])[N:7]12>>[C:1]1([H:8])([H:9])[C@@:2]2([H:10])[C@:3]([C:6][H:15])([H:11])[C:4]([H:12])([H:13])[C:5]([H:14])([H:16])[N:7]12"
C        1.58306454       0.85616168      -0.13443326
C        1.01921438      -0.35340056       0.51415546
C       -0.45405553      -0.40332346       0.97214939
C       -1.08489797      -1.10253975      -0.25068870
C       -0.47999769      -0.04446413      -1.16471313
C       -1.14280605       0.92792044       0.82598821
N        0.93872298      -0.16976188      -0.93527759
H        2.65575540       0.92519729      -0.27123539
H        1.08068674       1.81064246      -0.03271828
H        1.69218681      -1.12407515       0.87321741
H       -0.58880371      -0.84843428       1.95914447
H       -0.72598668      -2.10891621      -0.47023563
H       -2.17223263      -1.07263264      -0.22358180
H       -0.74032620       0.01205297      -2.22095580
H       -0.50948473       1.74110571       1.22028218
H       -1.07103965       0.95446751      -0.66109754
16
Frame=3 idx=008599 GeodesicLength=0.20827135758452953 rxn_smarts="[C:1]1([H:8])([H:9])[C@@:2]2([H:10])[C@@:3]3([H:11])[C:4]([H:12])([H:13])[C@:5]([H:14])([C:6]3([H:15])[H:16])[N:7]12>>[C:1]1([H:8])([H:9])[C@@:2]2([H:10])[C@:3]([C:6][H:15])([H:11])[C:4]([H:12])([H:13])[C:5]([H:14])([H:16])[N:7]12"
C        1.58239771       0.85932974      -0.13560761
C        1.02045790      -0.34927416       0.51585977
C       -0.45180297      -0.40914624       0.97250019
C       -1.08816740      -1.09924774      -0.25155141
C       -0.47812273      -0.04383496      -1.16600311
C       -1.12658159       0.92703691       0.82457260
N        0.94230162      -0.17063724      -0.93405964
H        2.65521474       0.93058085      -0.27024706
H        1.07974259       1.81417053      -0.04083781
H        1.69651030      -1.11362690       0.88239994
H       -0.58352102      -0.86238318       1.95603514
H       -0.74450051      -2.11082694      -0.47040378
H       -2.17529282      -1.05614824      -0.22486514
H       -0.72737337      -0.01169564      -2.22601833
H       -0.50507586       1.73300430       1.24932683
H       -1.09618658       0.96269892      -0.68110059
16
Frame=4 idx=008599 GeodesicLength=0.27767818957567747 rxn_smarts="[C:1]1([H:8])([H:9])[C@@:2]2([H:10])[C@@:3]3([H:11])[C:4]([H:12])([H:13])[C@:5]([H:14])([C:6]3([H:15])[H:16])[N:7]12>>[C:1]1([H:8])([H:9])[C@@:2]2([H:10])[C@:3]([C:6][H:15])([H:11])[C:4]([H:12])([H:13])[C:5]([H:14])([H:16])[N:7]12"
C        1.58189503       0.86241895      -0.13678900
C        1.02178488      -0.34519171       0.51755064
C       -0.44947126      -0.41482690       0.97282794
C       -1.09131673      -1.09586706      -0.25238895
C       -0.47625196      -0.04298796      -1.16727685
C       -1.11014392       0.92630354       0.82266747
N        0.94592490      -0.17149547      -0.93284614
H        2.65482748       0.93580119      -0.26932439
H        1.07906640       1.81761580      -0.04884278
H        1.70081692      -1.10316365       0.89158284
H       -0.57820484      -0.87607311       1.95285351
H       -0.76319859      -2.11248082      -0.47059122
H       -2.17807702      -1.03965078      -0.22596929
H       -0.71447933      -0.03501447      -2.23038144
H       -0.50135765       1.72426817       1.27811143
H       -1.12181433       0.97034427      -0.70118377
16
Frame=5 idx=008599 GeodesicLength=0.3470710615133046 rxn_smarts="[C:1]1([H:8])([H:9])[C@@:2]2([H:10])[C@@:3]3([H:11])[C:4]([H:12])([H:13])[C@:5]([H:14])([C:6]3([H:15])[H:16])[N:7]12>>[C:1]1([H:8])([H:9])[C@@:2]2([H:10])[C@:3]([C:6][H:15])([H:11])[C:4]([H:12])([H:13])[C:5]([H:14])([H:16])[N:7]12"
C        1.58157062       0.86542312      -0.13797514
C        1.02320132      -0.34115428       0.51923049
C       -0.44705466      -0.42036391       0.97313571
C       -1.09434590      -1.09239375      -0.25319668
C       -0.47438080      -0.04192573      -1.16853121
C       -1.09351782       0.92570087       0.82033249
N        0.94959669      -0.17233902      -0.93163477
H        2.65460878       0.94084401      -0.26846883
H        1.07867975       1.82097923      -0.05674341
H        1.70510763      -1.09269132       0.90076563
H       -0.57283467      -0.88953440       1.94959411
H       -0.78208331      -2.11386571      -0.47078455
H       -2.18058830      -1.02313961      -0.22688936
H       -0.70166830      -0.05786428      -2.23405527
H       -0.49841016       1.71491796       1.30653678
H       -1.14788086       0.97740681      -0.72131599
16
Frame=6 idx=008599 GeodesicLength=0.41645390388945697 rxn_smarts="[C:1]1([H:8])([H:9])[C@@:2]2([H:10])[C@@:3]3([H:11])[C:4]([H:12])([H:13])[C@:5]([H:14])([C:6]3([H:15])[H:16])[N:7]12>>[C:1]1([H:8])([H:9])[C@@:2]2([H:10])[C@:3]([C:6][H:15])([H:11])[C:4]([H:12])([H:13])[C:5]([H:14])([H:16])[N:7]12"
C        1.58143617       0.86833730      -0.13916354
C        1.02471243      -0.33716149       0.52090283
C       -0.44454806      -0.42575872       0.97342769
C       -1.09725646      -1.08882384      -0.25396937
C       -0.47250566      -0.04065105      -1.16976133
C       -1.07672587       0.92520637       0.81763182
N        0.95331957      -0.17316987      -0.93042252
H        2.65457126       0.94569648      -0.26768092
H        1.07860057       1.82426209      -0.06455265
H        1.70938417      -1.08221528       0.90994754
H       -0.56738803      -0.90280239       1.94625025
H       -0.80115844      -2.11496863      -0.47097030
H       -2.18283069      -1.00661344      -0.22761958
H       -0.68895884      -0.08021459      -2.23705521
H       -0.49630710       1.70497754       1.33450715
H       -1.17434503       0.98389953      -0.74147186
16
Frame=7 idx=008599 GeodesicLength=0.48582896585928326 rxn_smarts="[C:1]1([H:8])([H:9])[C@@:2]2([H:10])[C@@:3]3([H:11])[C:4]([H:12])([H:13])[C@:5]([H:14])([C:6]3([H:15])[H:16])[N:7]12>>[C:1]1([H:8])([H:9])[C@@:2]2([H:10])[C@:3]([C:6][H:15])([H:11])[C:4]([H:12])([H:13])[C:5]([H:14])([H:16])[N:7]12"
C        1.58150091       0.87115783      -0.14035140
C        1.02632357      -0.33321388       0.52257111
C       -0.44194542      -0.43101594       0.97370809
C       -1.10005082      -1.08515370      -0.25470190
C       -0.47062206      -0.03916870      -1.17096275
C       -1.05978920       0.92479681       0.81462811
N        0.95709658      -0.17399060      -0.92920587
H        2.65472498       0.95035059      -0.26696007
H        1.07884080       1.82746468      -0.07228239
H        1.71365044      -1.07173967       0.91912812
H       -0.56184380      -0.91591342       1.94281454
H       -0.82042954      -2.11577663      -0.47113598
H       -2.18480917      -0.99006712      -0.22815453
H       -0.67636818      -0.10204127      -2.23939730
H       -0.49510949       1.69447463       1.36193515
H       -1.20116958       0.98983639      -0.76163294
16
Frame=8 idx=008599 GeodesicLength=0.5551971730411854 rxn_smarts="[C:1]1([H:8])([H:9])[C@@:2]2([H:10])[C@@:3]3([H:11])[C:4]([H:12])([H:13])[C@:5]([H:14])([C:6]3([H:15])[H:16])[N:7]12>>[C:1]1([H:8])([H:9])[C@@:2]2([H:10])[C@:3]([C:6][H:15])([H:11])[C:4]([H:12])([H:13])[C:5]([H:14])([H:16])[N:7]12"
C        1.58177116       0.87388221      -0.14153531
C        1.02803945      -0.32931131       0.52423933
C       -0.43924133      -0.43614291       0.97398132
C       -1.10273192      -1.08138088      -0.25538943
C       -0.46872607      -0.03748353      -1.17213013
C       -1.04272816       0.92444877       0.81138297
N        0.96092975      -0.17480340      -0.92798140
H        2.65507739       0.95480095      -0.26630465
H        1.07940770       1.83058685      -0.07994392
H        1.71791036      -1.06126801       0.92830635
H       -0.55618231      -0.92890316       1.93928008
H       -0.83990227      -2.11627698      -0.47127044
H       -2.18652895      -0.97349756      -0.22848878
H       -0.66391103      -0.12332668      -2.24110145
H       -0.49486289       1.68344191       1.38874614
H       -1.22832088       0.99523373      -0.78179068
16
Frame=9 idx=008599 GeodesicLength=0.6245134384897307 rxn_smarts="[C:1]1([H:8])([H:9])[C@@:2]2([H:10])[C@@:3]3([H:11])[C:4]([H:12])([H:13])[C@:5]([H:14])([C:6]3([H:15])[H:16])[N:7]12>>[C:1]1([H:8])([H:9])[C@@:2]2([H:10])[C@:3]([C:6][H:15])([H:11])[C:4]([H:12])([H:13])[C:5]([H:14])([H:16])[N:7]12"
C        1.58223714       0.87651832      -0.14271574
C        1.02984992      -0.32544552       0.52590751
C       -0.43644661      -0.44113824       0.97424542
C       -1.10530798      -1.07750623      -0.25603450
C       -0.46682381      -0.03559699      -1.17326268
C       -1.02558854       0.92413863       0.80794032
N        0.96480956      -0.17560147      -0.92674796
H        2.65561811       0.95905820      -0.26571434
H        1.08028520       1.83363497      -0.08754024
H        1.72215610      -1.05078946       0.93748400
H       -0.55040463      -0.94179427       1.93563296
H       -0.85956976      -2.11646013      -0.47136282
H       -2.18799950      -0.95691004      -0.22863579
H       -0.65158206      -0.14411569      -2.24219753
H       -0.49547608       1.67190627       1.41496646
H       -1.25575706       1.00010165      -0.80196508
16
Frame=10 idx=008599 GeodesicLength=0.6938263781342727 rxn_smarts="[C:1]1([H:8])([H:9])[C@@:2]2([H:10])[C@@:3]3([H:11])[C:4]([H:12])([H:13])[C@:5]([H:14])([C:6]3([H:15])[H:16])[N:7]12>>[C:1]1([H:8])([H:9])[C@@:2]2([H:10])[C@:3]([C:6][H:15])([H:11])[C:4]([H:12])([H:13])[C:5]([H:14])([H:16])[N:7]12"
C        1.58291473       0.87905762      -0.14388565
C        1.03177406      -0.32162558       0.52758225
C       -0.43353976      -0.44602222       0.97451058
C       -1.10777987      -1.07352252      -0.25662554
C       -0.46490102      -0.03352006      -1.17435189
C       -1.00835495       0.92384692       0.80437105
N        0.96874960      -0.17639569      -0.92549977
H        2.65636529       0.96311222      -0.26518458
H        1.08148887       1.83660194      -0.09508501
H        1.72640656      -1.04032026       0.94665626
H       -0.54447390      -0.95463320       1.93187088
H       -0.87945394      -2.11630955      -0.47140253
H       -2.18922371      -0.94028338      -0.22857198
H       -0.63940250      -0.16434996      -2.24269327
H       -0.49709565       1.65990255       1.44045309
H       -1.28347382       1.00446116      -0.82214389
16
Frame=11 idx=008599 GeodesicLength=0.7631407883948114 rxn_smarts="[C:1]1([H:8])([H:9])[C@@:2]2([H:10])[C@@:3]3([H:11])[C:4]([H:12])([H:13])[C@:5]([H:14])([C:6]3([H:15])[H:16])[N:7]12>>[C:1]1([H:8])([H:9])[C@@:2]2([H:10])[C@:3]([C:6][H:15])([H:11])[C:4]([H:12])([H:13])[C:5]([H:14])([H:16])[N:7]12"
C        1.58380520       0.88150052      -0.14504140
C        1.03381662      -0.31785341       0.52926627
C       -0.43051472      -0.45080699       0.97478067
C       -1.11015277      -1.06942622      -0.25715818
C       -0.46295277      -0.03125911      -1.17539262
C       -0.99103653       0.92355365       0.80072907
N        0.97275203      -0.17718760      -0.92423305
H        2.65732052       0.96696629      -0.26471215
H        1.08301457       1.83948642      -0.10258316
H        1.73066893      -1.02986339       0.95582090
H       -0.53837238      -0.96745456       1.92798460
H       -0.89956361      -2.11581100      -0.47137985
H       -2.19020716      -0.92360531      -0.22829145
H       -0.62737628      -0.18403194      -2.24261031
H       -0.49974176       1.64746540       1.46515926
H       -1.31145987       1.00832724      -0.84233860
16
Frame=12 idx=008599 GeodesicLength=0.8324525043826712 rxn_smarts="[C:1]1([H:8])([H:9])[C@@:2]2([H:10])[C@@:3]3([H:11])[C:4]([H:12])([H:13])[C@:5]([H:14])([C:6]3([H:15])[H:16])[N:7]12>>[C:1]1([H:8])([H:9])[C@@:2]2([H:10])[C@:3]([C:6][H:15])([H:11])[C:4]([H:12])([H:13])[C:5]([H:14])([H:16])[N:7]12"
C        1.58490801       0.88384831      -0.14617939
C        1.03598154      -0.31412984       0.53096228
C       -0.42736617      -0.45550489       0.97505911
C       -1.11243172      -1.06521445      -0.25762829
C       -0.46097622      -0.02881838      -1.17637901
C       -0.97364275       0.92324033       0.79706319
N        0.97681737      -0.17797767      -0.92294515
H        2.65848368       0.97062433      -0.26429431
H        1.08485564       1.84228721      -0.11003752
H        1.73494977      -1.01942238       0.96497425
H       -0.53208547      -0.98028906       1.92396552
H       -0.91990591      -2.11494972      -0.47128645
H       -2.19095513      -0.90686589      -0.22778796
H       -0.61550455      -0.20316818      -2.24196975
H       -0.50342060       1.63463122       1.48905760
H       -1.33970749       1.01170906      -0.86257411
16
Frame=13 idx=008599 GeodesicLength=0.9017615804839525 rxn_smarts="[C:1]1([H:8])([H:9])[C@@:2]2([H:10])[C@@:3]3([H:11])[C:4]([H:12])([H:13])[C@:5]([H:14])([C:6]3([H:15])[H:16])[N:7]12>>[C:1]1([H:8])([H:9])[C@@:2]2([H:10])[C@:3]([C:6][H:15])([H:11])[C:4]([H:12])([H:13])[C:5]([H:14])([H:16])[N:7]12"
C        1.58622214       0.88610248      -0.14729596
C        1.03827341      -0.31045677       0.53267253
C       -0.42408837      -0.46012732       0.97534910
C       -1.11462214      -1.06088326      -0.25803113
C       -0.45896736      -0.02620366      -1.17730610
C       -0.95617877       0.92289107       0.79341795
N        0.98094748      -0.17876655      -0.92163290
H        2.65985412       0.97409302      -0.26392701
H        1.08700335       1.84500237      -0.11744707
H        1.73925619      -1.00900057       0.97411296
H       -0.52559920      -0.99316374       1.91980445
H       -0.94048877      -2.11371040      -0.47111302
H       -2.19147226      -0.89005217      -0.22705457
H       -0.60378974      -0.22176275      -2.24078876
H       -0.50813195       1.62142850       1.51212493
H       -1.36821814       1.01460975      -0.88288540
16
Frame=14 idx=008599 GeodesicLength=0.9710737114685788 rxn_smarts="[C:1]1([H:8])([H:9])[C@@:2]2([H:10])[C@@:3]3([H:11])[C:4]([H:12])([H:13])[C@:5]([H:14])([C:6]3([H:15])[H:16])[N:7]12>>[C:1]1([H:8])([H:9])[C@@:2]2([H:10])[C@:3]([C:6][H:15])([H:11])[C:4]([H:12])([H:13])[C:5]([H:14])([H:16])[N:7]12"
C        1.58774652       0.88826518      -0.14838594
C        1.04069718      -0.30683666       0.53439976
C       -0.42067521      -0.46468743       0.97565412
C       -1.11672895      -1.05642862      -0.25836184
C       -0.45692252      -0.02341858      -1.17816744
C       -0.93864609       0.92249161       0.78983631
N        0.98514378      -0.17955402      -0.92029338
H        2.66143127       0.97737850      -0.26360468
H        1.08944930       1.84763060      -0.12481001
H        1.74359664      -0.99860229       0.98323397
H       -0.51889988      -1.00610631       1.91549228
H       -0.96132008      -2.11207520      -0.47085085
H       -2.19176244      -0.87315017      -0.22608374
H       -0.59223276      -0.23982342      -2.23908722
H       -0.51387248       1.60788578       1.53433928
H       -1.39700428       1.01703102      -0.90331060
16
Frame=15 idx=008599 GeodesicLength=1.040385464247558 rxn_smarts="[C:1]1([H:8])([H:9])[C@@:2]2([H:10])[C@@:3]3([H:11])[C:4]([H:12])([H:13])[C@:5]([H:14])([C:6]3([H:15])[H:16])[N:7]12>>[C:1]1([H:8])([H:9])[C@@:2]2([H:10])[C@:3]([C:6][H:15])([H:11])[C:4]([H:12])([H:13])[C:5]([H:14])([H:16])[N:7]12"
C        1.58947917       0.89033897      -0.14944419
C        1.04325745      -0.30327200       0.53614608
C       -0.41712112      -0.46919674       0.97597762
C       -1.11875746      -1.05184574      -0.25861501
C       -0.45483889      -0.02046550      -1.17895641
C       -0.92104554       0.92202953       0.78635711
N        0.98940687      -0.18033834      -0.91892379
H        2.66321331       0.98048824      -0.26332222
H        1.09218369       1.85017060      -0.13211939
H        1.74797895      -0.98823263       0.99233274
H       -0.51197557      -1.01913963       1.91102016
H       -0.98240700      -2.11002551      -0.47049057
H       -2.19182895      -0.85614486      -0.22486646
H       -0.58083561      -0.25735448      -2.23688023
H       -0.52062942       1.59402564       1.55568748
H       -1.42607989       1.01896246      -0.92390291
16
Frame=16 idx=008599 GeodesicLength=1.109693553939331 rxn_smarts="[C:1]1([H:8])([H:9])[C@@:2]2([H:10])[C@@:3]3([H:11])[C:4]([H:12])([H:13])[C@:5]([H:14])([C:6]3([H:15])[H:16])[N:7]12>>[C:1]1([H:8])([H:9])[C@@:2]2([H:10])[C@:3]([C:6][H:15])([H:11])[C:4]([H:12])([H:13])[C:5]([H:14])([H:16])[N:7]12"
C        1.59141842       0.89232652      -0.15046497
C        1.04595931      -0.29976607       0.53791301
C       -0.41341989      -0.47366675       0.97632304
C       -1.12071289      -1.04712858      -0.25878504
C       -0.45271439      -0.01734416      -1.17966550
C       -0.90337547       0.92149443       0.78301707
N        0.99373707      -0.18111656      -0.91752194
H        2.66519866       0.98342958      -0.26307475
H        1.09519720       1.85262127      -0.13936538
H        1.75241133      -0.97789813       1.00140321
H       -0.50481489      -1.03228588       1.90637841
H       -1.00375695      -2.10754041      -0.47002361
H       -2.19167410      -0.83901958      -0.22339306
H       -0.56959950      -0.27436375      -2.23418194
H       -0.52838848       1.57987201       1.57616500
H       -1.45546542       1.02038604      -0.94472355
