10
Frame=0 idx=002221 GeodesicLength=0.0 rxn_smarts="[C:1](#[C:2][C@@:3]1([H:7])[C:4]([H:8])([H:9])[N:5]1[H:10])[H:6]>>[C:1](#[C:2][C@@:3]1([H:7])[C-:4]([H:8])[N+:5]1([H:9])[H:10])[H:6]"
C        2.23130116      -0.39487749       0.10843022
C        1.04534887      -0.38883408       0.27228277
C       -0.38609211      -0.37440343       0.49301872
C       -1.11376057       0.92131521       0.52203429
N       -1.18719660      -0.31693756      -0.73531773
H        3.28624339      -0.40016208      -0.03462339
H       -0.71800299      -1.15903512       1.16782149
H       -0.48065195       1.69237894       0.07009123
H       -2.02968229       0.36942145      -0.35342630
H       -0.64750692       0.05113417      -1.51031130
10
Frame=1 idx=002221 GeodesicLength=0.05482524487699462 rxn_smarts="[C:1](#[C:2][C@@:3]1([H:7])[C:4]([H:8])([H:9])[N:5]1[H:10])[H:6]>>[C:1](#[C:2][C@@:3]1([H:7])[C-:4]([H:8])[N+:5]1([H:9])[H:10])[H:6]"
C        2.23512277      -0.39925162       0.11055342
C        1.04881399      -0.39123384       0.27223452
C       -0.38234620      -0.37485796       0.49255366
C       -1.11254950       0.91948351       0.51070392
N       -1.18485189      -0.30527533      -0.73394080
H        3.29019068      -0.40010089      -0.03159242
H       -0.71808808      -1.15891703       1.16591126
H       -0.47972170       1.69529085       0.06784252
H       -2.05201714       0.36247409      -0.34130263
H       -0.64455293       0.05238821      -1.51296345
10
Frame=2 idx=002221 GeodesicLength=0.10964127543433969 rxn_smarts="[C:1](#[C:2][C@@:3]1([H:7])[C:4]([H:8])([H:9])[N:5]1[H:10])[H:6]>>[C:1](#[C:2][C@@:3]1([H:7])[C-:4]([H:8])[N+:5]1([H:9])[H:10])[H:6]"
C        2.23889046      -0.40291297       0.11247386
C        1.05225732      -0.39323577       0.27219330
C       -0.37864315      -0.37516631       0.49197506
C       -1.11161313       0.91763499       0.49948391
N       -1.18257149      -0.29366304      -0.73265332
H        3.29410342      -0.40094100      -0.02850028
H       -0.71806489      -1.15875039       1.16383428
H       -0.47920173       1.69833055       0.06597387
H       -2.07362759       0.35552557      -0.32911511
H       -0.64152922       0.05317836      -1.51566556
10
Frame=3 idx=002221 GeodesicLength=0.16446501003788494 rxn_smarts="[C:1](#[C:2][C@@:3]1([H:7])[C:4]([H:8])([H:9])[N:5]1[H:10])[H:6]>>[C:1](#[C:2][C@@:3]1([H:7])[C-:4]([H:8])[N+:5]1([H:9])[H:10])[H:6]"
C        2.24274632      -0.40490034       0.11401266
C        1.05581484      -0.39423782       0.27196133
C       -0.37483404      -0.37518177       0.49120405
C       -1.11118968       0.91569702       0.48842556
N       -1.18032012      -0.28216174      -0.73146721
H        3.29823004      -0.40430764      -0.02489397
H       -0.71749199      -1.15852789       1.16149998
H       -0.47964602       1.70163034       0.06448437
H       -2.09469499       0.34825885      -0.31679061
H       -0.63861436       0.05373099      -1.51843617
10
Frame=4 idx=002221 GeodesicLength=0.21928281130187702 rxn_smarts="[C:1](#[C:2][C@@:3]1([H:7])[C:4]([H:8])([H:9])[N:5]1[H:10])[H:6]>>[C:1](#[C:2][C@@:3]1([H:7])[C-:4]([H:8])[N+:5]1([H:9])[H:10])[H:6]"
C        2.24645166      -0.40721666       0.11649436
C        1.05919543      -0.39544077       0.27241586
C       -0.37128732      -0.37522411       0.49053388
C       -1.11084999       0.91379114       0.47740009
N       -1.17790598      -0.27074031      -0.73043653
H        3.30184588      -0.40684728      -0.02298721
H       -0.71746823      -1.15829931       1.15914243
H       -0.47999851       1.70487691       0.06339233
H       -2.11484532       0.34135244      -0.30483255
H       -0.63513761       0.05374795      -1.52112264
10
Frame=5 idx=002221 GeodesicLength=0.2740981030146767 rxn_smarts="[C:1](#[C:2][C@@:3]1([H:7])[C:4]([H:8])([H:9])[N:5]1[H:10])[H:6]>>[C:1](#[C:2][C@@:3]1([H:7])[C-:4]([H:8])[N+:5]1([H:9])[H:10])[H:6]"
C        2.25006744      -0.40947673       0.11871364
C        1.06251304      -0.39659005       0.27278277
C       -0.36781004      -0.37521957       0.48975011
C       -1.11055016       0.91191114       0.46649392
N       -1.17560598      -0.25942681      -0.72946844
H        3.30544071      -0.40935316      -0.02083413
H       -0.71745124      -1.15803800       1.15667414
H       -0.48049808       1.70813967       0.06251248
H       -2.13434510       0.33470291      -0.29279671
H       -0.63176058       0.05335061      -1.52382777
10
Frame=6 idx=002221 GeodesicLength=0.3289026648815698 rxn_smarts="[C:1](#[C:2][C@@:3]1([H:7])[C:4]([H:8])([H:9])[N:5]1[H:10])[H:6]>>[C:1](#[C:2][C@@:3]1([H:7])[C-:4]([H:8])[N+:5]1([H:9])[H:10])[H:6]"
C        2.25370233      -0.41101716       0.12048768
C        1.06587301      -0.39726368       0.27289926
C       -0.36428927      -0.37505993       0.48879011
C       -1.11045311       0.91001158       0.45573973
N       -1.17341178      -0.24825480      -0.72857335
H        3.30920500      -0.41297134      -0.01802279
H       -0.71711435      -1.15773401       1.15403268
H       -0.48152343       1.71151198       0.06183436
H       -2.15333896       0.32806788      -0.28060001
H       -0.62864944       0.05270947      -1.52658766
10
Frame=7 idx=002221 GeodesicLength=0.38376657452026136 rxn_smarts="[C:1](#[C:2][C@@:3]1([H:7])[C:4]([H:8])([H:9])[N:5]1[H:10])[H:6]>>[C:1](#[C:2][C@@:3]1([H:7])[C-:4]([H:8])[N+:5]1([H:9])[H:10])[H:6]"
C        2.25734985      -0.41196488       0.12110477
C        1.06929934      -0.39755599       0.27226212
C       -0.36064336      -0.37478177       0.48751981
C       -1.11042936       0.90809557       0.44516480
N       -1.17153472      -0.23725254      -0.72768449
H        3.31334744      -0.41754266      -0.01338898
H       -0.71625379      -1.15739272       1.15119110
H       -0.48301467       1.71497100       0.06119948
H       -2.17193559       0.32161157      -0.26794371
H       -0.62618514       0.05181240      -1.52942490
10
Frame=8 idx=002221 GeodesicLength=0.4385881392688617 rxn_smarts="[C:1](#[C:2][C@@:3]1([H:7])[C:4]([H:8])([H:9])[N:5]1[H:10])[H:6]>>[C:1](#[C:2][C@@:3]1([H:7])[C-:4]([H:8])[N+:5]1([H:9])[H:10])[H:6]"
C        2.26085299      -0.41351511       0.12222793
C        1.07256327      -0.39820336       0.27190634
C       -0.35718715      -0.37456799       0.48625764
C       -1.11029123       0.90622486       0.43465604
N       -1.16959430      -0.22637158      -0.72690230
H        3.31716990      -0.42097080      -0.00956446
H       -0.71579476      -1.15702721       1.14832547
H       -0.48430883       1.71829218       0.06074125
H       -2.18983347       0.31561904      -0.25541215
H       -0.62357642       0.05051997      -1.53223576
10
Frame=9 idx=002221 GeodesicLength=0.49341770772436205 rxn_smarts="[C:1](#[C:2][C@@:3]1([H:7])[C:4]([H:8])([H:9])[N:5]1[H:10])[H:6]>>[C:1](#[C:2][C@@:3]1([H:7])[C-:4]([H:8])[N+:5]1([H:9])[H:10])[H:6]"
C        2.26428638      -0.41540746       0.12290059
C        1.07576945      -0.39906267       0.27120076
C       -0.35377789      -0.37440805       0.48482157
C       -1.11001727       0.90439557       0.42425618
N       -1.16785787      -0.21566740      -0.72617189
H        3.32106864      -0.42376287      -0.00498153
H       -0.71533510      -1.15667238       1.14537110
H       -0.48555545       1.72155892       0.06029019
H       -2.20724388       0.31013281      -0.24260629
H       -0.62133701       0.04889353      -1.53508069
10
Frame=10 idx=002221 GeodesicLength=0.5483145635522213 rxn_smarts="[C:1](#[C:2][C@@:3]1([H:7])[C:4]([H:8])([H:9])[N:5]1[H:10])[H:6]>>[C:1](#[C:2][C@@:3]1([H:7])[C-:4]([H:8])[N+:5]1([H:9])[H:10])[H:6]"
C        2.26775055      -0.41693106       0.12205093
C        1.07906386      -0.39964310       0.26942831
C       -0.35017218      -0.37413435       0.48298594
C       -1.10970535       0.90257209       0.41404567
N       -1.16650599      -0.20512204      -0.72542098
H        3.32544004      -0.42730051       0.00215969
H       -0.71422333      -1.15625072       1.14218679
H       -0.48720340       1.72485711       0.05972896
H       -2.22439679       0.30485262      -0.22907902
H       -0.62004742       0.04709996      -1.53808628
10
Frame=11 idx=002221 GeodesicLength=0.6032473386383447 rxn_smarts="[C:1](#[C:2][C@@:3]1([H:7])[C:4]([H:8])([H:9])[N:5]1[H:10])[H:6]>>[C:1](#[C:2][C@@:3]1([H:7])[C-:4]([H:8])[N+:5]1([H:9])[H:10])[H:6]"
C        2.27141018      -0.41709859       0.12120390
C        1.08251813      -0.39934154       0.26751645
C       -0.34643692      -0.37362256       0.48099008
C       -1.10979302       0.90065809       0.40395634
N       -1.16508617      -0.19480398      -0.72481529
H        3.32993487      -0.43303386       0.00957357
H       -0.71261171      -1.15580523       1.13880845
H       -0.48975104       1.72832934       0.05931626
H       -2.24124454       0.29936781      -0.21541515
H       -0.61893977       0.04535052      -1.54113460
10
Frame=12 idx=002221 GeodesicLength=0.6581116390678554 rxn_smarts="[C:1](#[C:2][C@@:3]1([H:7])[C:4]([H:8])([H:9])[N:5]1[H:10])[H:6]>>[C:1](#[C:2][C@@:3]1([H:7])[C-:4]([H:8])[N+:5]1([H:9])[H:10])[H:6]"
C        2.27505706      -0.41713116       0.11952992
C        1.08600106      -0.39892759       0.26494674
C       -0.34261106      -0.37306987       0.47872081
C       -1.10981434       0.89873578       0.39400995
N       -1.16388632      -0.18468609      -0.72424221
H        3.33452900      -0.43898048       0.01846359
H       -0.71064753      -1.15532717       1.13526531
H       -0.49250915       1.73175940       0.05885107
H       -2.25771819       0.29420385      -0.20127041
H       -0.61840053       0.04342333      -1.54427477
10
Frame=13 idx=002221 GeodesicLength=0.7130143696186825 rxn_smarts="[C:1](#[C:2][C@@:3]1([H:7])[C:4]([H:8])([H:9])[N:5]1[H:10])[H:6]>>[C:1](#[C:2][C@@:3]1([H:7])[C-:4]([H:8])[N+:5]1([H:9])[H:10])[H:6]"
C        2.27865775      -0.41785293       0.11694118
C        1.08945078      -0.39890285       0.26165410
C       -0.33875974      -0.37261594       0.47616430
C       -1.10956061       0.89686718       0.38416405
N       -1.16298123      -0.17473087      -0.72369892
H        3.33921364      -0.44386077       0.02898920
H       -0.70857540      -1.15486235       1.13159755
H       -0.49507714       1.73506982       0.05821773
H       -2.27382946       0.28965738      -0.18649357
H       -0.61853859       0.04123134      -1.54753563
10
Frame=14 idx=002221 GeodesicLength=0.7679309456700987 rxn_smarts="[C:1](#[C:2][C@@:3]1([H:7])[C:4]([H:8])([H:9])[N:5]1[H:10])[H:6]>>[C:1](#[C:2][C@@:3]1([H:7])[C-:4]([H:8])[N+:5]1([H:9])[H:10])[H:6]"
C        2.28243612      -0.41725121       0.11542542
C        1.09300372      -0.39805609       0.25887986
C       -0.33489160      -0.37195579       0.47363893
C       -1.10975908       0.89488130       0.37435146
N       -1.16171030      -0.16503887      -0.72338454
H        3.34361549      -0.45071332       0.03813730
H       -0.70634142      -1.15438541       1.12780862
H       -0.49848791       1.73848848       0.05782677
H       -2.28957497       0.28492755      -0.17194428
H       -0.61829006       0.03910337      -1.55073954
10
Frame=15 idx=002221 GeodesicLength=0.8228551104085381 rxn_smarts="[C:1](#[C:2][C@@:3]1([H:7])[C:4]([H:8])([H:9])[N:5]1[H:10])[H:6]>>[C:1](#[C:2][C@@:3]1([H:7])[C-:4]([H:8])[N+:5]1([H:9])[H:10])[H:6]"
C        2.28630150      -0.41602853       0.11451418
C        1.09659673      -0.39683384       0.25635040
C       -0.33103431      -0.37120961       0.47108484
C       -1.11016021       0.89282720       0.36457589
N       -1.16024124      -0.15558444      -0.72324811
H        3.34780314      -0.45841648       0.04658568
H       -0.70404965      -1.15391365       1.12391971
H       -0.50236118       1.74191045       0.05755595
H       -2.30497033       0.28031277      -0.15741224
H       -0.61788445       0.03693614      -1.55392631
10
Frame=16 idx=002221 GeodesicLength=0.8777817660833267 rxn_smarts="[C:1](#[C:2][C@@:3]1([H:7])[C:4]([H:8])([H:9])[N:5]1[H:10])[H:6]>>[C:1](#[C:2][C@@:3]1([H:7])[C-:4]([H:8])[N+:5]1([H:9])[H:10])[H:6]"
C        2.29005494      -0.41570987       0.11333967
C        1.10008262      -0.39618168       0.25354888
C       -0.32726358      -0.37064071       0.46838079
C       -1.11027352       0.89080186       0.35484985
N       -1.15887746      -0.14631076      -0.72319768
H        3.35188953      -0.46454842       0.05558450
H       -0.70196033      -1.15349642       1.11996025
H       -0.50589546       1.74512706       0.05719265
H       -2.31999302       0.27645850      -0.14249184
H       -0.61776373       0.03450043      -1.55716708
