14
Frame=0 idx=011458 GeodesicLength=0.0 rxn_smarts="[O:1]([C:2]1([H:9])[C:3]([H:10])([H:11])[N:4]([C:6](=[O:7])[H:14])[C:5]1([H:12])[H:13])[H:8]>>[O:1]([C-:2]1[C:3]([H:10])([H:11])[N+:4]([C:6](=[O:7])[H:14])([H:9])[C:5]1([H:12])[H:13])[H:8]"
O       -2.48808802      -0.07952939      -0.61062374
C       -1.30721501      -0.11645591       0.12537278
C       -0.16192884      -1.00588995      -0.39517402
N        0.65088413      -0.00972903       0.37761712
C       -0.32131041       1.05444859      -0.04448847
C        2.06322062       0.08599714       0.40139441
O        2.64234565       1.11594851       0.56000458
H       -3.20919763      -0.26084945      -0.00953351
H       -0.01527171      -0.21323810       1.27820133
H       -0.04233466      -2.03420743      -0.05421331
H        0.07335625      -0.89872104      -1.46410081
H       -0.34026855       1.91845767       0.61599171
H       -0.09505273       1.34076695      -1.08102702
H        2.55086096      -0.89699850       0.30057895
14
Frame=1 idx=011458 GeodesicLength=0.06835207383071656 rxn_smarts="[O:1]([C:2]1([H:9])[C:3]([H:10])([H:11])[N:4]([C:6](=[O:7])[H:14])[C:5]1([H:12])[H:13])[H:8]>>[O:1]([C-:2]1[C:3]([H:10])([H:11])[N+:4]([C:6](=[O:7])[H:14])([H:9])[C:5]1([H:12])[H:13])[H:8]"
O       -2.47958466      -0.08809118      -0.61536066
C       -1.30445816      -0.12004971       0.13148606
C       -0.15960886      -1.01077013      -0.38938025
N        0.65213625      -0.01147388       0.38102627
C       -0.31937101       1.05150853      -0.04770508
C        2.06265262       0.09072882       0.39750036
O        2.63901733       1.11584296       0.59564547
H       -3.20794220      -0.23644553      -0.01391655
H       -0.03535254      -0.21387317       1.29050445
H       -0.04099860      -2.03769470      -0.04350250
H        0.07169748      -0.91232750      -1.45971913
H       -0.33847359       1.91766980       0.61035389
H       -0.09659855       1.33779914      -1.08479289
H        2.55688449      -0.88282345       0.24786058
14
Frame=2 idx=011458 GeodesicLength=0.13664675367302515 rxn_smarts="[O:1]([C:2]1([H:9])[C:3]([H:10])([H:11])[N:4]([C:6](=[O:7])[H:14])[C:5]1([H:12])[H:13])[H:8]>>[O:1]([C-:2]1[C:3]([H:10])([H:11])[N+:4]([C:6](=[O:7])[H:14])([H:9])[C:5]1([H:12])[H:13])[H:8]"
O       -2.47104342      -0.09671424      -0.61999191
C       -1.30173482      -0.12364657       0.13758387
C       -0.15726009      -1.01574718      -0.38326563
N        0.65348715      -0.01327540       0.38455081
C       -0.31738032       1.04846871      -0.05060999
C        2.06212862       0.09539508       0.39359649
O        2.63609965       1.11409509       0.63043456
H       -3.20620604      -0.21182776      -0.01949889
H       -0.05592961      -0.21452356       1.30306639
H       -0.03954009      -2.04119229      -0.03232230
H        0.07004404      -0.92618728      -1.45495451
H       -0.33669544       1.91668757       0.60513934
H       -0.09815334       1.33486231      -1.08821862
H        2.56218370      -0.86639448       0.19449040
14
Frame=3 idx=011458 GeodesicLength=0.20491042291422346 rxn_smarts="[O:1]([C:2]1([H:9])[C:3]([H:10])([H:11])[N:4]([C:6](=[O:7])[H:14])[C:5]1([H:12])[H:13])[H:8]>>[O:1]([C-:2]1[C:3]([H:10])([H:11])[N+:4]([C:6](=[O:7])[H:14])([H:9])[C:5]1([H:12])[H:13])[H:8]"
O       -2.46245769      -0.10533915      -0.62451978
C       -1.29904430      -0.12722135       0.14366850
C       -0.15489055      -1.02079471      -0.37684321
N        0.65494515      -0.01512450       0.38817690
C       -0.31532850       1.04535565      -0.05318295
C        2.06165535       0.09993223       0.38968369
O        2.63367488       1.11073637       0.66413429
H       -3.20394906      -0.18720481      -0.02630610
H       -0.07703299      -0.21518543       1.31588617
H       -0.03798727      -2.04467720      -0.02070193
H        0.06838951      -0.94026308      -1.44981466
H       -0.33489805       1.91552555       0.60038433
H       -0.09970373       1.33200031      -1.09127822
H        2.56662725      -0.84773989       0.14071296
14
Frame=4 idx=011458 GeodesicLength=0.27316202167846076 rxn_smarts="[O:1]([C:2]1([H:9])[C:3]([H:10])([H:11])[N:4]([C:6](=[O:7])[H:14])[C:5]1([H:12])[H:13])[H:8]>>[O:1]([C-:2]1[C:3]([H:10])([H:11])[N+:4]([C:6](=[O:7])[H:14])([H:9])[C:5]1([H:12])[H:13])[H:8]"
O       -2.45381462      -0.11397461      -0.62895016
C       -1.29638194      -0.13078217       0.14973821
C       -0.15249907      -1.02592251      -0.37011491
N        0.65652063      -0.01702881       0.39188709
C       -0.31321042       1.04216457      -0.05542936
C        2.06124401       0.10427832       0.38574309
O        2.63178333       1.10579758       0.69673327
H       -3.20114328      -0.16255805      -0.03432010
H       -0.09868811      -0.21586733       1.32895558
H       -0.03634578      -2.04815672      -0.00864039
H        0.06673462      -0.95457280      -1.44429877
H       -0.33305993       1.91417847       0.59608209
H       -0.10124692       1.32920620      -1.09397645
H        2.57010747      -0.82676213       0.08659080
14
Frame=5 idx=011458 GeodesicLength=0.34143798318374485 rxn_smarts="[O:1]([C:2]1([H:9])[C:3]([H:10])([H:11])[N:4]([C:6](=[O:7])[H:14])[C:5]1([H:12])[H:13])[H:8]>>[O:1]([C-:2]1[C:3]([H:10])([H:11])[N+:4]([C:6](=[O:7])[H:14])([H:9])[C:5]1([H:12])[H:13])[H:8]"
O       -2.44510003      -0.12265434      -0.63329788
C       -1.29374335      -0.13435588       0.15579279
C       -0.15007863      -1.03117100      -0.36305962
N        0.65822253      -0.01901126       0.39567745
C       -0.31101679       1.03885826      -0.05736025
C        2.06091251       0.10834105       0.38180875
O        2.63044653       1.09932034       0.72830297
H       -3.19776180      -0.13771719      -0.04354358
H       -0.12093741      -0.21659708       1.34227134
H       -0.03461200      -2.05166452       0.00390626
H        0.06509468      -0.96917918      -1.43838249
H       -0.33116170       1.91261516       0.59221315
H       -0.10275894       1.32642260      -1.09632184
H        2.57249440      -0.80320696       0.03199294
14
Frame=6 idx=011458 GeodesicLength=0.4097262331489586 rxn_smarts="[O:1]([C:2]1([H:9])[C:3]([H:10])([H:11])[N:4]([C:6](=[O:7])[H:14])[C:5]1([H:12])[H:13])[H:8]>>[O:1]([C-:2]1[C:3]([H:10])([H:11])[N+:4]([C:6](=[O:7])[H:14])([H:9])[C:5]1([H:12])[H:13])[H:8]"
O       -2.43634551      -0.13124663      -0.63752303
C       -1.29112069      -0.13787058       0.16182723
C       -0.14764167      -1.03641518      -0.35579170
N        0.66007516      -0.02099613       0.39944279
C       -0.30876325       1.03555103      -0.05894735
C        2.06067895       0.11221130       0.37764578
O        2.62981384       1.09139666       0.75835095
H       -3.19377838      -0.11331057      -0.05389833
H       -0.14375026      -0.21733426       1.35577955
H       -0.03281520      -2.05509534       0.01675279
H        0.06342209      -0.98389038      -1.43217678
H       -0.32918037       1.91090659       0.58887396
H       -0.10431902       1.32384933      -1.09828192
H        2.57372431      -0.77775585      -0.02205395
14
Frame=7 idx=011458 GeodesicLength=0.4780241014628468 rxn_smarts="[O:1]([C:2]1([H:9])[C:3]([H:10])([H:11])[N:4]([C:6](=[O:7])[H:14])[C:5]1([H:12])[H:13])[H:8]>>[O:1]([C-:2]1[C:3]([H:10])([H:11])[N+:4]([C:6](=[O:7])[H:14])([H:9])[C:5]1([H:12])[H:13])[H:8]"
O       -2.42754797      -0.13974762      -0.64163419
C       -1.28850927      -0.14132915       0.16783439
C       -0.14518123      -1.04164237      -0.34833647
N        0.66209058      -0.02297080       0.40315007
C       -0.30645793       1.03225658      -0.06019098
C        2.06055514       0.11588722       0.37319228
O        2.62993258       1.08206080       0.78676946
H       -3.18918345      -0.08938633      -0.06533480
H       -0.16715147      -0.21808516       1.36945680
H       -0.03095191      -2.05843725       0.02986508
H        0.06172346      -0.99868440      -1.42570309
H       -0.32711579       1.90905636       0.58607930
H       -0.10594962       1.32151648      -1.09985363
H        2.57374690      -0.75049437      -0.07529424
14
Frame=8 idx=011458 GeodesicLength=0.5463816263270544 rxn_smarts="[O:1]([C:2]1([H:9])[C:3]([H:10])([H:11])[N:4]([C:6](=[O:7])[H:14])[C:5]1([H:12])[H:13])[H:8]>>[O:1]([C-:2]1[C:3]([H:10])([H:11])[N+:4]([C:6](=[O:7])[H:14])([H:9])[C:5]1([H:12])[H:13])[H:8]"
O       -2.41869139      -0.14823734      -0.64564416
C       -1.28590513      -0.14477602       0.17381495
C       -0.14268223      -1.04690568      -0.34066444
N        0.66428025      -0.02495060       0.40678848
C       -0.30410738       1.02893030      -0.06110966
C        2.06055416       0.11933082       0.36845615
O        2.63079567       1.07140350       0.81375132
H       -3.18395383      -0.06564527      -0.07785358
H       -0.19119097      -0.21888144       1.38329919
H       -0.02899718      -2.06173495       0.04330805
H        0.06002255      -1.01364929      -1.41893102
H       -0.32497679       1.90702568       0.58379634
H       -0.10765967       1.31935844      -1.10105430
H        2.57251194      -0.72126815      -0.12795731
14
Frame=9 idx=011458 GeodesicLength=0.6148310587228013 rxn_smarts="[O:1]([C:2]1([H:9])[C:3]([H:10])([H:11])[N:4]([C:6](=[O:7])[H:14])[C:5]1([H:12])[H:13])[H:8]>>[O:1]([C-:2]1[C:3]([H:10])([H:11])[N+:4]([C:6](=[O:7])[H:14])([H:9])[C:5]1([H:12])[H:13])[H:8]"
O       -2.40976692      -0.15658220      -0.64959225
C       -1.28329558      -0.14812744       0.17974537
C       -0.14013828      -1.05208114      -0.33284260
N        0.66667003      -0.02684771       0.41027502
C       -0.30171628       1.02568021      -0.06167784
C        2.06071472       0.12265469       0.36319042
O        2.63243973       1.05942157       0.83898772
H       -3.17810566      -0.04271403      -0.09133734
H       -0.21591147      -0.21962689       1.39725950
H       -0.02695472      -2.06486101       0.05699222
H        0.05830315      -1.02862960      -1.41192432
H       -0.32274914       1.90489567       0.58211817
H       -0.10948141       1.31755437      -1.10184700
H        2.56999183      -0.69073648      -0.17934709
14
Frame=10 idx=011458 GeodesicLength=0.6833186342354072 rxn_smarts="[O:1]([C:2]1([H:9])[C:3]([H:10])([H:11])[N:4]([C:6](=[O:7])[H:14])[C:5]1([H:12])[H:13])[H:8]>>[O:1]([C-:2]1[C:3]([H:10])([H:11])[N+:4]([C:6](=[O:7])[H:14])([H:9])[C:5]1([H:12])[H:13])[H:8]"
O       -2.40078243      -0.16485941      -0.65346736
C       -1.28068988      -0.15143778       0.18563084
C       -0.13754822      -1.05722982      -0.32485775
N        0.66925277      -0.02869834       0.41362402
C       -0.29929579       1.02246293      -0.06190923
C        2.06100541       0.12580546       0.35750108
O        2.63492118       1.04622172       0.86251284
H       -3.17162904      -0.02025756      -0.10581501
H       -0.24134067      -0.22040328       1.41134584
H       -0.02482880      -2.06788200       0.07093739
H        0.05659611      -1.04369519      -1.40466354
H       -0.32044677       1.90262180       0.58100797
H       -0.11142843       1.31603925      -1.10224569
H        2.56621457      -0.65868776      -0.22960142
14
Frame=11 idx=011458 GeodesicLength=0.7518470277968484 rxn_smarts="[O:1]([C:2]1([H:9])[C:3]([H:10])([H:11])[N:4]([C:6](=[O:7])[H:14])[C:5]1([H:12])[H:13])[H:8]>>[O:1]([C-:2]1[C:3]([H:10])([H:11])[N+:4]([C:6](=[O:7])[H:14])([H:9])[C:5]1([H:12])[H:13])[H:8]"
O       -2.39172003      -0.17307442      -0.65729626
C       -1.27808465      -0.15470585       0.19146339
C       -0.13490600      -1.06234648      -0.31670518
N        0.67203728      -0.03049206       0.41682068
C       -0.29685033       1.01928415      -0.06180740
C        2.06142897       0.12879068       0.35136708
O        2.63824222       1.03189581       0.88436681
H       -3.16451694       0.00171552      -0.12125229
H       -0.26753868      -0.22120362       1.42554240
H       -0.02262127      -2.07078274       0.08516257
H        0.05491813      -1.05885165      -1.39713818
H       -0.31807316       1.90020805       0.58046707
H       -0.11350297       1.31482122      -1.10224805
H        2.56118744      -0.62525859      -0.27874263
14
Frame=12 idx=011458 GeodesicLength=0.8204027355274328 rxn_smarts="[O:1]([C:2]1([H:9])[C:3]([H:10])([H:11])[N:4]([C:6](=[O:7])[H:14])[C:5]1([H:12])[H:13])[H:8]>>[O:1]([C-:2]1[C:3]([H:10])([H:11])[N+:4]([C:6](=[O:7])[H:14])([H:9])[C:5]1([H:12])[H:13])[H:8]"
O       -2.38257852      -0.18119854      -0.66109617
C       -1.27547675      -0.15791559       0.19723073
C       -0.13220466      -1.06739338      -0.30841725
N        0.67503568      -0.03219441       0.41982238
C       -0.29439197       1.01618244      -0.06136963
C        2.06198698       0.13166630       0.34470370
O        2.64242606       1.01651217       0.90445310
H       -3.15677750       0.02305020      -0.13757680
H       -0.29454748      -0.22201707       1.43982110
H       -0.02032670      -2.07352578       0.09963052
H        0.05327877      -1.07404835      -1.38937616
H       -0.31563661       1.89767831       0.58052426
H       -0.11573772       1.31396803      -1.10184548
H        2.55495044      -0.59076433      -0.32650430
14
Frame=13 idx=011458 GeodesicLength=0.8889831275034563 rxn_smarts="[O:1]([C:2]1([H:9])[C:3]([H:10])([H:11])[N:4]([C:6](=[O:7])[H:14])[C:5]1([H:12])[H:13])[H:8]>>[O:1]([C-:2]1[C:3]([H:10])([H:11])[N+:4]([C:6](=[O:7])[H:14])([H:9])[C:5]1([H:12])[H:13])[H:8]"
O       -2.37333898      -0.18923994      -0.66489824
C       -1.27286613      -0.16106981       0.20292404
C       -0.12943482      -1.07236144      -0.29999158
N        0.67825465      -0.03379176       0.42261660
C       -0.29193039       1.01316734      -0.06058703
C        2.06267991       0.13446054       0.33748534
O        2.64747953       1.00016336       0.92275827
H       -3.14841265       0.04374205      -0.15476356
H       -0.32244083      -0.22284273       1.45416572
H       -0.01793787      -2.07609424       0.11435482
H        0.05170329      -1.08928059      -1.38136924
H       -0.31315216       1.89503400       0.58120331
H       -0.11814242       1.31350367      -1.10102018
H        2.54753885      -0.55539045      -0.37287828
14
Frame=14 idx=011458 GeodesicLength=0.9575726208080495 rxn_smarts="[O:1]([C:2]1([H:9])[C:3]([H:10])([H:11])[N:4]([C:6](=[O:7])[H:14])[C:5]1([H:12])[H:13])[H:8]>>[O:1]([C-:2]1[C:3]([H:10])([H:11])[N+:4]([C:6](=[O:7])[H:14])([H:9])[C:5]1([H:12])[H:13])[H:8]"
O       -2.36399678      -0.19718464      -0.66872131
C       -1.27024978      -0.16416143       0.20853558
C       -0.12658830      -1.07722849      -0.29144436
N        0.68170651      -0.03525880       0.42517414
C       -0.28947658       1.01026483      -0.05945326
C        2.06350402       0.13722084       0.32965595
O        2.65340213       0.98292871       0.93922141
H       -3.13942826       0.06372049      -0.17276158
H       -0.35128010      -0.22368514       1.46854789
H       -0.01544588      -2.07846455       0.12931989
H        0.05020476      -1.10452170      -1.37312952
H       -0.31063010       1.89228458       0.58253150
H       -0.12074310       1.31347779      -1.09975745
H        2.53902147      -0.51939248      -0.41771889
14
Frame=15 idx=011458 GeodesicLength=1.0261614528965985 rxn_smarts="[O:1]([C:2]1([H:9])[C:3]([H:10])([H:11])[N:4]([C:6](=[O:7])[H:14])[C:5]1([H:12])[H:13])[H:8]>>[O:1]([C-:2]1[C:3]([H:10])([H:11])[N+:4]([C:6](=[O:7])[H:14])([H:9])[C:5]1([H:12])[H:13])[H:8]"
O       -2.35453580      -0.20503830      -0.67259588
C       -1.26762810      -0.16719375       0.21405829
C       -0.12365541      -1.08198407      -0.28277282
N        0.68539865      -0.03658209       0.42748227
C       -0.28703991       1.00748661      -0.05795339
C        2.06445860       0.13998632       0.32118282
O        2.66019847       0.96489208       0.95381061
H       -3.12982757       0.08297637      -0.19155278
H       -0.38115054      -0.22454614       1.48294656
H       -0.01283940      -2.08061833       0.14453895
H        0.04880525      -1.11976343      -1.36464888
H       -0.30808567       1.88943019       0.58454503
H       -0.12355193       1.31392235      -1.09803160
H        2.52945337      -0.48296782      -0.46100917
14
Frame=16 idx=011458 GeodesicLength=1.0947241827929628 rxn_smarts="[O:1]([C:2]1([H:9])[C:3]([H:10])([H:11])[N:4]([C:6](=[O:7])[H:14])[C:5]1([H:12])[H:13])[H:8]>>[O:1]([C-:2]1[C:3]([H:10])([H:11])[N+:4]([C:6](=[O:7])[H:14])([H:9])[C:5]1([H:12])[H:13])[H:8]"
O       -2.34494410      -0.21280107      -0.67654304
C       -1.26499974      -0.17016883       0.21948730
C       -0.12062715      -1.08661497      -0.27398284
N        0.68934163      -0.03774597       0.42952131
C       -0.28463246       1.00484843      -0.05607218
C        2.06553895       0.14280576       0.31201089
O        2.66786152       0.94613354       0.96646672
H       -3.11961354       0.10149619      -0.21110791
H       -0.41213106      -0.22543541       1.49733165
H       -0.01010342      -2.08253737       0.16001049
H        0.04752024      -1.13499189      -1.35593027
H       -0.30553363       1.88646904       0.58728240
H       -0.12659447       1.31487943      -1.09581636
H        2.51891722      -0.44633689      -0.50265817
