9
Frame=0 idx=009010 GeodesicLength=0.0 rxn_smarts="[N:1]#[C:2][c:3]1[c:4]([H:8])[n:5]([H:9])[n:6][n:7]1>>[N+:1](#[C-:2])[c:3]1[c:4]([H:8])[n:5]([H:9])[n:6][n:7]1"
N        2.19763209       0.46222770       0.82054144
C        2.14798861       0.73076434      -0.33532871
C        0.62321017       0.42000105      -0.04175046
C       -0.04310526      -0.76955593      -0.18324789
N       -1.32943190      -0.40664124      -0.07746198
N       -1.45726277       0.90760600       0.13082820
N       -0.27654990       1.41292459       0.16249458
H        0.29215628      -1.77783019      -0.34999086
H       -2.15463731      -0.97949634      -0.12608428
9
Frame=1 idx=009010 GeodesicLength=0.04137172761602299 rxn_smarts="[N:1]#[C:2][c:3]1[c:4]([H:8])[n:5]([H:9])[n:6][n:7]1>>[N+:1](#[C-:2])[c:3]1[c:4]([H:8])[n:5]([H:9])[n:6][n:7]1"
N        2.20291754       0.46659407       0.81770816
C        2.16022509       0.73270913      -0.33654692
C        0.62204021       0.41847243      -0.03608063
C       -0.04541302      -0.77008526      -0.18263992
N       -1.33201837      -0.40705700      -0.07955253
N       -1.46005082       0.90685114       0.12927849
N       -0.27921197       1.41149536       0.16484818
H        0.28859934      -1.77877015      -0.34975100
H       -2.15708800      -0.98020972      -0.12726383
9
Frame=2 idx=009010 GeodesicLength=0.08274511086475288 rxn_smarts="[N:1]#[C:2][c:3]1[c:4]([H:8])[n:5]([H:9])[n:6][n:7]1>>[N+:1](#[C-:2])[c:3]1[c:4]([H:8])[n:5]([H:9])[n:6][n:7]1"
N        2.20820408       0.47099566       0.81483273
C        2.17261916       0.73467359      -0.33778001
C        0.62083007       0.41689413      -0.03019873
C       -0.04774591      -0.77061500      -0.18207671
N       -1.33463162      -0.40744238      -0.08187839
N       -1.46285856       0.90610985       0.12760658
N       -0.28189835       1.41004654       0.16726285
H        0.28502718      -1.77970428      -0.34956282
H       -2.15954606      -0.98095811      -0.12820550
9
Frame=3 idx=009010 GeodesicLength=0.12412360264330796 rxn_smarts="[N:1]#[C:2][c:3]1[c:4]([H:8])[n:5]([H:9])[n:6][n:7]1>>[N+:1](#[C-:2])[c:3]1[c:4]([H:8])[n:5]([H:9])[n:6][n:7]1"
N        2.21407688       0.47595694       0.81087455
C        2.18486884       0.73662860      -0.34016875
C        0.61954638       0.41519997      -0.02391165
C       -0.05011068      -0.77136287      -0.18031587
N       -1.33724726      -0.40809344      -0.08255047
N       -1.46566828       0.90516543       0.12718584
N       -0.28461467       1.40849771       0.17013161
H        0.28142582      -1.78089687      -0.34791588
H       -2.16227703      -0.98109546      -0.13332938
9
Frame=4 idx=009010 GeodesicLength=0.16550267210085887 rxn_smarts="[N:1]#[C:2][c:3]1[c:4]([H:8])[n:5]([H:9])[n:6][n:7]1>>[N+:1](#[C-:2])[c:3]1[c:4]([H:8])[n:5]([H:9])[n:6][n:7]1"
N        2.22025685       0.48119863       0.80631054
C        2.19710076       0.73860552      -0.34318683
C        0.61820923       0.41341748      -0.01725442
C       -0.05250660      -0.77222490      -0.17794305
N       -1.33989203      -0.40883917      -0.08268176
N       -1.46850202       0.90413577       0.12725073
N       -0.28736160       1.40686942       0.17338768
H        0.27779891      -1.78222357      -0.34551967
H       -2.16510349      -0.98093918      -0.14036322
9
Frame=5 idx=009010 GeodesicLength=0.20689896703201538 rxn_smarts="[N:1]#[C:2][c:3]1[c:4]([H:8])[n:5]([H:9])[n:6][n:7]1>>[N+:1](#[C-:2])[c:3]1[c:4]([H:8])[n:5]([H:9])[n:6][n:7]1"
N        2.22698117       0.48696445       0.80066779
C        2.20916594       0.74056924      -0.34735448
C        0.61679825       0.41152054      -0.01011353
C       -0.05493917      -0.77330496      -0.17436572
N       -1.34255643      -0.40981718      -0.08145557
N       -1.47135105       0.90291345       0.12843945
N       -0.29014353       1.40512689       0.17719236
H        0.27413123      -1.78380147      -0.34170923
H       -2.16808642      -0.98017096      -0.15130107
9
Frame=6 idx=009010 GeodesicLength=0.24828857061020448 rxn_smarts="[N:1]#[C:2][c:3]1[c:4]([H:8])[n:5]([H:9])[n:6][n:7]1>>[N+:1](#[C-:2])[c:3]1[c:4]([H:8])[n:5]([H:9])[n:6][n:7]1"
N        2.23314629       0.49225535       0.79597656
C        2.22167892       0.74258909      -0.35044164
C        0.61538357       0.40961578      -0.00283178
C       -0.05739380      -0.77417944      -0.17198353
N       -1.34527162      -0.41046991      -0.08228849
N       -1.47424011       0.90195900       0.12792847
N       -0.29294000       1.40342963       0.18075362
H        0.27044583      -1.78509098      -0.33956669
H       -2.17080908      -0.98010851      -0.15754651
9
Frame=7 idx=009010 GeodesicLength=0.2896853007017797 rxn_smarts="[N:1]#[C:2][c:3]1[c:4]([H:8])[n:5]([H:9])[n:6][n:7]1>>[N+:1](#[C-:2])[c:3]1[c:4]([H:8])[n:5]([H:9])[n:6][n:7]1"
N        2.23874332       0.49703160       0.79233297
C        2.23468752       0.74468541      -0.35232381
C        0.61395914       0.40770438       0.00459407
C       -0.05985064      -0.77482874      -0.17090534
N       -1.34801023      -0.41068949      -0.08578813
N       -1.47715097       0.90129367       0.12564798
N       -0.29574526       1.40178114       0.18407943
H        0.26676562      -1.78607467      -0.33919650
H       -2.17339851      -0.98090330      -0.15844066
9
Frame=8 idx=009010 GeodesicLength=0.3310861040618025 rxn_smarts="[N:1]#[C:2][c:3]1[c:4]([H:8])[n:5]([H:9])[n:6][n:7]1>>[N+:1](#[C-:2])[c:3]1[c:4]([H:8])[n:5]([H:9])[n:6][n:7]1"
N        2.24475141       0.50225638       0.78784886
C        2.24760456       0.74676101      -0.35510677
C        0.61247204       0.40566711       0.01251861
C       -0.06234559      -0.77567114      -0.16879459
N       -1.35076886      -0.41106790      -0.08835968
N       -1.48007228       0.90048698       0.12419055
N       -0.29858443       1.40003760       0.18781029
H        0.26304559      -1.78724108      -0.33784391
H       -2.17610245      -0.98122896      -0.16226335
9
Frame=9 idx=009010 GeodesicLength=0.3724992097523022 rxn_smarts="[N:1]#[C:2][c:3]1[c:4]([H:8])[n:5]([H:9])[n:6][n:7]1>>[N+:1](#[C-:2])[c:3]1[c:4]([H:8])[n:5]([H:9])[n:6][n:7]1"
N        2.25107292       0.50781781       0.78269883
C        2.26047207       0.74883063      -0.35859077
C        0.61092679       0.40351148       0.02096814
C       -0.06487716      -0.77666557      -0.16586590
N       -1.35354812      -0.41153150      -0.09044513
N       -1.48300945       0.89960667       0.12314648
N       -0.30145339       1.39819897       0.19198099
H        0.25928872      -1.78853130      -0.33582515
H       -2.17887237      -0.98123719      -0.16806749
9
Frame=10 idx=009010 GeodesicLength=0.4139484128479457 rxn_smarts="[N:1]#[C:2][c:3]1[c:4]([H:8])[n:5]([H:9])[n:6][n:7]1>>[N+:1](#[C-:2])[c:3]1[c:4]([H:8])[n:5]([H:9])[n:6][n:7]1"
N        2.25795805       0.51395437       0.77631058
C        2.27308642       0.75088271      -0.36340374
C        0.60930344       0.40119261       0.03012877
C       -0.06745420      -0.77792044      -0.16148246
N       -1.35634897      -0.41219232      -0.09136858
N       -1.48596012       0.89853351       0.12323710
N       -0.30435588       1.39620762       0.19688613
H        0.25547933      -1.79009695      -0.33226475
H       -2.18170807      -0.98056111      -0.17804306
9
Frame=11 idx=009010 GeodesicLength=0.45540221079768506 rxn_smarts="[N:1]#[C:2][c:3]1[c:4]([H:8])[n:5]([H:9])[n:6][n:7]1>>[N+:1](#[C-:2])[c:3]1[c:4]([H:8])[n:5]([H:9])[n:6][n:7]1"
N        2.26495209       0.52024873       0.76954456
C        2.28571494       0.75294493      -0.36859440
C        0.60763096       0.39876460       0.03982445
C       -0.07006874      -0.77925508      -0.15668363
N       -1.35916722      -0.41281738      -0.09254424
N       -1.48892680       0.89746020       0.12329190
N       -0.30728685       1.39413564       0.20217208
H        0.25163335      -1.79171051      -0.32846413
H       -2.18448173      -0.97977114      -0.18854658
9
Frame=12 idx=009010 GeodesicLength=0.49686308431859727 rxn_smarts="[N:1]#[C:2][c:3]1[c:4]([H:8])[n:5]([H:9])[n:6][n:7]1>>[N+:1](#[C-:2])[c:3]1[c:4]([H:8])[n:5]([H:9])[n:6][n:7]1"
N        2.27183077       0.52650943       0.76283372
C        2.29850388       0.75502786      -0.37367939
C        0.60591352       0.39624243       0.04998286
C       -0.07271159      -0.78057526      -0.15200421
N       -1.36198401      -0.41332630      -0.09441874
N       -1.49189504       0.89649916       0.12266368
N       -0.31023899       1.39202365       0.20761596
H        0.24776540      -1.79324465      -0.32513895
H       -2.18718393      -0.97915632      -0.19785493
9
Frame=13 idx=009010 GeodesicLength=0.538326330186671 rxn_smarts="[N:1]#[C:2][c:3]1[c:4]([H:8])[n:5]([H:9])[n:6][n:7]1>>[N+:1](#[C-:2])[c:3]1[c:4]([H:8])[n:5]([H:9])[n:6][n:7]1"
N        2.27865701       0.53281950       0.75601328
C        2.31140113       0.75711825      -0.37884230
C        0.60414690       0.39361404       0.06064852
C       -0.07538523      -0.78191544      -0.14725234
N       -1.36478989      -0.41374959      -0.09678270
N       -1.49485578       0.89560394       0.12165330
N       -0.31321212       1.38986414       0.21324589
H        0.24387585      -1.79474541      -0.32201770
H       -2.18983788      -0.97860944      -0.20666594
9
Frame=14 idx=009010 GeodesicLength=0.5797949470504664 rxn_smarts="[N:1]#[C:2][c:3]1[c:4]([H:8])[n:5]([H:9])[n:6][n:7]1>>[N+:1](#[C-:2])[c:3]1[c:4]([H:8])[n:5]([H:9])[n:6][n:7]1"
N        2.28518845       0.53896010       0.74959282
C        2.32459356       0.75923879      -0.38350749
C        0.60232923       0.39089516       0.07171907
C       -0.07807375      -0.78316323      -0.14307227
N       -1.36755824      -0.41397121      -0.10028775
N       -1.49778472       0.89489736       0.11956282
N       -0.31619621       1.38770298       0.21879650
H        0.23998862      -1.79606890      -0.31990249
H       -2.19248694      -0.97849106      -0.21290121
9
Frame=15 idx=009010 GeodesicLength=0.621266619164538 rxn_smarts="[N:1]#[C:2][c:3]1[c:4]([H:8])[n:5]([H:9])[n:6][n:7]1>>[N+:1](#[C-:2])[c:3]1[c:4]([H:8])[n:5]([H:9])[n:6][n:7]1"
N        2.29154234       0.54506675       0.74328841
C        2.33798771       0.76137140      -0.38798831
C        0.60044699       0.38806453       0.08326119
C       -0.08078261      -0.78437809      -0.13913379
N       -1.37028877      -0.41408166      -0.10440500
N       -1.50067537       0.89431043       0.11680147
N       -0.31919533       1.38551957       0.22434814
H        0.23610219      -1.79728850      -0.31836492
H       -2.19513714      -0.97858442      -0.21780719
9
Frame=16 idx=009010 GeodesicLength=0.6627398412387863 rxn_smarts="[N:1]#[C:2][c:3]1[c:4]([H:8])[n:5]([H:9])[n:6][n:7]1>>[N+:1](#[C-:2])[c:3]1[c:4]([H:8])[n:5]([H:9])[n:6][n:7]1"
N        2.29763320       0.55106662       0.73726353
C        2.35164820       0.76352977      -0.39209047
C        0.59848757       0.38511939       0.09524131
C       -0.08350437      -0.78552101      -0.13567136
N       -1.37296766      -0.41403858      -0.10939361
N       -1.50351024       0.89387791       0.11316396
N       -0.32220799       1.38332435       0.22980808
H        0.23223125      -1.79835914      -0.31764785
H       -2.19780995      -0.97899931      -0.22067361
