14
Frame=0 idx=007386 GeodesicLength=0.0 rxn_smarts="[C:1]1([H:8])([H:9])[C@@:2]2([H:10])[C:3]([H:11])([H:12])[O:4][C:5]([H:13])=[N:6][C@@:7]12[H:14]>>[C:1]1([H:8])([H:9])[C@:2]([C:3](=[O:4])[H:12])([H:10])[C@:7]1([N:6]=[C:5]([H:11])[H:13])[H:14]"
C       -1.51522033      -0.27296929       0.24939906
C       -0.55521596       0.38377476      -0.69703911
C        0.65451113       1.12916653      -0.15060829
O        1.81851772       0.81690911      -0.67560917
C        1.42114648      -0.48612100       0.65031115
N        0.72951249      -1.43872278       0.29979268
C       -0.45408691      -1.08655733      -0.44508847
H       -1.39097037      -0.09934198       1.31314596
H       -2.54109587      -0.40565144      -0.06606164
H       -0.89774933       0.74019769      -1.66099293
H        0.68622231       0.64298480       1.04877857
H        0.46500768       2.18560645       0.11649291
H        2.32183157      -0.29909582       1.21028821
H       -0.74241059      -1.81017969      -1.19280896
14
Frame=1 idx=007386 GeodesicLength=0.10057732490370508 rxn_smarts="[C:1]1([H:8])([H:9])[C@@:2]2([H:10])[C:3]([H:11])([H:12])[O:4][C:5]([H:13])=[N:6][C@@:7]12[H:14]>>[C:1]1([H:8])([H:9])[C@:2]([C:3](=[O:4])[H:12])([H:10])[C@:7]1([N:6]=[C:5]([H:11])[H:13])[H:14]"
C       -1.51056731      -0.27586694       0.25099603
C       -0.55928259       0.38728803      -0.69990058
C        0.64398932       1.14091418      -0.15547122
O        1.81687745       0.81893462      -0.65325027
C        1.42340759      -0.49463340       0.66309627
N        0.73445913      -1.44316819       0.28970204
C       -0.45008214      -1.08398146      -0.44917140
H       -1.38106507      -0.09660772       1.31302123
H       -2.53784294      -0.41284994      -0.05812814
H       -0.91165519       0.74232052      -1.66078789
H        0.68691347       0.65271043       1.06735381
H        0.45447425       2.20639279       0.07103057
H        2.33124885      -0.33809532       1.22172979
H       -0.74087482      -1.80335761      -1.20022022
14
Frame=2 idx=007386 GeodesicLength=0.20108863625001905 rxn_smarts="[C:1]1([H:8])([H:9])[C@@:2]2([H:10])[C:3]([H:11])([H:12])[O:4][C:5]([H:13])=[N:6][C@@:7]12[H:14]>>[C:1]1([H:8])([H:9])[C@:2]([C:3](=[O:4])[H:12])([H:10])[C@:7]1([N:6]=[C:5]([H:11])[H:13])[H:14]"
C       -1.50575628      -0.27872574       0.25265550
C       -0.56339932       0.39099027      -0.70267144
C        0.63310337       1.15320350      -0.16016147
O        1.81469119       0.82178877      -0.62957840
C        1.42570330      -0.50336806       0.67626360
N        0.73970164      -1.44728529       0.27942998
C       -0.44584673      -1.08116625      -0.45325003
H       -1.37110990      -0.09394585       1.31293469
H       -2.53435839      -0.42020720      -0.05009706
H       -0.92574298       0.74443094      -1.66041280
H        0.68736636       0.66246640       1.08668628
H        0.44424384       2.22668916       0.02328187
H        2.34050418      -0.37854536       1.23248261
H       -0.73910028      -1.79632529      -1.20756334
14
Frame=3 idx=007386 GeodesicLength=0.30151714779229855 rxn_smarts="[C:1]1([H:8])([H:9])[C@@:2]2([H:10])[C:3]([H:11])([H:12])[O:4][C:5]([H:13])=[N:6][C@@:7]12[H:14]>>[C:1]1([H:8])([H:9])[C@:2]([C:3](=[O:4])[H:12])([H:10])[C@:7]1([N:6]=[C:5]([H:11])[H:13])[H:14]"
C       -1.50078540      -0.28154875       0.25438078
C       -0.56757235       0.39490230      -0.70532420
C        0.62182761       1.16607198      -0.16464215
O        1.81188410       0.82551572      -0.60452392
C        1.42805485      -0.51234238       0.68980923
N        0.74525536      -1.45103096       0.26897370
C       -0.44136943      -1.07808446      -0.45732104
H       -1.36110966      -0.09137207       1.31289322
H       -2.53063266      -0.42773643      -0.04197500
H       -0.94002105       0.74653975      -1.65983592
H        0.68752305       0.67219540       1.10685351
H        0.43447938       2.24630485      -0.02689501
H        2.34953171      -0.42036440       1.24244958
H       -0.73706549      -1.78905054      -1.21484276
14
Frame=4 idx=007386 GeodesicLength=0.40187121908676215 rxn_smarts="[C:1]1([H:8])([H:9])[C@@:2]2([H:10])[C:3]([H:11])([H:12])[O:4][C:5]([H:13])=[N:6][C@@:7]12[H:14]>>[C:1]1([H:8])([H:9])[C@:2]([C:3](=[O:4])[H:12])([H:10])[C@:7]1([N:6]=[C:5]([H:11])[H:13])[H:14]"
C       -1.49565189      -0.28433782       0.25617492
C       -0.57181391       0.39904664      -0.70783380
C        0.61013093       1.17956551      -0.16889047
O        1.80836872       0.83015400      -0.57801428
C        1.43048818      -0.52157083       0.70371839
N        0.75113867      -1.45435589       0.25832734
C       -0.43663931      -1.07470540      -0.46138353
H       -1.35106671      -0.08889938       1.31290605
H       -2.52665467      -0.43545039      -0.03376804
H       -0.95450832       0.74865627      -1.65902794
H        0.68731532       0.68183202       1.12793776
H        0.42537730       2.26500076      -0.07962063
H        2.35826601      -0.46343898       1.25153905
H       -0.73475031      -1.78149651      -1.22206482
14
Frame=5 idx=007386 GeodesicLength=0.5022327578341776 rxn_smarts="[C:1]1([H:8])([H:9])[C@@:2]2([H:10])[C:3]([H:11])([H:12])[O:4][C:5]([H:13])=[N:6][C@@:7]12[H:14]>>[C:1]1([H:8])([H:9])[C@:2]([C:3](=[O:4])[H:12])([H:10])[C@:7]1([N:6]=[C:5]([H:11])[H:13])[H:14]"
C       -1.49034740      -0.28706175       0.25804276
C       -0.57611390       0.40344507      -0.71021986
C        0.59802756       1.19371581      -0.17299278
O        1.80410651       0.83565990      -0.55001418
C        1.43303978      -0.53108685       0.71793903
N        0.75735784      -1.45725068       0.24749162
C       -0.43164414      -1.07101714      -0.46544397
H       -1.34096571      -0.08647909       1.31298048
H       -2.52241986      -0.44331497      -0.02545773
H       -0.96920265       0.75078501      -1.65801166
H        0.68670032       0.69133192       1.14999161
H        0.41695212       2.28253276      -0.13476546
H        2.36665428      -0.50758860       1.25968939
H       -0.73214475      -1.77367139      -1.22922924
14
Frame=6 idx=007386 GeodesicLength=0.6025540603337113 rxn_smarts="[C:1]1([H:8])([H:9])[C@@:2]2([H:10])[C:3]([H:11])([H:12])[O:4][C:5]([H:13])=[N:6][C@@:7]12[H:14]>>[C:1]1([H:8])([H:9])[C@:2]([C:3](=[O:4])[H:12])([H:10])[C@:7]1([N:6]=[C:5]([H:11])[H:13])[H:14]"
C       -1.48487540      -0.28974203       0.25998903
C       -0.58050720       0.40812140      -0.71244026
C        0.58546146       1.20856734      -0.17689832
O        1.79895865       0.84212809      -0.52045015
C        1.43573112      -0.54089562       0.73244873
N        0.76393858      -1.45964417       0.23644010
C       -0.42637991      -1.06698018      -0.46950603
H       -1.33081148      -0.08415833       1.31312664
H       -2.51791855      -0.45137403      -0.01705035
H       -0.98415214       0.75294438      -1.65672950
H        0.68558561       0.70062551       1.17310520
H        0.40957935       2.29858947      -0.19251364
H        2.37462319      -0.55266425       1.26683173
H       -0.72923327      -1.76551760      -1.23635317
14
Frame=7 idx=007386 GeodesicLength=0.7028130101752453 rxn_smarts="[C:1]1([H:8])([H:9])[C@@:2]2([H:10])[C:3]([H:11])([H:12])[O:4][C:5]([H:13])=[N:6][C@@:7]12[H:14]>>[C:1]1([H:8])([H:9])[C@:2]([C:3](=[O:4])[H:12])([H:10])[C@:7]1([N:6]=[C:5]([H:11])[H:13])[H:14]"
C       -1.47923161      -0.29237581       0.26201144
C       -0.58501831       0.41309132      -0.71448898
C        0.57240578       1.22415425      -0.18065030
O        1.79281700       0.84957385      -0.48928303
C        1.43859690      -0.55100127       0.74718568
N        0.77089426      -1.46148390       0.22515299
C       -0.42084683      -1.06256314      -0.47357507
H       -1.32058907      -0.08192893       1.31333999
H       -2.51314120      -0.45963833      -0.00854320
H       -0.99939813       0.75513361      -1.65516423
H        0.68390079       0.70965482       1.19732897
H        0.40351676       2.31283454      -0.25279898
H        2.38211043      -0.59844618       1.27292346
H       -0.72601677      -1.75700484      -1.24343875
14
Frame=8 idx=007386 GeodesicLength=0.8030055523407925 rxn_smarts="[C:1]1([H:8])([H:9])[C@@:2]2([H:10])[C:3]([H:11])([H:12])[O:4][C:5]([H:13])=[N:6][C@@:7]12[H:14]>>[C:1]1([H:8])([H:9])[C@:2]([C:3](=[O:4])[H:12])([H:10])[C@:7]1([N:6]=[C:5]([H:11])[H:13])[H:14]"
C       -1.47341550      -0.29495383       0.26410656
C       -0.58967839       0.41837066      -0.71636976
C        0.55883207       1.24051288      -0.18431548
O        1.78556052       0.85800303      -0.45648451
C        1.44166718      -0.56139951       0.76208842
N        0.77824033      -1.46270102       0.21360897
C       -0.41504779      -1.05773570      -0.47765922
H       -1.31028678      -0.07976876       1.31361714
H       -2.50807652      -0.46811846       0.00006496
H       -1.01498784       0.75735100      -1.65330746
H        0.68156993       0.71837046       1.22271472
H        0.39903418       2.32488638      -0.31549403
H        2.38908537      -0.64470821       1.27791983
H       -0.72249678      -1.74810892      -1.25049014
14
Frame=9 idx=007386 GeodesicLength=0.9032590887307236 rxn_smarts="[C:1]1([H:8])([H:9])[C@@:2]2([H:10])[C:3]([H:11])([H:12])[O:4][C:5]([H:13])=[N:6][C@@:7]12[H:14]>>[C:1]1([H:8])([H:9])[C@:2]([C:3](=[O:4])[H:12])([H:10])[C@:7]1([N:6]=[C:5]([H:11])[H:13])[H:14]"
C       -1.46741800      -0.29742575       0.26628513
C       -0.59446310       0.42398618      -0.71813615
C        0.54480610       1.25763678      -0.18810140
O        1.77717731       0.86733916      -0.42203988
C        1.44497455      -0.57213718       0.77704887
N        0.78598378      -1.46333181       0.20178774
C       -0.40896845      -1.05250684      -0.48177373
H       -1.29987637      -0.07759089       1.31396160
H       -2.50274196      -0.47674447       0.00883154
H       -1.03091045       0.75962320      -1.65121027
H        0.67855689       0.72672224       1.24930595
H        0.39601927       2.33453746      -0.38029462
H        2.39553309      -0.69123398       1.28183750
H       -0.71867266      -1.73887410      -1.25750229
14
Frame=10 idx=007386 GeodesicLength=1.0034536383534363 rxn_smarts="[C:1]1([H:8])([H:9])[C@@:2]2([H:10])[C:3]([H:11])([H:12])[O:4][C:5]([H:13])=[N:6][C@@:7]12[H:14]>>[C:1]1([H:8])([H:9])[C@:2]([C:3](=[O:4])[H:12])([H:10])[C@:7]1([N:6]=[C:5]([H:11])[H:13])[H:14]"
C       -1.46125097      -0.29981999       0.26852972
C       -0.59946329       0.42993821      -0.71976276
C        0.53022956       1.27557103      -0.19201502
O        1.76741183       0.87767954      -0.38591436
C        1.44854906      -0.58314581       0.79201176
N        0.79414991      -1.46322650       0.18965869
C       -0.40263237      -1.04681925      -0.48592099
H       -1.28936067      -0.07541617       1.31435380
H       -2.49711396      -0.48559732       0.01772218
H       -1.04727787       0.76192662      -1.64881957
H        0.67472621       0.73468029       1.27715626
H        0.39512799       2.34125216      -0.44710968
H        2.40146178      -0.73779049       1.28458758
H       -0.71455721      -1.72923234      -1.26447761
14
Frame=11 idx=007386 GeodesicLength=1.1035518230310957 rxn_smarts="[C:1]1([H:8])([H:9])[C@@:2]2([H:10])[C:3]([H:11])([H:12])[O:4][C:5]([H:13])=[N:6][C@@:7]12[H:14]>>[C:1]1([H:8])([H:9])[C@:2]([C:3](=[O:4])[H:12])([H:10])[C@:7]1([N:6]=[C:5]([H:11])[H:13])[H:14]"
C       -1.45490770      -0.30211627       0.27082429
C       -0.60471418       0.43622309      -0.72128156
C        0.51510006       1.29431265      -0.19620894
O        1.75612137       0.88900417      -0.34810432
C        1.45242366      -0.59438730       0.80688377
N        0.80274018      -1.46231135       0.17720488
C       -0.39605692      -1.04065027      -0.49010550
H       -1.27871603      -0.07317611       1.31476503
H       -2.49117730      -0.49466903       0.02673733
H       -1.06413295       0.76423742      -1.64615326
H        0.67000177       0.74221593       1.30629491
H        0.39660206       2.34463922      -0.51557229
H        2.40689247      -0.78413640       1.28611274
H       -0.71017649      -1.71918575      -1.27139707
14
Frame=12 idx=007386 GeodesicLength=1.2035758814689241 rxn_smarts="[C:1]1([H:8])([H:9])[C@@:2]2([H:10])[C:3]([H:11])([H:12])[O:4][C:5]([H:13])=[N:6][C@@:7]12[H:14]>>[C:1]1([H:8])([H:9])[C@:2]([C:3](=[O:4])[H:12])([H:10])[C@:7]1([N:6]=[C:5]([H:11])[H:13])[H:14]"
C       -1.44839341      -0.30428592       0.27315589
C       -0.61025127       0.44284012      -0.72273283
C        0.49942858       1.31385000      -0.20086501
O        1.74314655       0.90130044      -0.30860028
C        1.45663336      -0.60582490       0.82156813
N        0.81176047      -1.46051987       0.16441589
C       -0.38925630      -1.03398681      -0.49432916
H       -1.26793189      -0.07079240       1.31516967
H       -2.48493081      -0.50394534       0.03588243
H       -1.08151640       0.76653904      -1.64323568
H        0.66429065       0.74929821       1.33677414
H        0.40066987       2.34433829      -0.58530433
H        2.41189913      -0.83006397       1.28634264
H       -0.70554855      -1.70874688      -1.27824152
14
Frame=13 idx=007386 GeodesicLength=1.303608208866528 rxn_smarts="[C:1]1([H:8])([H:9])[C@@:2]2([H:10])[C:3]([H:11])([H:12])[O:4][C:5]([H:13])=[N:6][C@@:7]12[H:14]>>[C:1]1([H:8])([H:9])[C@:2]([C:3](=[O:4])[H:12])([H:10])[C@:7]1([N:6]=[C:5]([H:11])[H:13])[H:14]"
C       -1.44172900      -0.30627860       0.27553504
C       -0.61606676       0.44982266      -0.72414983
C        0.48328884       1.33415342      -0.20617723
O        1.72837030       0.91451277      -0.26731958
C        1.46121449      -0.61746858       0.83594674
N        0.82123021      -1.45785667       0.15128998
C       -0.38222100      -1.02682398      -0.49858650
H       -1.25701773      -0.06819833       1.31556429
H       -2.47841926      -0.51336690       0.04520019
H       -1.09940820       0.76888708      -1.64009907
H        0.65749166       0.75580102       1.36870502
H        0.40731968       2.34015761      -0.65612224
H        2.41660305      -0.87540407       1.28520288
H       -0.70065627      -1.69793743      -1.28498969
14
Frame=14 idx=007386 GeodesicLength=1.403552284278254 rxn_smarts="[C:1]1([H:8])([H:9])[C@@:2]2([H:10])[C:3]([H:11])([H:12])[O:4][C:5]([H:13])=[N:6][C@@:7]12[H:14]>>[C:1]1([H:8])([H:9])[C@:2]([C:3](=[O:4])[H:12])([H:10])[C@:7]1([N:6]=[C:5]([H:11])[H:13])[H:14]"
C       -1.43491896      -0.30809028       0.27792981
C       -0.62226373       0.45713257      -0.72557050
C        0.46663033       1.35520301      -0.21229840
O        1.71148102       0.92869793      -0.22430281
C        1.46621034      -0.62917722       0.84994412
N        0.83114152      -1.45415778       0.13780882
C       -0.37500656      -1.01913548      -0.50288064
H       -1.24595833      -0.06531192       1.31590385
H       -2.47160070      -0.52297154       0.05466011
H       -1.11790226       0.77120557      -1.63676160
H        0.64947372       0.76178088       1.40212965
H        0.41717007       2.33149553      -0.72744783
H        2.42109870      -0.91991043       1.28251235
H       -0.69555516      -1.68676085      -1.29162692
14
Frame=15 idx=007386 GeodesicLength=1.5034344186324269 rxn_smarts="[C:1]1([H:8])([H:9])[C@@:2]2([H:10])[C:3]([H:11])([H:12])[O:4][C:5]([H:13])=[N:6][C@@:7]12[H:14]>>[C:1]1([H:8])([H:9])[C@:2]([C:3](=[O:4])[H:12])([H:10])[C@:7]1([N:6]=[C:5]([H:11])[H:13])[H:14]"
C       -1.42797927      -0.30968020       0.28033452
C       -0.62887094       0.46477284      -0.72703287
C        0.44950520       1.37695109      -0.21941895
O        1.69226111       0.94384396      -0.17951829
C        1.47166823      -0.64088867       0.86344705
N        0.84149677      -1.44936432       0.12396417
C       -0.36763529      -1.01091494      -0.50720503
H       -1.23475669      -0.06204928       1.31616590
H       -2.46449356      -0.53271246       0.06427930
H       -1.13699638       0.77350298      -1.63326038
H        0.64011291       0.76717411       1.43716218
H        0.43042342       2.31798597      -0.79890288
H        2.42552936      -0.96338138       1.27811188
H       -0.69026486      -1.67523971      -1.29812662
14
Frame=16 idx=007386 GeodesicLength=1.603342449758096 rxn_smarts="[C:1]1([H:8])([H:9])[C@@:2]2([H:10])[C:3]([H:11])([H:12])[O:4][C:5]([H:13])=[N:6][C@@:7]12[H:14]>>[C:1]1([H:8])([H:9])[C@:2]([C:3](=[O:4])[H:12])([H:10])[C@:7]1([N:6]=[C:5]([H:11])[H:13])[H:14]"
C       -1.42093945      -0.31099270       0.28274783
C       -0.63592580       0.47274579      -0.72858437
C        0.43197457       1.39934530      -0.22775784
O        1.67043001       0.95996116      -0.13291602
C        1.47765356      -0.65251632       0.87634490
N        0.85230776      -1.44341602       0.10975663
C       -0.36013560      -1.00216094      -0.51154632
H       -1.22342409      -0.05831016       1.31633472
H       -2.45712559      -0.54252356       0.07407502
H       -1.15668353       0.77578633      -1.62965959
H        0.62925897       0.77190429       1.47395239
H        0.44732030       2.29920987      -0.87006642
H        2.43009248      -1.00562803       1.27178165
H       -0.68480359      -1.66340501      -1.30446259
