14
Frame=0 idx=005384 GeodesicLength=0.0 rxn_smarts="[C:1]([N:2]([C:3]([H:10])([H:11])[H:12])[C:4](=[O:5])[N:6]([H:13])[H:14])([H:7])([H:8])[H:9]>>[C:1]([N:2]([C:3]([H:10])([H:11])[H:12])/[C:4]([O:5][H:13])=[N:6]\[H:14])([H:7])([H:8])[H:9]"
C       -1.26833854      -1.04775229       0.34326562
N       -0.27135308      -0.07881610      -0.06117428
C       -0.68135776       1.30052304      -0.17672292
C        1.02651807      -0.41142680      -0.10024837
O        1.45320928      -1.62362936       0.04231088
N        2.09333742       0.33581233      -0.30459738
H       -0.81369434      -2.03369950       0.36975723
H       -1.66564980      -0.81108584       1.33566014
H       -2.09632946      -1.05333867      -0.36977117
H       -0.00589503       1.83966502      -0.83934923
H       -1.67980955       1.34146269      -0.61439538
H       -0.70908865       1.80695219       0.79432315
H        2.50299345      -0.90560398      -0.12269735
H        2.11545799       1.34093733      -0.29636092
14
Frame=1 idx=005384 GeodesicLength=0.03506601432039939 rxn_smarts="[C:1]([N:2]([C:3]([H:10])([H:11])[H:12])[C:4](=[O:5])[N:6]([H:13])[H:14])([H:7])([H:8])[H:9]>>[C:1]([N:2]([C:3]([H:10])([H:11])[H:12])/[C:4]([O:5][H:13])=[N:6]\[H:14])([H:7])([H:8])[H:9]"
C       -1.26814107      -1.04801153       0.33983834
N       -0.27337579      -0.08060948      -0.07269956
C       -0.67865170       1.30067755      -0.17868952
C        1.02252318      -0.41959218      -0.14001961
O        1.45408509      -1.62061683       0.06560993
N        2.09085071       0.33608333      -0.30841458
H       -0.81571254      -2.03516174       0.35859032
H       -1.65341538      -0.81325681       1.33749881
H       -2.10435823      -1.04776200      -0.36357164
H       -0.01183617       1.83939027      -0.85054763
H       -1.68426130       1.34550508      -0.59915079
H       -0.68800661       1.80521278       0.79385392
H        2.51368007      -0.90308390      -0.10006197
H        2.09661973       1.34122545      -0.28223601
14
Frame=2 idx=005384 GeodesicLength=0.07000970958865366 rxn_smarts="[C:1]([N:2]([C:3]([H:10])([H:11])[H:12])[C:4](=[O:5])[N:6]([H:13])[H:14])([H:7])([H:8])[H:9]>>[C:1]([N:2]([C:3]([H:10])([H:11])[H:12])/[C:4]([O:5][H:13])=[N:6]\[H:14])([H:7])([H:8])[H:9]"
C       -1.26763782      -1.04794860       0.33791129
N       -0.27457537      -0.08208955      -0.08144325
C       -0.67586019       1.30059874      -0.18113718
C        1.01956942      -0.42663789      -0.17144265
O        1.45331952      -1.61851676       0.07738086
N        2.08805738       0.33662193      -0.31089656
H       -0.81705612      -2.03601170       0.35163008
H       -1.64375868      -0.81393598       1.33929176
H       -2.11000075      -1.04350015      -0.35811868
H       -0.01688539       1.83825476      -0.86168794
H       -1.68744527       1.34794824      -0.58659635
H       -0.66933764       1.80480619       0.79174164
H        2.52343488      -0.90073335      -0.08093550
H        2.07817603       1.34114413      -0.26569752
14
Frame=3 idx=005384 GeodesicLength=0.10486727445086125 rxn_smarts="[C:1]([N:2]([C:3]([H:10])([H:11])[H:12])[C:4](=[O:5])[N:6]([H:13])[H:14])([H:7])([H:8])[H:9]>>[C:1]([N:2]([C:3]([H:10])([H:11])[H:12])/[C:4]([O:5][H:13])=[N:6]\[H:14])([H:7])([H:8])[H:9]"
C       -1.26701830      -1.04774115       0.33671514
N       -0.27533171      -0.08329353      -0.08830165
C       -0.67309770       1.30049522      -0.18364601
C        1.01727772      -0.43268267      -0.19692017
O        1.45194797      -1.61706982       0.08363820
N        2.08524927       0.33730115      -0.31254065
H       -0.81794915      -2.03652324       0.34710510
H       -1.63614230      -0.81384723       1.34079069
H       -2.11405097      -1.04007822      -0.35360806
H       -0.02134366       1.83680862      -0.87232449
H       -1.68981565       1.34954721      -0.57571798
H       -0.65256055       1.80525447       0.78890178
H        2.53273513      -0.89882183      -0.06524374
H        2.06009988       1.34065103      -0.24884816
14
Frame=4 idx=005384 GeodesicLength=0.13970415748023043 rxn_smarts="[C:1]([N:2]([C:3]([H:10])([H:11])[H:12])[C:4](=[O:5])[N:6]([H:13])[H:14])([H:7])([H:8])[H:9]>>[C:1]([N:2]([C:3]([H:10])([H:11])[H:12])/[C:4]([O:5][H:13])=[N:6]\[H:14])([H:7])([H:8])[H:9]"
C       -1.26635149      -1.04748257       0.33580005
N       -0.27585486      -0.08432525      -0.09411459
C       -0.67036145       1.30041044      -0.18602525
C        1.01535452      -0.43807182      -0.21891098
O        1.45030743      -1.61603071       0.08694281
N        2.08244371       0.33801260      -0.31395011
H       -0.81861711      -2.03688329       0.34363297
H       -1.62966906      -0.81350415       1.34204037
H       -2.11724783      -1.03703641      -0.34973328
H       -0.02552679       1.83528648      -0.88245439
H       -1.69171500       1.35077356      -0.56555638
H       -0.63682906       1.80609656       0.78583024
H        2.54177220      -0.89696968      -0.05056761
H        2.04229479       1.33972423      -0.23293386
14
Frame=5 idx=005384 GeodesicLength=0.1745715775152371 rxn_smarts="[C:1]([N:2]([C:3]([H:10])([H:11])[H:12])[C:4](=[O:5])[N:6]([H:13])[H:14])([H:7])([H:8])[H:9]>>[C:1]([N:2]([C:3]([H:10])([H:11])[H:12])/[C:4]([O:5][H:13])=[N:6]\[H:14])([H:7])([H:8])[H:9]"
C       -1.26565327      -1.04720771       0.33499759
N       -0.27624110      -0.08524925      -0.09931936
C       -0.66764555       1.30034660      -0.18825626
C        1.01365444      -0.44300842      -0.23868258
O        1.44851577      -1.61527390       0.08840044
N        2.07962990       0.33871855      -0.31539352
H       -0.81916131      -2.03717332       0.34062140
H       -1.62383784      -0.81310186       1.34311559
H       -2.11995522      -1.03416783      -0.34625832
H       -0.02958278       1.83376194      -0.89216405
H       -1.69330348       1.35182040      -0.55570855
H       -0.62171536       1.80712349       0.78267472
H        2.55057288      -0.89497233      -0.03590399
H        2.02472291       1.33838364      -0.21812310
14
Frame=6 idx=005384 GeodesicLength=0.20947212285398603 rxn_smarts="[C:1]([N:2]([C:3]([H:10])([H:11])[H:12])[C:4](=[O:5])[N:6]([H:13])[H:14])([H:7])([H:8])[H:9]>>[C:1]([N:2]([C:3]([H:10])([H:11])[H:12])/[C:4]([O:5][H:13])=[N:6]\[H:14])([H:7])([H:8])[H:9]"
C       -1.26492806      -1.04693596       0.33422490
N       -0.27654167      -0.08610416      -0.10416320
C       -0.66494416       1.30029985      -0.19034396
C        1.01210074      -0.44760868      -0.25693535
O        1.44662406      -1.61471015       0.08856731
N        2.07680994       0.33940130      -0.31692600
H       -0.81963425      -2.03743811       0.33775765
H       -1.61835233      -0.81274175       1.34406915
H       -2.12237339      -1.03136357      -0.34303283
H       -0.03358934       1.83226251      -0.90152207
H       -1.69466613       1.35278211      -0.54596066
H       -0.60697675       1.80822387       0.77949341
H        2.55910734      -0.89273872      -0.02075102
H        2.00736401       1.33667145      -0.20447734
14
Frame=7 idx=005384 GeodesicLength=0.24438844002949042 rxn_smarts="[C:1]([N:2]([C:3]([H:10])([H:11])[H:12])[C:4](=[O:5])[N:6]([H:13])[H:14])([H:7])([H:8])[H:9]>>[C:1]([N:2]([C:3]([H:10])([H:11])[H:12])/[C:4]([O:5][H:13])=[N:6]\[H:14])([H:7])([H:8])[H:9]"
C       -1.26417907      -1.04668294       0.33342603
N       -0.27678888      -0.08691844      -0.10880867
C       -0.66224954       1.30026671      -0.19228987
C        1.01064606      -0.45195641      -0.27411216
O        1.44467226      -1.61427566       0.08778685
N        2.07398170       0.34004182      -0.31862688
H       -0.82006533      -2.03770800       0.33485498
H       -1.61303289      -0.81248641       1.34492613
H       -2.12462330      -1.02856304      -0.33997095
H       -0.03760408       1.83080081      -0.91058428
H       -1.69585828       1.35372463      -0.53614955
H       -0.59242914       1.80932590       0.77632200
H        2.56731727      -0.89018590      -0.00475750
H        1.99021324       1.33461691      -0.19201613
14
Frame=8 idx=005384 GeodesicLength=0.279375587438938 rxn_smarts="[C:1]([N:2]([C:3]([H:10])([H:11])[H:12])[C:4](=[O:5])[N:6]([H:13])[H:14])([H:7])([H:8])[H:9]>>[C:1]([N:2]([C:3]([H:10])([H:11])[H:12])/[C:4]([O:5][H:13])=[N:6]\[H:14])([H:7])([H:8])[H:9]"
C       -1.26340218      -1.04645372       0.33257505
N       -0.27700487      -0.08771382      -0.11337583
C       -0.65955721       1.30023909      -0.19411629
C        1.00925865      -0.45610503      -0.29050990
O        1.44267444      -1.61395612       0.08626730
N        2.07114264       0.34063450      -0.32054121
H       -0.82048326      -2.03800129       0.33176967
H       -1.60771344      -0.81237780       1.34572684
H       -2.12679917      -1.02570737      -0.33697141
H       -0.04166307       1.82937662      -0.91940620
H       -1.69691029       1.35467780      -0.52619305
H       -0.57795932       1.81038236       0.77315606
H        2.57514993      -0.88724198       0.01227795
H        1.97326715       1.33224676      -0.18065899
14
Frame=9 idx=005384 GeodesicLength=0.3143354543754943 rxn_smarts="[C:1]([N:2]([C:3]([H:10])([H:11])[H:12])[C:4](=[O:5])[N:6]([H:13])[H:14])([H:7])([H:8])[H:9]>>[C:1]([N:2]([C:3]([H:10])([H:11])[H:12])/[C:4]([O:5][H:13])=[N:6]\[H:14])([H:7])([H:8])[H:9]"
C       -1.26257904      -1.04626220       0.33165988
N       -0.27720485      -0.08850538      -0.11796659
C       -0.65686060       1.30021525      -0.19583973
C        1.00791689      -0.46009852      -0.30637479
O        1.44062914      -1.61367776       0.08393338
N        2.06830605       0.34115175      -0.32264231
H       -0.82087372      -2.03833669       0.32840578
H       -1.60224351      -0.81245214       1.34651028
H       -2.12896720      -1.02276984      -0.33393947
H       -0.04579979       1.82798835      -0.92804077
H       -1.69785112       1.35566835      -0.51599555
H       -0.56344928       1.81136135       0.76998891
H        2.58245143      -0.88387024       0.03075207
H        1.95652558       1.32958772      -0.17045110
14
Frame=10 idx=005384 GeodesicLength=0.3493828072406405 rxn_smarts="[C:1]([N:2]([C:3]([H:10])([H:11])[H:12])[C:4](=[O:5])[N:6]([H:13])[H:14])([H:7])([H:8])[H:9]>>[C:1]([N:2]([C:3]([H:10])([H:11])[H:12])/[C:4]([O:5][H:13])=[N:6]\[H:14])([H:7])([H:8])[H:9]"
C       -1.26173272      -1.04610401       0.33066630
N       -0.27739251      -0.08929511      -0.12256230
C       -0.65415689       1.30018928      -0.19745955
C        1.00661634      -0.46394670      -0.32173339
O        1.43858852      -1.61348628       0.08117522
N        2.06547409       0.34161385      -0.32490728
H       -0.82128118      -2.03871262       0.32475710
H       -1.59667029      -0.81270915       1.34725013
H       -2.13112906      -1.01974246      -0.33090746
H       -0.05000689       1.82663172      -0.93648271
H       -1.69866745       1.35669056      -0.50557178
H       -0.54891521       1.81225850       0.76681687
H        2.58927264      -0.88007154       0.05023577
H        1.94000061       1.32668396      -0.16127693
14
Frame=11 idx=005384 GeodesicLength=0.3844906838423327 rxn_smarts="[C:1]([N:2]([C:3]([H:10])([H:11])[H:12])[C:4](=[O:5])[N:6]([H:13])[H:14])([H:7])([H:8])[H:9]>>[C:1]([N:2]([C:3]([H:10])([H:11])[H:12])/[C:4]([O:5][H:13])=[N:6]\[H:14])([H:7])([H:8])[H:9]"
C       -1.26085896      -1.04598612       0.32958556
N       -0.27757386      -0.09008785      -0.12718973
C       -0.65144159       1.30016108      -0.19897246
C        1.00534557      -0.46767727      -0.33669125
O        1.43655582      -1.61333019       0.07805305
N        2.06265622       0.34200110      -0.32734064
H       -0.82169438      -2.03913315       0.32080904
H       -1.59096740      -0.81315891       1.34794614
H       -2.13329293      -1.01662849      -0.32786605
H       -0.05429306       1.82531021      -0.94473715
H       -1.69936096       1.35775557      -0.49488614
H       -0.53432235       1.81305821       0.76364924
H        2.59554281      -0.87583981       0.07078597
H        1.92370507       1.32355562      -0.15314558
14
Frame=12 idx=005384 GeodesicLength=0.41966796261344047 rxn_smarts="[C:1]([N:2]([C:3]([H:10])([H:11])[H:12])[C:4](=[O:5])[N:6]([H:13])[H:14])([H:7])([H:8])[H:9]>>[C:1]([N:2]([C:3]([H:10])([H:11])[H:12])/[C:4]([O:5][H:13])=[N:6]\[H:14])([H:7])([H:8])[H:9]"
C       -1.25997083      -1.04590593       0.32842545
N       -0.27774362      -0.09087243      -0.13177994
C       -0.64871605       1.30012822      -0.20037026
C        1.00410743      -0.47128827      -0.35120884
O        1.43453453      -1.61315616       0.07475373
N        2.05986417       0.34232263      -0.32981477
H       -0.82211215      -2.03958428       0.31663346
H       -1.58523618      -0.81378112       1.34857037
H       -2.13541514      -1.01345698      -0.32487497
H       -0.05862690       1.82402065      -0.95276983
H       -1.69990669       1.35883450      -0.48400416
H       -0.51974462       1.81377534       0.76048790
H        2.60132256      -0.87129658       0.09197505
H        1.90764349       1.32026040      -0.14602321
14
Frame=13 idx=005384 GeodesicLength=0.4548845216080238 rxn_smarts="[C:1]([N:2]([C:3]([H:10])([H:11])[H:12])[C:4](=[O:5])[N:6]([H:13])[H:14])([H:7])([H:8])[H:9]>>[C:1]([N:2]([C:3]([H:10])([H:11])[H:12])/[C:4]([O:5][H:13])=[N:6]\[H:14])([H:7])([H:8])[H:9]"
C       -1.25907918      -1.04586563       0.32719373
N       -0.27790526      -0.09164489      -0.13630554
C       -0.64598850       1.30010061      -0.20165590
C        1.00289630      -0.47479680      -0.36530349
O        1.43254976      -1.61294888       0.07141414
N        2.05710788       0.34257515      -0.33232649
H       -0.82252788      -2.04006749       0.31229221
H       -1.57953202      -0.81455281       1.34911300
H       -2.13748435      -1.01025764      -0.32196857
H       -0.06299443       1.82278004      -0.96056309
H       -1.70030532       1.35992586      -0.47297999
H       -0.50522973       1.81442981       0.75733805
H        2.60665438      -0.86649328       0.11354529
H        1.89183836       1.31681595      -0.13979335
14
Frame=14 idx=005384 GeodesicLength=0.49012159913304393 rxn_smarts="[C:1]([N:2]([C:3]([H:10])([H:11])[H:12])[C:4](=[O:5])[N:6]([H:13])[H:14])([H:7])([H:8])[H:9]>>[C:1]([N:2]([C:3]([H:10])([H:11])[H:12])/[C:4]([O:5][H:13])=[N:6]\[H:14])([H:7])([H:8])[H:9]"
C       -1.25819024      -1.04585844       0.32590689
N       -0.27805807      -0.09239901      -0.14073452
C       -0.64326308       1.30007560      -0.20283823
C        1.00170756      -0.47820504      -0.37898206
O        1.43060222      -1.61268951       0.06809725
N        2.05438821       0.34276489      -0.33482901
H       -0.82293672      -2.04056759       0.30785175
H       -1.57390827      -0.81544483       1.34956990
H       -2.13947905      -1.00705158      -0.31916453
H       -0.06737082       1.82158740      -0.96810491
H       -1.70054671       1.36100827      -0.46187628
H       -0.49083365       1.81503048       0.75419156
H        2.61159591      -0.86149270       0.13525087
H        1.87629271       1.31324207      -0.13433868
14
Frame=15 idx=005384 GeodesicLength=0.5253707462224189 rxn_smarts="[C:1]([N:2]([C:3]([H:10])([H:11])[H:12])[C:4](=[O:5])[N:6]([H:13])[H:14])([H:7])([H:8])[H:9]>>[C:1]([N:2]([C:3]([H:10])([H:11])[H:12])/[C:4]([O:5][H:13])=[N:6]\[H:14])([H:7])([H:8])[H:9]"
C       -1.25730976      -1.04587911       0.32458117
N       -0.27820204      -0.09312940      -0.14503979
C       -0.64054605       1.30005481      -0.20392574
C        1.00053664      -0.48151685      -0.39225653
O        1.42869216      -1.61237090       0.06483948
N        2.05170587       0.34289738      -0.33729137
H       -0.82333321      -2.04107504       0.30337473
H       -1.56841049      -0.81642824       1.34994104
H       -2.14138414      -1.00386020      -0.31647861
H       -0.07173692       1.82044660      -0.97538696
H       -1.70062863       1.36206721      -0.45075268
H       -0.47660708       1.81559165       0.75104446
H        2.61621499      -0.85635301       0.15689913
H        1.86100867       1.30955510      -0.12954832
14
Frame=16 idx=005384 GeodesicLength=0.5606221456151285 rxn_smarts="[C:1]([N:2]([C:3]([H:10])([H:11])[H:12])[C:4](=[O:5])[N:6]([H:13])[H:14])([H:7])([H:8])[H:9]>>[C:1]([N:2]([C:3]([H:10])([H:11])[H:12])/[C:4]([O:5][H:13])=[N:6]\[H:14])([H:7])([H:8])[H:9]"
C       -1.25644193      -1.04592246       0.32323143
N       -0.27833744      -0.09383210      -0.14920257
C       -0.63784282       1.30003947      -0.20492627
C        0.99937817      -0.48473617      -0.40514672
O        1.42681778      -1.61199187       0.06165291
N        2.04905973       0.34297678      -0.33969723
H       -0.82371231      -2.04158157       0.29891457
H       -1.56307280      -0.81747670       1.35022927
H       -2.14318960      -1.00070091      -0.31392007
H       -0.07607633       1.81936208      -0.98240362
H       -1.70055194       1.36309122      -0.43966032
H       -0.46259116       1.81612381       0.74789570
H        2.62057370      -0.85111710       0.17835779
H        1.84598694       1.30576551      -0.12532487
