13
Frame=0 idx=000714 GeodesicLength=0.0 rxn_smarts="[O:1]([C:2]([C:3]([C:4]([O:5][H:13])([H:11])[H:12])([H:9])[H:10])([H:7])[H:8])[H:6]>>[O:1]([C:2]([C:3]([C:4][H:11])([H:9])[H:10])([H:7])[H:8])[H:6].[O:5]([H:12])[H:13]"
O       -0.73912116       1.45396949       0.24702577
C       -1.13863151       0.08031836       0.28866744
C       -0.24909311      -0.67046427      -0.68865222
C        1.15748897      -0.98667568      -0.27631436
O        1.84912140       0.57449042       0.36924638
H       -1.18882761       1.94052284       0.93904600
H       -2.19238239      -0.00236120      -0.00086307
H       -1.02032591      -0.32244149       1.30112326
H       -0.28234809      -0.14350303      -1.64794391
H       -0.68281128      -1.66191602      -0.87467331
H        1.17554477      -1.52249354       0.67564741
H        2.16358072       0.05053686      -0.48007410
H        1.14780519       1.21001723       0.14776469
13
Frame=1 idx=000714 GeodesicLength=0.06264927766409113 rxn_smarts="[O:1]([C:2]([C:3]([C:4]([O:5][H:13])([H:11])[H:12])([H:9])[H:10])([H:7])[H:8])[H:6]>>[O:1]([C:2]([C:3]([C:4][H:11])([H:9])[H:10])([H:7])[H:8])[H:6].[O:5]([H:12])[H:13]"
O       -0.73550801       1.45203982       0.25959503
C       -1.14209554       0.07990761       0.28660941
C       -0.24675435      -0.66975945      -0.68607826
C        1.15933823      -0.97822279      -0.26303104
O        1.85065258       0.57011164       0.35328306
H       -1.18947779       1.93541208       0.95103062
H       -2.19327660       0.00494680      -0.01427810
H       -1.03713746      -0.33031690       1.29756899
H       -0.27573581      -0.14404656      -1.64620238
H       -0.67776369      -1.66209006      -0.87251615
H        1.17281215      -1.50986513       0.69171479
H        2.16899677       0.04346317      -0.50864626
H        1.14594953       1.20841977       0.15095030
13
Frame=2 idx=000714 GeodesicLength=0.12527747272066767 rxn_smarts="[O:1]([C:2]([C:3]([C:4]([O:5][H:13])([H:11])[H:12])([H:9])[H:10])([H:7])[H:8])[H:6]>>[O:1]([C:2]([C:3]([C:4][H:11])([H:9])[H:10])([H:7])[H:8])[H:6].[O:5]([H:12])[H:13]"
O       -0.73194258       1.44998930       0.27225001
C       -1.14546555       0.07952017       0.28451372
C       -0.24439215      -0.66902791      -0.68356339
C        1.16121983      -0.96956886      -0.25006073
O        1.85194237       0.56612113       0.33735918
H       -1.19016555       1.93016156       0.96307907
H       -2.19393419       0.01234051      -0.02758729
H       -1.05373433      -0.33815546       1.29373928
H       -0.26927031      -0.14462210      -1.64452815
H       -0.67265219      -1.66227361      -0.87027860
H        1.17021528      -1.49672981       0.70759485
H        2.17404520       0.03531836      -0.53668726
H        1.14413416       1.20692672       0.15416931
13
Frame=3 idx=000714 GeodesicLength=0.18789150667666388 rxn_smarts="[O:1]([C:2]([C:3]([C:4]([O:5][H:13])([H:11])[H:12])([H:9])[H:10])([H:7])[H:8])[H:6]>>[O:1]([C:2]([C:3]([C:4][H:11])([H:9])[H:10])([H:7])[H:8])[H:6].[O:5]([H:12])[H:13]"
O       -0.72844094       1.44782491       0.28496008
C       -1.14873492       0.07915757       0.28239262
C       -0.24201269      -0.66826162      -0.68111417
C        1.16313445      -0.96071160      -0.23743079
O        1.85296651       0.56249929       0.32151180
H       -1.19093313       1.92479817       0.97512891
H       -2.19436115       0.01979086      -0.04073658
H       -1.07006031      -0.34593093       1.28965666
H       -0.26296239      -0.14521554      -1.64292627
H       -0.66749022      -1.66245448      -0.86797150
H        1.16776310      -1.48312543       0.72323393
H        2.17878436       0.02608919      -0.56417093
H        1.14234732       1.20553962       0.15746625
13
Frame=4 idx=000714 GeodesicLength=0.2505005283675139 rxn_smarts="[O:1]([C:2]([C:3]([C:4]([O:5][H:13])([H:11])[H:12])([H:9])[H:10])([H:7])[H:8])[H:6]>>[O:1]([C:2]([C:3]([C:4][H:11])([H:9])[H:10])([H:7])[H:8])[H:6].[O:5]([H:12])[H:13]"
O       -0.72501985       1.44555630       0.29768884
C       -1.15189608       0.07882089       0.28026104
C       -0.23962272      -0.66745229      -0.67873829
C        1.16508387      -0.95165045      -0.22517285
O        1.85369998       0.55922583       0.30578619
H       -1.19182677       1.91935747       0.98710580
H       -2.19456708       0.02726288      -0.05366385
H       -1.08605063      -0.35361368       1.28535100
H       -0.25682372      -0.14581114      -1.64140224
H       -0.66229271      -1.66261939      -0.86560884
H        1.16546686      -1.46910395       0.73856836
H        2.18326963       0.01576808      -0.59106357
H        1.14057922       1.20425946       0.16088840
13
Frame=5 idx=000714 GeodesicLength=0.31314877570786637 rxn_smarts="[O:1]([C:2]([C:3]([C:4]([O:5][H:13])([H:11])[H:12])([H:9])[H:10])([H:7])[H:8])[H:6]>>[O:1]([C:2]([C:3]([C:4][H:11])([H:9])[H:10])([H:7])[H:8])[H:6].[O:5]([H:12])[H:13]"
O       -0.72169624       1.44319232       0.31039754
C       -1.15494181       0.07850987       0.27813474
C       -0.23722882      -0.66659010      -0.67644342
C        1.16706963      -0.94238399      -0.21331699
O        1.85411888       0.55627754       0.29022607
H       -1.19289155       1.91387555       0.99893174
H       -2.19456541       0.03471706      -0.06630650
H       -1.10163939      -0.36117255       1.28085539
H       -0.25086496      -0.14638961      -1.63996018
H       -0.65707497      -1.66275314      -0.86320830
H        1.16333553      -1.45471584       0.75353969
H        2.18755990       0.00434919      -0.61734223
H        1.13881921       1.20308371       0.16449243
13
Frame=6 idx=000714 GeodesicLength=0.37548635934115593 rxn_smarts="[O:1]([C:2]([C:3]([C:4]([O:5][H:13])([H:11])[H:12])([H:9])[H:10])([H:7])[H:8])[H:6]>>[O:1]([C:2]([C:3]([C:4][H:11])([H:9])[H:10])([H:7])[H:8])[H:6].[O:5]([H:12])[H:13]"
O       -0.71846529       1.44074212       0.32306222
C       -1.15786273       0.07822353       0.27602446
C       -0.23482554      -0.66567220      -0.67422819
C        1.16908572      -0.93295296      -0.20184528
O        1.85427468       0.55360741       0.27476048
H       -1.19416946       1.90839399       1.01052748
H       -2.19436109       0.04212377      -0.07863644
H       -1.11679998      -0.36859403       1.27620510
H       -0.24506313      -0.14693762      -1.63859616
H       -0.65185329      -1.66283892      -0.86079331
H        1.16135661      -1.44002560       0.76814640
H        2.19162552      -0.00804951      -0.64302961
H        1.13705798       1.20198002       0.16840285
13
Frame=7 idx=000714 GeodesicLength=0.4378135867374171 rxn_smarts="[O:1]([C:2]([C:3]([C:4]([O:5][H:13])([H:11])[H:12])([H:9])[H:10])([H:7])[H:8])[H:6]>>[O:1]([C:2]([C:3]([C:4][H:11])([H:9])[H:10])([H:7])[H:8])[H:6].[O:5]([H:12])[H:13]"
O       -0.71534467       1.43820585       0.33569358
C       -1.16067028       0.07795850       0.27393006
C       -0.23242199      -0.66469497      -0.67209812
C        1.17113419      -0.92333036      -0.19078160
O        1.85412083       0.55125598       0.25943220
H       -1.19564569       1.90289953       1.02193341
H       -2.19397161       0.04948539      -0.09065853
H       -1.13154026      -0.37589272       1.27139735
H       -0.23943680      -0.14744887      -1.63731297
H       -0.64662086      -1.66288054      -0.85836316
H        1.15954081      -1.42499644       0.78237079
H        2.19555862      -0.02153713      -0.66811046
H        1.13529772       1.20097577       0.17256745
13
Frame=8 idx=000714 GeodesicLength=0.500170060592886 rxn_smarts="[O:1]([C:2]([C:3]([C:4]([O:5][H:13])([H:11])[H:12])([H:9])[H:10])([H:7])[H:8])[H:6]>>[O:1]([C:2]([C:3]([C:4][H:11])([H:9])[H:10])([H:7])[H:8])[H:6].[O:5]([H:12])[H:13]"
O       -0.71233556       1.43557705       0.34831330
C       -1.16337744       0.07771207       0.27184398
C       -0.23001286      -0.66365495      -0.67005325
C        1.17322228      -0.91351005      -0.18010401
O        1.85365871       0.54924528       0.24417682
H       -1.19728990       1.89736289       1.03320835
H       -2.19341103       0.05681840      -0.10241090
H       -1.14590632      -0.38309706       1.26643114
H       -0.23396645      -0.14791761      -1.63611405
H       -0.64136829      -1.66287469      -0.85592605
H        1.15788904      -1.40957828       0.79625858
H        2.19936801      -0.03616237      -0.69261053
H        1.13352981       1.20007933       0.17698662
13
Frame=9 idx=000714 GeodesicLength=0.5625326749833485 rxn_smarts="[O:1]([C:2]([C:3]([C:4]([O:5][H:13])([H:11])[H:12])([H:9])[H:10])([H:7])[H:8])[H:6]>>[O:1]([C:2]([C:3]([C:4][H:11])([H:9])[H:10])([H:7])[H:8])[H:6].[O:5]([H:12])[H:13]"
O       -0.70943867       1.43285064       0.36096202
C       -1.16600069       0.07748187       0.26975100
C       -0.22759488      -0.66255866      -0.66808978
C        1.17534810      -0.90349292      -0.16977977
O        1.85291843       0.54761231       0.22891342
H       -1.19905704       1.89174313       1.04444988
H       -2.19268708       0.06415313      -0.11395845
H       -1.15997095      -0.39024824       1.26127986
H       -0.22863896      -0.14835381      -1.63499787
H       -0.63608458      -1.66283320      -0.85347936
H        1.15638154      -1.39370039       0.80987451
H        2.20306925      -0.05195214      -0.71657074
H        1.13175553       1.19929828       0.18164528
13
Frame=10 idx=000714 GeodesicLength=0.6248855993951941 rxn_smarts="[O:1]([C:2]([C:3]([C:4]([O:5][H:13])([H:11])[H:12])([H:9])[H:10])([H:7])[H:8])[H:6]>>[O:1]([C:2]([C:3]([C:4][H:11])([H:9])[H:10])([H:7])[H:8])[H:6].[O:5]([H:12])[H:13]"
O       -0.70664143       1.43000762       0.37365508
C       -1.16853629       0.07726497       0.26764090
C       -0.22516230      -0.66139761      -0.66620368
C        1.17750495      -0.89326812      -0.15979062
O        1.85186412       0.54635359       0.21355998
H       -1.20091833       1.88599764       1.05569079
H       -2.19178436       0.07151283      -0.12533461
H       -1.17375680      -0.39736993       1.25593149
H       -0.22344368      -0.14874668      -1.63395953
H       -0.63075305      -1.66274276      -0.85101709
H        1.15502091      -1.37730413       0.82325197
H        2.20663821      -0.06893618      -0.73998837
H        1.12996805       1.19862876       0.18656368
13
Frame=11 idx=000714 GeodesicLength=0.6872364474540766 rxn_smarts="[O:1]([C:2]([C:3]([C:4]([O:5][H:13])([H:11])[H:12])([H:9])[H:10])([H:7])[H:8])[H:6]>>[O:1]([C:2]([C:3]([C:4][H:11])([H:9])[H:10])([H:7])[H:8])[H:6].[O:5]([H:12])[H:13]"
O       -0.70395637       1.42706571       0.38640320
C       -1.17100476       0.07706306       0.26551973
C       -0.22272048      -0.66018343      -0.66440672
C        1.17971241      -0.88284011      -0.15015376
O        1.85052809       0.54549031       0.19810978
H       -1.20290029       1.88015654       1.06694420
H       -2.19074495       0.07889010      -0.13653024
H       -1.18728156      -0.40445836       1.25039867
H       -0.21838570      -0.14911188      -1.63301585
H       -0.62538701      -1.66262694      -0.84855744
H        1.15381713      -1.36039419       0.83637219
H        2.21013083      -0.08713144      -0.76286089
H        1.12819266       1.19808062       0.19177714
13
Frame=12 idx=000714 GeodesicLength=0.7495863805124374 rxn_smarts="[O:1]([C:2]([C:3]([C:4]([O:5][H:13])([H:11])[H:12])([H:9])[H:10])([H:7])[H:8])[H:6]>>[O:1]([C:2]([C:3]([C:4][H:11])([H:9])[H:10])([H:7])[H:8])[H:6].[O:5]([H:12])[H:13]"
O       -0.70137107       1.42400247       0.39918482
C       -1.17337934       0.07687392       0.26338425
C       -0.22026621      -0.65889698      -0.66269080
C        1.18194997      -0.87219165      -0.14086873
O        1.84885969       0.54501849       0.18255149
H       -1.20497575       1.87418377       1.07817852
H       -2.18952747       0.08628596      -0.14754350
H       -1.20050623      -0.41152424       1.24467769
H       -0.21346994      -0.14942618      -1.63215656
H       -0.61997209      -1.66244954      -0.84608144
H        1.15275488      -1.34296577       0.84922258
H        2.21349637      -0.10653490      -0.78515539
H        1.12640719       1.19762464       0.19729707
13
Frame=13 idx=000714 GeodesicLength=0.8119416289290028 rxn_smarts="[O:1]([C:2]([C:3]([C:4]([O:5][H:13])([H:11])[H:12])([H:9])[H:10])([H:7])[H:8])[H:6]>>[O:1]([C:2]([C:3]([C:4][H:11])([H:9])[H:10])([H:7])[H:8])[H:6].[O:5]([H:12])[H:13]"
O       -0.69889066       1.42082847       0.41202929
C       -1.17568808       0.07669923       0.26122970
C       -0.21780222      -0.65755269      -0.66106763
C        1.18424210      -0.86132098      -0.13194310
O        1.84686949       0.54496162       0.16682827
H       -1.20714439       1.86808404       1.08945617
H       -2.18817388       0.09371652      -0.15839751
H       -1.21348514      -0.41857549       1.23876529
H       -0.20869597      -0.14971305      -1.63140031
H       -0.61451110      -1.66224309      -0.84360163
H        1.15186019      -1.32497733       0.86180848
H        2.21677318      -0.12718633      -0.80685964
H        1.12464648       1.19727906       0.20315261
13
Frame=14 idx=000714 GeodesicLength=0.8742919420219323 rxn_smarts="[O:1]([C:2]([C:3]([C:4]([O:5][H:13])([H:11])[H:12])([H:9])[H:10])([H:7])[H:8])[H:6]>>[O:1]([C:2]([C:3]([C:4][H:11])([H:9])[H:10])([H:7])[H:8])[H:6].[O:5]([H:12])[H:13]"
O       -0.69651647       1.41755176       0.42488885
C       -1.17790914       0.07653851       0.25907391
C       -0.21533308      -0.65614009      -0.65954167
C        1.18658616      -0.85022744      -0.12341487
O        1.84452492       0.54529989       0.15100780
H       -1.20944111       1.86190264       1.10066946
H       -2.18667981       0.10114106      -0.16902558
H       -1.22613073      -0.42558366       1.23269802
H       -0.20407933      -0.14995411      -1.63074617
H       -0.60901272      -1.66198810      -0.84112583
H        1.15113703      -1.30651849       0.87404187
H        2.21994485      -0.14904123      -0.82790983
H        1.12290941       1.19701926       0.20938405
13
Frame=15 idx=000714 GeodesicLength=0.9366499334050244 rxn_smarts="[O:1]([C:2]([C:3]([C:4]([O:5][H:13])([H:11])[H:12])([H:9])[H:10])([H:7])[H:8])[H:6]>>[O:1]([C:2]([C:3]([C:4][H:11])([H:9])[H:10])([H:7])[H:8])[H:6].[O:5]([H:12])[H:13]"
O       -0.69424290       1.41416365       0.43777856
C       -1.18005362       0.07639117       0.25690438
C       -0.21285800      -0.65466381      -0.65811568
C        1.18898833      -0.83889970      -0.11527662
O        1.84180600       0.54605926       0.13504147
H       -1.21181855       1.85560006       1.11188824
H       -2.18505333       0.10858540      -0.17946643
H       -1.23848446      -0.43257018       1.22646089
H       -0.19961641      -0.15016235      -1.63020452
H       -0.60347035      -1.66169295      -0.83864907
H        1.15058921      -1.28753915       0.88594508
H        2.22300102      -0.17211924      -0.84828200
H        1.12121307       1.19684783       0.21597570
13
Frame=16 idx=000714 GeodesicLength=0.9989991915587757 rxn_smarts="[O:1]([C:2]([C:3]([C:4]([O:5][H:13])([H:11])[H:12])([H:9])[H:10])([H:7])[H:8])[H:6]>>[O:1]([C:2]([C:3]([C:4][H:11])([H:9])[H:10])([H:7])[H:8])[H:6].[O:5]([H:12])[H:13]"
O       -0.69207171       1.41067876       0.45064459
C       -1.18210296       0.07625586       0.25473997
C       -0.21038236      -0.65311720      -0.65679588
C        1.19144858      -0.82734211      -0.10756668
O        1.83868287       0.54721766       0.11902393
H       -1.21429929       1.84922743       1.12301227
H       -2.18329879       0.11600235      -0.18965090
H       -1.25046373      -0.43950476       1.22009628
H       -0.19531818      -0.15032097      -1.62977537
H       -0.59789712      -1.66134389      -0.83618429
H        1.15022119      -1.26814943       0.89742551
H        2.22592090      -0.19635121      -0.86790238
H        1.11956060       1.19674753       0.22293298
