16
Frame=0 idx=006621 GeodesicLength=0.0 rxn_smarts="[C:1]([C@@:2]([O:3][H:12])([C:4]([N:5]([C:6](=[O:7])[H:16])[H:15])([H:13])[H:14])[H:11])([H:8])([H:9])[H:10]>>[C:1]([C@@:2]1([H:11])[O:3][C:6](=[O:7])[N:5]([H:15])[C:4]1([H:13])[H:14])([H:8])([H:9])[H:10].[H:12][H:16]"
C       -1.96326904      -0.52426142      -0.41760352
C       -0.45439666      -0.43269019      -0.36062302
O       -0.00812317       0.81332567      -0.85702437
C        0.12194453      -0.48534555       1.06061702
N        1.42396742       0.16709936       1.00196343
C        1.34843756       1.27300047       0.13894829
O        1.46792303       2.42632841       0.31493968
H       -2.30735170      -1.46872489       0.01012724
H       -2.31275692      -0.46745668      -1.44820132
H       -2.41087910       0.29842209       0.14236243
H       -0.00999895      -1.24371917      -0.95427821
H        1.13878259       0.71934726      -1.37266225
H       -0.52394689       0.07023735       1.74419712
H        0.23321679      -1.50013275       1.43866579
H        2.16004810      -0.46126122       0.71479708
H        2.09640247       0.81583121      -1.15622539
16
Frame=1 idx=006621 GeodesicLength=0.07763222108312008 rxn_smarts="[C:1]([C@@:2]([O:3][H:12])([C:4]([N:5]([C:6](=[O:7])[H:16])[H:15])([H:13])[H:14])[H:11])([H:8])([H:9])[H:10]>>[C:1]([C@@:2]1([H:11])[O:3][C:6](=[O:7])[N:5]([H:15])[C:4]1([H:13])[H:14])([H:8])([H:9])[H:10].[H:12][H:16]"
C       -1.96301976      -0.52110099      -0.41579193
C       -0.45372146      -0.43249261      -0.36188983
O       -0.00979881       0.81279012      -0.86214874
C        0.12167571      -0.48790581       1.05926110
N        1.41929771       0.17177527       1.00958849
C        1.35926140       1.26884573       0.14021259
O        1.45724323       2.42640940       0.31258561
H       -2.30827086      -1.46796290       0.00556565
H       -2.31476133      -0.45578794      -1.44511729
H       -2.40835366       0.29851370       0.15057872
H       -0.01250615      -1.24377297      -0.95718182
H        1.13172907       0.72460004      -1.40568509
H       -0.52600211       0.05808509       1.74884615
H        0.23779323      -1.50534012       1.42927137
H        2.17200958      -0.45103546       0.75718184
H        2.09742422       0.80437945      -1.16527682
16
Frame=2 idx=006621 GeodesicLength=0.15524448214855133 rxn_smarts="[C:1]([C@@:2]([O:3][H:12])([C:4]([N:5]([C:6](=[O:7])[H:16])[H:15])([H:13])[H:14])[H:11])([H:8])([H:9])[H:10]>>[C:1]([C@@:2]1([H:11])[O:3][C:6](=[O:7])[N:5]([H:15])[C:4]1([H:13])[H:14])([H:8])([H:9])[H:10].[H:12][H:16]"
C       -1.96264706      -0.51784229      -0.41400471
C       -0.45292728      -0.43226047      -0.36322278
O       -0.01130508       0.81226329      -0.86731271
C        0.12156127      -0.49061816       1.05781931
N        1.41462803       0.17640297       1.01727366
C        1.37041295       1.26454513       0.14169095
O        1.44701675       2.42600145       0.31011680
H       -2.30913530      -1.46704857       0.00093410
H       -2.31664830      -0.44398022      -1.44197607
H       -2.40562565       0.29867435       0.15877878
H       -0.01497494      -1.24376191      -0.96023513
H        1.12402051       0.73024291      -1.43943572
H       -0.52792685       0.04543251       1.75347461
H        0.24277316      -1.51066632       1.41954659
H        2.18333232      -0.43977241       0.80132889
H        2.09744548       0.79238772      -1.17477655
16
Frame=3 idx=006621 GeodesicLength=0.232841143460433 rxn_smarts="[C:1]([C@@:2]([O:3][H:12])([C:4]([N:5]([C:6](=[O:7])[H:16])[H:15])([H:13])[H:14])[H:11])([H:8])([H:9])[H:10]>>[C:1]([C@@:2]1([H:11])[O:3][C:6](=[O:7])[N:5]([H:15])[C:4]1([H:13])[H:14])([H:8])([H:9])[H:10].[H:12][H:16]"
C       -1.96214101      -0.51447042      -0.41223763
C       -0.45200432      -0.43200761      -0.36462387
O       -0.01259987       0.81170945      -0.87254745
C        0.12161577      -0.49349531       1.05628722
N        1.40997225       0.18095854       1.02501234
C        1.38190749       1.26008195       0.14340537
O        1.43723837       2.42509520       0.30755313
H       -2.30995273      -1.46595356      -0.00374967
H       -2.31840744      -0.43202595      -1.43877293
H       -2.40266491       0.29893518       0.16695699
H       -0.01741425      -1.24371566      -0.96343078
H        1.11563910       0.73620753      -1.47392224
H       -0.52970212       0.03225670       1.75807087
H        0.24817767      -1.51611461       1.40948295
H        2.19390807      -0.42741892       0.84725353
H        2.09642791       0.77995750      -1.18473782
16
Frame=4 idx=006621 GeodesicLength=0.3104241233072789 rxn_smarts="[C:1]([C@@:2]([O:3][H:12])([C:4]([N:5]([C:6](=[O:7])[H:16])[H:15])([H:13])[H:14])[H:11])([H:8])([H:9])[H:10]>>[C:1]([C@@:2]1([H:11])[O:3][C:6](=[O:7])[N:5]([H:15])[C:4]1([H:13])[H:14])([H:8])([H:9])[H:10].[H:12][H:16]"
C       -1.96149287      -0.51096848      -0.41048443
C       -0.45094394      -0.43174942      -0.36609641
O       -0.01364219       0.81109156      -0.87788581
C        0.12185639      -0.49655355       1.05465806
N        1.40534532       0.18540932       1.03279099
C        1.39375845       1.25543826       0.14537728
O        1.42789810       2.42367826       0.30491667
H       -2.31073454      -1.46464756      -0.00846663
H       -2.32003085      -0.41991301      -1.43550027
H       -2.39943965       0.29933060       0.17511165
H       -0.01983672      -1.24366580      -0.96676462
H        1.10657183       0.74240615      -1.50915369
H       -0.53130461       0.01853358       1.76262283
H        0.25403180      -1.52169161       1.39907009
H        2.20361725      -0.41390614       0.89497784
H        2.09434623       0.76720785      -1.19517356
16
Frame=5 idx=006621 GeodesicLength=0.388002654004877 rxn_smarts="[C:1]([C@@:2]([O:3][H:12])([C:4]([N:5]([C:6](=[O:7])[H:16])[H:15])([H:13])[H:14])[H:11])([H:8])([H:9])[H:10]>>[C:1]([C@@:2]1([H:11])[O:3][C:6](=[O:7])[N:5]([H:15])[C:4]1([H:13])[H:14])([H:8])([H:9])[H:10].[H:12][H:16]"
C       -1.96069553      -0.50732055      -0.40873814
C       -0.44973802      -0.43150143      -0.36764330
O       -0.01439344       0.81037322      -0.88335849
C        0.12229887      -0.49980794       1.05292494
N        1.40076817       0.18971851       1.04059330
C        1.40597934       1.25059276       0.14763026
O        1.41898698       2.42173799       0.30222736
H       -2.31149048      -1.46310222      -0.01319521
H       -2.32151388      -0.40763197      -1.43215094
H       -2.39591987       0.29989326       0.18324311
H       -0.02225528      -1.24364330      -0.97023226
H        1.09679949       0.74875201      -1.54513941
H       -0.53270781       0.00424009       1.76711796
H        0.26035334      -1.52740134       1.38830017
H        2.21232983      -0.39916694       0.94451279
H        2.09119830       0.75426784      -1.20609214
16
Frame=6 idx=006621 GeodesicLength=0.4655677375560091 rxn_smarts="[C:1]([C@@:2]([O:3][H:12])([C:4]([N:5]([C:6](=[O:7])[H:16])[H:15])([H:13])[H:14])[H:11])([H:8])([H:9])[H:10]>>[C:1]([C@@:2]1([H:11])[O:3][C:6](=[O:7])[N:5]([H:15])[C:4]1([H:13])[H:14])([H:8])([H:9])[H:10].[H:12][H:16]"
C       -1.95973843      -0.50350888      -0.40698752
C       -0.44837711      -0.43128217      -0.36927132
O       -0.01481429       0.80951539      -0.88900015
C        0.12296476      -0.50327985       1.05107520
N        1.39627699       0.19382867       1.04838375
C        1.41858956       1.24552195       0.15018044
O        1.41049253       2.41924951       0.29951519
H       -2.31223116      -1.46128512      -0.01791004
H       -2.32284952      -0.39516591      -1.42871049
H       -2.39206684       0.30065793       0.19135797
H       -0.02468680      -1.24368225      -0.97383567
H        1.08629749       0.75513438      -1.58189437
H       -0.53387261      -0.01064026       1.77153725
H        0.26716294      -1.53325433       1.37716042
H        2.21986795      -0.38310858       0.99590595
H        2.08698454       0.74129954      -1.21750662
16
Frame=7 idx=006621 GeodesicLength=0.5431080654372138 rxn_smarts="[C:1]([C@@:2]([O:3][H:12])([C:4]([N:5]([C:6](=[O:7])[H:16])[H:15])([H:13])[H:14])[H:11])([H:8])([H:9])[H:10]>>[C:1]([C@@:2]1([H:11])[O:3][C:6](=[O:7])[N:5]([H:15])[C:4]1([H:13])[H:14])([H:8])([H:9])[H:10].[H:12][H:16]"
C       -1.95861188      -0.49951811      -0.40521967
C       -0.44685272      -0.43110926      -0.37098715
O       -0.01486859       0.80848104      -0.89484345
C        0.12387206      -0.50698800       1.04909300
N        1.39191484       0.19767813       1.05612483
C        1.43160778       1.24019852       0.15304752
O        1.40240706       2.41618752       0.29680841
H       -2.31296556      -1.45916757      -0.02258149
H       -2.32403122      -0.38250339      -1.42516257
H       -2.38784372       0.30165447       0.19946302
H       -0.02714795      -1.24381415      -0.97757442
H        1.07503174       0.76145494      -1.61942892
H       -0.53475845      -0.02611990       1.77585645
H        0.27446984      -1.53925561       1.36564078
H        2.22604969      -0.36563999       1.04918081
H        2.08172709       0.72846137      -1.22941716
16
Frame=8 idx=006621 GeodesicLength=0.6206080476903993 rxn_smarts="[C:1]([C@@:2]([O:3][H:12])([C:4]([N:5]([C:6](=[O:7])[H:16])[H:15])([H:13])[H:14])[H:11])([H:8])([H:9])[H:10]>>[C:1]([C@@:2]1([H:11])[O:3][C:6](=[O:7])[N:5]([H:15])[C:4]1([H:13])[H:14])([H:8])([H:9])[H:10].[H:12][H:16]"
C       -1.95730629      -0.49533303      -0.40341803
C       -0.44515530      -0.43099971      -0.37280246
O       -0.01452654       0.80724038      -0.90092025
C        0.12504878      -0.51095580       1.04695576
N        1.38773841       0.20118962       1.06376193
C        1.44505978       1.23459243       0.15623862
O        1.39474213       2.41251522       0.29413179
H       -2.31370277      -1.45672582      -0.02718218
H       -2.32505980      -0.36962414      -1.42148437
H       -2.38321168       0.30291052       0.20757659
H       -0.02965610      -1.24406742      -0.98146014
H        1.06295127       0.76760603      -1.65776202
H       -0.53530733      -0.04221158       1.78004694
H        0.28229927      -1.54541861       1.35371745
H        2.23063212      -0.34663895       1.10442361
H        2.07545405       0.71592086      -1.24182324
16
Frame=9 idx=006621 GeodesicLength=0.6980585717335266 rxn_smarts="[C:1]([C@@:2]([O:3][H:12])([C:4]([N:5]([C:6](=[O:7])[H:16])[H:15])([H:13])[H:14])[H:11])([H:8])([H:9])[H:10]>>[C:1]([C@@:2]1([H:11])[O:3][C:6](=[O:7])[N:5]([H:15])[C:4]1([H:13])[H:14])([H:8])([H:9])[H:10].[H:12][H:16]"
C       -1.95580804      -0.49094388      -0.40158113
C       -0.44327657      -0.43095751      -0.37470164
O       -0.01378153       0.80577793      -0.90722354
C        0.12649099      -0.51519568       1.04469967
N        1.38376134       0.20436567       1.07130483
C        1.45897990       1.22868038       0.15975533
O        1.38750511       2.40821403       0.29147824
H       -2.31442560      -1.45394583      -0.03171683
H       -2.32591805      -0.35651540      -1.41768589
H       -2.37815954       0.30443721       0.21570830
H       -0.03220895      -1.24444818      -0.98547266
H        1.05002807       0.77346387      -1.69690264
H       -0.53553808      -0.05891158       1.78415127
H        0.29071176      -1.55174468       1.34142758
H        2.23339039      -0.32614572       1.16147078
H        2.06824880       0.70386937      -1.25471168
16
Frame=10 idx=006621 GeodesicLength=0.7754357090584889 rxn_smarts="[C:1]([C@@:2]([O:3][H:12])([C:4]([N:5]([C:6](=[O:7])[H:16])[H:15])([H:13])[H:14])[H:11])([H:8])([H:9])[H:10]>>[C:1]([C@@:2]1([H:11])[O:3][C:6](=[O:7])[N:5]([H:15])[C:4]1([H:13])[H:14])([H:8])([H:9])[H:10].[H:12][H:16]"
C       -1.95410932      -0.48633757      -0.39968418
C       -0.44120547      -0.43100360      -0.37670702
O       -0.01259853       0.80406629      -0.91379164
C        0.12824265      -0.51973388       1.04227472
N        1.38006186       0.20707800       1.07868728
C        1.47337882       1.22242944       0.16362474
O        1.38072832       2.40324217       0.28889876
H       -2.31515222      -1.45080555      -0.03614077
H       -2.32660917      -0.34315728      -1.41372790
H       -2.37264008       0.30626221       0.22388161
H       -0.03482745      -1.24498932      -0.98963896
H        1.03618552       0.77895025      -1.73686168
H       -0.53535849      -0.07624094       1.78810273
H        0.29967561      -1.55824929       1.32872708
H        2.23408704      -0.30392483       1.22044212
H        2.06014091       0.69241390      -1.26808689
16
Frame=11 idx=006621 GeodesicLength=0.8527307229675233 rxn_smarts="[C:1]([C@@:2]([O:3][H:12])([C:4]([N:5]([C:6](=[O:7])[H:16])[H:15])([H:13])[H:14])[H:11])([H:8])([H:9])[H:10]>>[C:1]([C@@:2]1([H:11])[O:3][C:6](=[O:7])[N:5]([H:15])[C:4]1([H:13])[H:14])([H:8])([H:9])[H:10].[H:12][H:16]"
C       -1.95219272      -0.48150839      -0.39770941
C       -0.43893041      -0.43114973      -0.37882025
O       -0.01096292       0.80208935      -0.92063013
C        0.13032073      -0.52458712       1.03967088
N        1.37670501       0.20924998       1.08587492
C        1.48828282       1.21580155       0.16786326
O        1.37444870       2.39756000       0.28641879
H       -2.31587667      -1.44729197      -0.04043114
H       -2.32711695      -0.32954065      -1.40958735
H       -2.36661755       0.30839229       0.23211525
H       -0.03751787      -1.24570357      -0.99396097
H        1.02135183       0.78398656      -1.77764502
H       -0.53472750      -0.09419558       1.79188113
H        0.30918008      -1.56493580       1.31561847
H        2.23244430      -0.27986165       1.28126971
H        2.05120912       0.68169472      -1.28192814
16
Frame=12 idx=006621 GeodesicLength=0.9299272029027504 rxn_smarts="[C:1]([C@@:2]([O:3][H:12])([C:4]([N:5]([C:6](=[O:7])[H:16])[H:15])([H:13])[H:14])[H:11])([H:8])([H:9])[H:10]>>[C:1]([C@@:2]1([H:11])[O:3][C:6](=[O:7])[N:5]([H:15])[C:4]1([H:13])[H:14])([H:8])([H:9])[H:10].[H:12][H:16]"
C       -1.95003346      -0.47645241      -0.39563582
C       -0.43643618      -0.43140672      -0.38104307
O       -0.00885455       0.79983175      -0.92774486
C        0.13274441      -0.52977027       1.03687149
N        1.37377489       0.21078211       1.09282742
C        1.50372795       1.20875538       0.17248478
O        1.36871164       2.39112189       0.28406883
H       -2.31658617      -1.44339271      -0.04455795
H       -2.32741684      -0.31565879      -1.40523390
H       -2.36004520       0.31083135       0.24042740
H       -0.04028615      -1.24660153      -0.99843852
H        1.00542482       0.78850056      -1.81925300
H       -0.53359316      -0.11276075       1.79545272
H        0.31920597      -1.57180875       1.30210185
H        2.22812930      -0.25382931       1.34388281
H        2.04153274       0.67185820      -1.29621019
16
Frame=13 idx=006621 GeodesicLength=1.0070349114174242 rxn_smarts="[C:1]([C@@:2]([O:3][H:12])([C:4]([N:5]([C:6](=[O:7])[H:16])[H:15])([H:13])[H:14])[H:11])([H:8])([H:9])[H:10]>>[C:1]([C@@:2]1([H:11])[O:3][C:6](=[O:7])[N:5]([H:15])[C:4]1([H:13])[H:14])([H:8])([H:9])[H:10].[H:12][H:16]"
C       -1.94761509      -0.47115941      -0.39344793
C       -0.43370573      -0.43178015      -0.38337420
O       -0.00627074       0.79728869      -0.93513316
C        0.13553476      -0.53531179       1.03389430
N        1.37136465       0.21158158       1.09949553
C        1.51975156       1.20124452       0.17747981
O        1.36355423       2.38387893       0.28185873
H       -2.31725994      -1.43909580      -0.04851050
H       -2.32749814      -0.30148720      -1.40066225
H       -2.35290820       0.31358543       0.24885655
H       -0.04312136      -1.24768247      -1.00308316
H        0.98831967       0.79242206      -1.86170351
H       -0.53193006      -0.13191853       1.79884507
H        0.32978598      -1.57889253       1.28820628
H        2.22077864      -0.22572819       1.40820010
H        2.03121977       0.66305486      -1.31092166
16
Frame=14 idx=006621 GeodesicLength=1.0840441353731083 rxn_smarts="[C:1]([C@@:2]([O:3][H:12])([C:4]([N:5]([C:6](=[O:7])[H:16])[H:15])([H:13])[H:14])[H:11])([H:8])([H:9])[H:10]>>[C:1]([C@@:2]1([H:11])[O:3][C:6](=[O:7])[N:5]([H:15])[C:4]1([H:13])[H:14])([H:8])([H:9])[H:10].[H:12][H:16]"
C       -1.94491052      -0.46562714      -0.39111343
C       -0.43071910      -0.43228718      -0.38582634
O       -0.00318929       0.79445229      -0.94279192
C        0.13874055      -0.54123989       1.03068785
N        1.36961641       0.21147906       1.10581358
C        1.53638457       1.19321797       0.18287573
O        1.35904936       2.37577326       0.27985854
H       -2.31789329      -1.43439549      -0.05225402
H       -2.32734681      -0.28700818      -1.39581105
H       -2.34513615       0.31665409       0.25743651
H       -0.04603991      -1.24895880      -1.00791555
H        0.96992073       0.79570304      -1.90497736
H       -0.52962317      -0.15165241       1.80198516
H        0.34085054      -1.58621206       1.27389662
H        2.20994822      -0.19524954       1.47417187
H        2.02034788       0.65535100      -1.32603619
16
Frame=15 idx=006621 GeodesicLength=1.1609543091861176 rxn_smarts="[C:1]([C@@:2]([O:3][H:12])([C:4]([N:5]([C:6](=[O:7])[H:16])[H:15])([H:13])[H:14])[H:11])([H:8])([H:9])[H:10]>>[C:1]([C@@:2]1([H:11])[O:3][C:6](=[O:7])[N:5]([H:15])[C:4]1([H:13])[H:14])([H:8])([H:9])[H:10].[H:12][H:16]"
C       -1.94188083      -0.45985392      -0.38860243
C       -0.42745094      -0.43293783      -0.38839282
O        0.00041065       0.79131345      -0.95070199
C        0.14238788      -0.54757749       1.02724269
N        1.36866571       0.21032807       1.11173292
C        1.55366075       1.18462143       0.18869131
O        1.35524884       2.36674214       0.27812156
H       -2.31845889      -1.42928165      -0.05575806
H       -2.32692503      -0.27220978      -1.39063824
H       -2.33667180       0.32003079       0.26619905
H       -0.04903682      -1.25042788      -1.01293246
H        0.95012061       0.79830548      -1.94905247
H       -0.52661313      -0.17192671       1.80485011
H        0.35234372      -1.59378903       1.25919214
H        2.19516433      -0.16218850       1.54156003
H        2.00903494       0.64885145      -1.34151134
16
Frame=16 idx=006621 GeodesicLength=1.2378057806999723 rxn_smarts="[C:1]([C@@:2]([O:3][H:12])([C:4]([N:5]([C:6](=[O:7])[H:16])[H:15])([H:13])[H:14])[H:11])([H:8])([H:9])[H:10]>>[C:1]([C@@:2]1([H:11])[O:3][C:6](=[O:7])[N:5]([H:15])[C:4]1([H:13])[H:14])([H:8])([H:9])[H:10].[H:12][H:16]"
C       -1.93849600      -0.45382265      -0.38588508
C       -0.42386705      -0.43374626      -0.39107654
O        0.00454826       0.78786976      -0.95884874
C        0.14653809      -0.55437173       1.02356146
N        1.36871305       0.20792254       1.11720208
C        1.57161656       1.17539981       0.19493585
O        1.35219054       2.35672247       0.27672155
H       -2.31893607      -1.42373588      -0.05900178
H       -2.32621973      -0.25705092      -1.38511227
H       -2.32746541       0.32372996       0.27520285
H       -0.05209824      -1.25209613      -1.01816484
H        0.92881129       0.80018315      -1.99392621
H       -0.52280951      -0.19270796       1.80745632
H        0.36425056      -1.60169207       1.24411566
H        2.17581917      -0.12624673       1.61017027
H        1.99740451       0.64364265      -1.35735056
