9
Frame=0 idx=006324 GeodesicLength=0.0 rxn_smarts="[O:1]=[c:2]1[n:3]([H:7])[c:4]([H:8])[c:5]([H:9])[o:6]1>>[O:1]=[C:2]1[N+:3]([H:7])([H:8])[C-:4]=[C:5]([H:9])[O:6]1"
O        2.17680454      -0.69322858       0.38635605
C        1.02717675      -0.44523295       0.20869701
N        0.44531351       0.82257902      -0.05251578
C       -1.09138809       0.71618084      -0.08336243
C       -1.18692740      -0.61566019       0.01973524
O        0.00019786      -1.30511390       0.24139730
H        0.89691408       1.65346633       0.30068038
H       -0.20846021       1.11286003      -1.00068175
H       -2.05963101      -1.24585062      -0.02030598
9
Frame=1 idx=006324 GeodesicLength=0.04136958012578674 rxn_smarts="[O:1]=[c:2]1[n:3]([H:7])[c:4]([H:8])[c:5]([H:9])[o:6]1>>[O:1]=[C:2]1[N+:3]([H:7])([H:8])[C-:4]=[C:5]([H:9])[O:6]1"
O        2.17764738      -0.69372278       0.38124399
C        1.02693284      -0.44657375       0.20884240
N        0.44416466       0.82200670      -0.05265110
C       -1.08611439       0.71372134      -0.08567896
C       -1.18751412      -0.61645067       0.02316563
O        0.00011972      -1.30574502       0.25132513
H        0.89438603       1.65062715       0.30751718
H       -0.20970795       1.12260256      -1.01121967
H       -2.05991416      -1.24646554      -0.02254461
9
Frame=2 idx=006324 GeodesicLength=0.08273749786167872 rxn_smarts="[O:1]=[c:2]1[n:3]([H:7])[c:4]([H:8])[c:5]([H:9])[o:6]1>>[O:1]=[C:2]1[N+:3]([H:7])([H:8])[C-:4]=[C:5]([H:9])[O:6]1"
O        2.17844754      -0.69429116       0.37618002
C        1.02669321      -0.44797221       0.20891383
N        0.44305154       0.82140882      -0.05277295
C       -1.08083472       0.71119920      -0.08817813
C       -1.18810273      -0.61722888       0.02670939
O        0.00004608      -1.30631690       0.26134431
H        0.89186449       1.64773428       0.31430966
H       -0.21105851       1.13260585      -1.02170362
H       -2.06010689      -1.24713899      -0.02480251
9
Frame=3 idx=006324 GeodesicLength=0.12410424256952474 rxn_smarts="[O:1]=[c:2]1[n:3]([H:7])[c:4]([H:8])[c:5]([H:9])[o:6]1>>[O:1]=[C:2]1[N+:3]([H:7])([H:8])[C-:4]=[C:5]([H:9])[O:6]1"
O        2.17921603      -0.69495932       0.37102156
C        1.02644825      -0.44942460       0.20895589
N        0.44197330       0.82078426      -0.05287836
C       -1.07554841       0.70862318      -0.09082135
C       -1.18870757      -0.61797341       0.03048424
O       -0.00004597      -1.30679205       0.27165992
H        0.88936357       1.64479355       0.32102787
H       -0.21253726       1.14284193      -1.03212730
H       -2.06016195      -1.24789353      -0.02732247
9
Frame=4 idx=006324 GeodesicLength=0.1654670600199915 rxn_smarts="[O:1]=[c:2]1[n:3]([H:7])[c:4]([H:8])[c:5]([H:9])[o:6]1>>[O:1]=[C:2]1[N+:3]([H:7])([H:8])[C-:4]=[C:5]([H:9])[O:6]1"
O        2.17993129      -0.69570228       0.36596526
C        1.02620457      -0.45094137       0.20891772
N        0.44093497       0.82012796      -0.05298517
C       -1.07024763       0.70598173      -0.09363437
C       -1.18931822      -0.61869389       0.03442319
O       -0.00012647      -1.30721310       0.28200825
H        0.88687829       1.64179699       0.32767474
H       -0.21414758       1.15334896      -1.04249515
H       -2.06010921      -1.24870500      -0.02987447
9
Frame=5 idx=006324 GeodesicLength=0.2068293408699736 rxn_smarts="[O:1]=[c:2]1[n:3]([H:7])[c:4]([H:8])[c:5]([H:9])[o:6]1>>[O:1]=[C:2]1[N+:3]([H:7])([H:8])[C-:4]=[C:5]([H:9])[O:6]1"
O        2.18060634      -0.69653367       0.36092725
C        1.02595792      -0.45251964       0.20883217
N        0.43993594       0.81944133      -0.05308374
C       -1.06493196       0.70326899      -0.09665165
C       -1.18993893      -0.61938845       0.03851162
O       -0.00020604      -1.30756242       0.29247390
H        0.88439324       1.63874534       0.33428421
H       -0.21587425       1.16412899      -1.05281550
H       -2.05994227      -1.24958046      -0.03247827
9
Frame=6 idx=006324 GeodesicLength=0.24819277542797324 rxn_smarts="[O:1]=[c:2]1[n:3]([H:7])[c:4]([H:8])[c:5]([H:9])[o:6]1>>[O:1]=[C:2]1[N+:3]([H:7])([H:8])[C-:4]=[C:5]([H:9])[O:6]1"
O        2.18124337      -0.69746554       0.35583878
C        1.02570356      -0.45416032       0.20870706
N        0.43897518       0.81872492      -0.05316746
C       -1.05959765       0.70047631      -0.09991406
C       -1.19056624      -0.62006230       0.04271224
O       -0.00029493      -1.30782090       0.30314754
H        0.88188872       1.63563315       0.34089703
H       -0.21769967       1.17519963      -1.06309337
H       -2.05965234      -1.25052496      -0.03512776
9
Frame=7 idx=006324 GeodesicLength=0.28956475945452154 rxn_smarts="[O:1]=[c:2]1[n:3]([H:7])[c:4]([H:8])[c:5]([H:9])[o:6]1>>[O:1]=[C:2]1[N+:3]([H:7])([H:8])[C-:4]=[C:5]([H:9])[O:6]1"
O        2.18184568      -0.69851882       0.35061505
C        1.02543517      -0.45586326       0.20856930
N        0.43805335       0.81797758      -0.05323434
C       -1.05424155       0.69760163      -0.10341391
C       -1.19120773      -0.62070028       0.04707141
O       -0.00040798      -1.30795651       0.31414931
H        0.87936873       1.63246051       0.34750719
H       -0.21963663       1.18655793      -1.07332632
H       -2.05920905      -1.25155877      -0.03793769
9
Frame=8 idx=006324 GeodesicLength=0.3309423905580822 rxn_smarts="[O:1]=[c:2]1[n:3]([H:7])[c:4]([H:8])[c:5]([H:9])[o:6]1>>[O:1]=[C:2]1[N+:3]([H:7])([H:8])[C-:4]=[C:5]([H:9])[O:6]1"
O        2.18240714      -0.69969723       0.34526759
C        1.02515168      -0.45763254       0.20841023
N        0.43717213       0.81719880      -0.05328762
C       -1.04885912       0.69463515      -0.10719730
C       -1.19185603      -0.62131258       0.05153447
O       -0.00054044      -1.30796709       0.32545883
H        0.87681161       1.62921982       0.35415162
H       -0.22166925       1.19823345      -1.08351993
H       -2.05861773      -1.25267779      -0.04081789
9
Frame=9 idx=006324 GeodesicLength=0.3723202899759319 rxn_smarts="[O:1]=[c:2]1[n:3]([H:7])[c:4]([H:8])[c:5]([H:9])[o:6]1>>[O:1]=[C:2]1[N+:3]([H:7])([H:8])[C-:4]=[C:5]([H:9])[O:6]1"
O        2.18292171      -0.70101960       0.33972740
C        1.02484099      -0.45947119       0.20824434
N        0.43633131       0.81638742      -0.05332508
C       -1.04344221       0.69156347      -0.11130558
C       -1.19251634      -0.62189060       0.05610402
O       -0.00070353      -1.30781967       0.33715761
H        0.87420110       1.62590372       0.36085867
H       -0.22378622       1.21024392      -1.09367181
H       -2.05784681      -1.25389746      -0.04378955
9
Frame=10 idx=006324 GeodesicLength=0.413712766382877 rxn_smarts="[O:1]=[c:2]1[n:3]([H:7])[c:4]([H:8])[c:5]([H:9])[o:6]1>>[O:1]=[C:2]1[N+:3]([H:7])([H:8])[C-:4]=[C:5]([H:9])[O:6]1"
O        2.18338743      -0.70246454       0.33415225
C        1.02452056      -0.46138524       0.20802958
N        0.43553788       0.81554028      -0.05336271
C       -1.03798329       0.68838040      -0.11573858
C       -1.19317907      -0.62244237       0.06074042
O       -0.00087570      -1.30755344       0.34905489
H        0.87153616       1.62250747       0.36761808
H       -0.22600604       1.22261214      -1.10378735
H       -2.05693792      -1.25519470      -0.04670659
9
Frame=11 idx=006324 GeodesicLength=0.45511006207562765 rxn_smarts="[O:1]=[c:2]1[n:3]([H:7])[c:4]([H:8])[c:5]([H:9])[o:6]1>>[O:1]=[C:2]1[N+:3]([H:7])([H:8])[C-:4]=[C:5]([H:9])[O:6]1"
O        2.18380106      -0.70404542       0.32848905
C        1.02418067      -0.46337305       0.20780224
N        0.43479208       0.81465695      -0.05339697
C       -1.03247306       0.68506559      -0.12055678
C       -1.19384135      -0.62296393       0.06542381
O       -0.00105586      -1.30715298       0.36117248
H        0.86879044       1.61902832       0.37446319
H       -0.22830398       1.23536138      -1.11386513
H       -2.05589000      -1.25657687      -0.04953190
9
Frame=12 idx=006324 GeodesicLength=0.4965274484628144 rxn_smarts="[O:1]=[c:2]1[n:3]([H:7])[c:4]([H:8])[c:5]([H:9])[o:6]1>>[O:1]=[C:2]1[N+:3]([H:7])([H:8])[C-:4]=[C:5]([H:9])[O:6]1"
O        2.18416567      -0.70572664       0.32291784
C        1.02383705      -0.46543745       0.20753655
N        0.43410102       0.81373312      -0.05344001
C       -1.02689948       0.68161166      -0.12576854
C       -1.19449695      -0.62346594       0.07011155
O       -0.00122157      -1.30667509       0.37325227
H        0.86596025       1.61546211       0.38138292
H       -0.23069282       1.24850663      -1.12391450
H       -2.05475317      -1.25800838      -0.05207807
9
Frame=13 idx=006324 GeodesicLength=0.5379355152324423 rxn_smarts="[O:1]=[c:2]1[n:3]([H:7])[c:4]([H:8])[c:5]([H:9])[o:6]1>>[O:1]=[C:2]1[N+:3]([H:7])([H:8])[C-:4]=[C:5]([H:9])[O:6]1"
O        2.18448384      -0.70752678       0.31734740
C        1.02348397      -0.46757644       0.20726309
N        0.43346561       0.81276662      -0.05349204
C       -1.02124942       0.67799968      -0.13142778
C       -1.19514407      -0.62394119       0.07480949
O       -0.00137925      -1.30609708       0.38540071
H        0.86301962       1.61180423       0.38840027
H       -0.23316000       1.26207028      -1.13391838
H       -2.05352031      -1.25949932      -0.05438276
9
Frame=14 idx=006324 GeodesicLength=0.5793574880756119 rxn_smarts="[O:1]=[c:2]1[n:3]([H:7])[c:4]([H:8])[c:5]([H:9])[o:6]1>>[O:1]=[C:2]1[N+:3]([H:7])([H:8])[C-:4]=[C:5]([H:9])[O:6]1"
O        2.18476114      -0.70943480       0.31184605
C        1.02312909      -0.46979033       0.20699246
N        0.43289093       0.81175532      -0.05355603
C       -1.01551328       0.67421845      -0.13754063
C       -1.19577948      -0.62438905       0.07950445
O       -0.00151788      -1.30544481       0.39750289
H        0.85996490       1.60805747       0.39550562
H       -0.23571725       1.27606109      -1.14388286
H       -2.05221818      -1.26103335      -0.05637196
9
Frame=15 idx=006324 GeodesicLength=0.6207856685316336 rxn_smarts="[O:1]=[c:2]1[n:3]([H:7])[c:4]([H:8])[c:5]([H:9])[o:6]1>>[O:1]=[C:2]1[N+:3]([H:7])([H:8])[C-:4]=[C:5]([H:9])[O:6]1"
O        2.18500730      -0.71142347       0.30651823
C        1.02278491      -0.47207913       0.20672082
N        0.43238261       0.81069372      -0.05364076
C       -1.00967468       0.67024970      -0.14414041
C       -1.19639446      -0.62481411       0.08416144
O       -0.00161851      -1.30476538       0.40939502
H        0.85677883       1.60421908       0.40269752
H       -0.23836706       1.29049778      -1.15380331
H       -2.05089894      -1.26257819      -0.05790855
9
Frame=16 idx=006324 GeodesicLength=0.6622167775355734 rxn_smarts="[O:1]=[c:2]1[n:3]([H:7])[c:4]([H:8])[c:5]([H:9])[o:6]1>>[O:1]=[C:2]1[N+:3]([H:7])([H:8])[C-:4]=[C:5]([H:9])[O:6]1"
O        2.18523451      -0.71347447       0.30142956
C        1.02246238      -0.47444317       0.20645150
N        0.43194614       0.80957653      -0.05375355
C       -1.00371759       0.66607722      -0.15124658
C       -1.19698382      -0.62521441       0.08877077
O       -0.00166962      -1.30409318       0.42097809
H        0.85345052       1.60028832       0.40996638
H       -0.24112288       1.30539136      -1.16367221
H       -2.04959965      -1.26410821      -0.05892397
