17
Frame=0 idx=007099 GeodesicLength=0.0 rxn_smarts="[C:1]([C@@:2]1([H:11])[C:3]([H:12])([H:13])[O:4][C@:5]([C:6]([H:15])([H:16])[H:17])([H:14])[O:7]1)([H:8])([H:9])[H:10]>>[C:1]([C:2]([O:7][C:5](=[O+:4][C-:3]([H:12])[H:13])[C:6]([H:15])([H:16])[H:17])([H:11])[H:14])([H:8])([H:9])[H:10]"
C        2.25314540       0.06823804      -0.64454829
C        0.81741944      -0.38446891      -0.67813590
C        0.39024035       0.09258474       1.74267906
O       -0.86687312      -0.05152437       1.39743509
C       -1.10189013      -0.06671746       0.04189123
C       -2.53515396       0.11575995      -0.32493556
O       -0.18405278       0.65883599      -0.68454403
H        2.51990364       0.54945474      -1.59217235
H        2.89434539      -0.80682170      -0.52669557
H        2.47507120       0.76409215       0.16210953
H        0.67249331      -0.96650666      -1.59507011
H        0.93692208       0.92972860       1.33591783
H        0.60954724      -0.27759176       2.73603385
H       -0.20045996      -1.11408449      -0.09874306
H       -2.81800756       1.17078620      -0.26601987
H       -2.69142669      -0.22025826      -1.34925518
H       -3.17122384      -0.46150675       0.34405326
17
Frame=1 idx=007099 GeodesicLength=0.0575374577845562 rxn_smarts="[C:1]([C@@:2]1([H:11])[C:3]([H:12])([H:13])[O:4][C@:5]([C:6]([H:15])([H:16])[H:17])([H:14])[O:7]1)([H:8])([H:9])[H:10]>>[C:1]([C:2]([O:7][C:5](=[O+:4][C-:3]([H:12])[H:13])[C:6]([H:15])([H:16])[H:17])([H:11])[H:14])([H:8])([H:9])[H:10]"
C        2.25382128       0.07947933      -0.64816487
C        0.82399502      -0.39474791      -0.65847671
C        0.39567499       0.07739054       1.73489643
O       -0.87098208      -0.04355766       1.39618655
C       -1.10773254      -0.06999082       0.04329358
C       -2.53795694       0.12485192      -0.32758499
O       -0.18233922       0.64337503      -0.68580914
H        2.50476920       0.54907170      -1.60556927
H        2.90988548      -0.78309121      -0.52035365
H        2.47293466       0.79454647       0.14239582
H        0.68792753      -0.99061050      -1.56855829
H        0.93603874       0.93118482       1.35379760
H        0.61343584      -0.30931713       2.72242631
H       -0.21241780      -1.13440314      -0.09691737
H       -2.80921111       1.18325604      -0.27767332
H       -2.69692319      -0.21767686      -1.34949720
H       -3.18091986      -0.43976061       0.34560851
17
Frame=2 idx=007099 GeodesicLength=0.1150787649571918 rxn_smarts="[C:1]([C@@:2]1([H:11])[C:3]([H:12])([H:13])[O:4][C@:5]([C:6]([H:15])([H:16])[H:17])([H:14])[O:7]1)([H:8])([H:9])[H:10]>>[C:1]([C:2]([O:7][C:5](=[O+:4][C-:3]([H:12])[H:13])[C:6]([H:15])([H:16])[H:17])([H:11])[H:14])([H:8])([H:9])[H:10]"
C        2.25413528       0.09050679      -0.65195326
C        0.83059938      -0.40438464      -0.63896589
C        0.40091842       0.06271884       1.72732535
O       -0.87469485      -0.03578470       1.39486282
C       -1.11335446      -0.07317636       0.04472774
C       -2.54044552       0.13376742      -0.33024827
O       -0.18061177       0.62811813      -0.68692564
H        2.48955773       0.54815257      -1.61872595
H        2.92477082      -0.75932659      -0.51462728
H        2.47000216       0.82423705       0.12233788
H        0.70338384      -1.01400438      -1.54187443
H        0.93554316       0.93187133       1.37230222
H        0.61651904      -0.34024708       2.70896515
H       -0.22391682      -1.15436100      -0.09521221
H       -2.80019356       1.19531337      -0.28926906
H       -2.70214194      -0.21517625      -1.34972886
H       -3.19007091      -0.41822449       0.34700968
17
Frame=3 idx=007099 GeodesicLength=0.17264980813311448 rxn_smarts="[C:1]([C@@:2]1([H:11])[C:3]([H:12])([H:13])[O:4][C@:5]([C:6]([H:15])([H:16])[H:17])([H:14])[O:7]1)([H:8])([H:9])[H:10]>>[C:1]([C:2]([O:7][C:5](=[O+:4][C-:3]([H:12])[H:13])[C:6]([H:15])([H:16])[H:17])([H:11])[H:14])([H:8])([H:9])[H:10]"
C        2.25407232       0.10138682      -0.65590681
C        0.83723991      -0.41339984      -0.61960056
C        0.40598952       0.04849698       1.71996754
O       -0.87804658      -0.02818639       1.39346337
C       -1.11876393      -0.07629818       0.04619573
C       -2.54261848       0.14254535      -0.33291973
O       -0.17887261       0.61302271      -0.68791694
H        2.47429082       0.54660152      -1.63171446
H        2.93900690      -0.73539677      -0.50929578
H        2.46618516       0.85337874       0.10183113
H        0.71890620      -1.03675009      -1.51497356
H        0.93540300       0.93176810       1.39141466
H        0.61889694      -0.37065717       2.69556076
H       -0.23496782      -1.17399338      -0.09360929
H       -2.79088735       1.20701460      -0.30090946
H       -2.70710812      -0.21279104      -1.34990829
H       -3.19872587      -0.39674196       0.34832171
17
Frame=4 idx=007099 GeodesicLength=0.23023382921470836 rxn_smarts="[C:1]([C@@:2]1([H:11])[C:3]([H:12])([H:13])[O:4][C@:5]([C:6]([H:15])([H:16])[H:17])([H:14])[O:7]1)([H:8])([H:9])[H:10]>>[C:1]([C:2]([O:7][C:5](=[O+:4][C-:3]([H:12])[H:13])[C:6]([H:15])([H:16])[H:17])([H:11])[H:14])([H:8])([H:9])[H:10]"
C        2.25367628       0.11207099      -0.66001325
C        0.84389741      -0.42176703      -0.60042092
C        0.41091755       0.03472082       1.71281708
O       -0.88105730      -0.02070492       1.39199296
C       -1.12397666      -0.07931811       0.04769592
C       -2.54451096       0.15115736      -0.33560381
O       -0.17714138       0.59813645      -0.68877850
H        2.45901150       0.54449531      -1.64446950
H        2.95261371      -0.71142650      -0.50446091
H        2.46160330       0.88183005       0.08096707
H        0.73445392      -1.05879423      -1.48791179
H        0.93562777       0.93091671       1.41112029
H        0.62056411      -0.40040516       2.68227015
H       -0.24557370      -1.19328893      -0.09211572
H       -2.78140561       1.21831972      -0.31252052
H       -2.71182406      -0.21049997      -1.35006559
H       -3.20687588      -0.37544255       0.34949706
17
Frame=5 idx=007099 GeodesicLength=0.28784157907457797 rxn_smarts="[C:1]([C@@:2]1([H:11])[C:3]([H:12])([H:13])[O:4][C@:5]([C:6]([H:15])([H:16])[H:17])([H:14])[O:7]1)([H:8])([H:9])[H:10]>>[C:1]([C:2]([O:7][C:5](=[O+:4][C-:3]([H:12])[H:13])[C:6]([H:15])([H:16])[H:17])([H:11])[H:14])([H:8])([H:9])[H:10]"
C        2.25295889       0.12257699      -0.66426731
C        0.85056786      -0.42949098      -0.58144049
C        0.41572552       0.02135322       1.70587922
O       -0.88374794      -0.01330302       1.39045835
C       -1.12900360      -0.08223386       0.04922848
C       -2.54613886       0.15961020      -0.33830316
O       -0.17542045       0.58345596      -0.68952691
H        2.44374704       0.54183426      -1.65700707
H        2.96559761      -0.68740015      -0.50006729
H        2.45627297       0.90963533       0.05974187
H        0.75002850      -1.08014641      -1.46069148
H        0.93621667       0.92931748       1.43140985
H        0.62156439      -0.42956215       2.66908764
H       -0.25575507      -1.21226945      -0.09072171
H       -2.77175330       1.22924447      -0.32412999
H       -2.71631014      -0.20831631      -1.35019925
H       -3.21455009      -0.35430559       0.35054925
17
Frame=6 idx=007099 GeodesicLength=0.34547576879785213 rxn_smarts="[C:1]([C@@:2]1([H:11])[C:3]([H:12])([H:13])[O:4][C@:5]([C:6]([H:15])([H:16])[H:17])([H:14])[O:7]1)([H:8])([H:9])[H:10]>>[C:1]([C:2]([O:7][C:5](=[O+:4][C-:3]([H:12])[H:13])[C:6]([H:15])([H:16])[H:17])([H:11])[H:14])([H:8])([H:9])[H:10]"
C        2.25193517       0.13291328      -0.66866118
C        0.85724812      -0.43657609      -0.56266930
C        0.42042923       0.00836777       1.69914864
O       -0.88613639      -0.00594551       1.38885984
C       -1.13385471      -0.08504086       0.05079374
C       -2.54751666       0.16790972      -0.34101641
O       -0.17371719       0.56897680      -0.69017284
H        2.42851808       0.53863020      -1.66932425
H        2.97797811      -0.66331444      -0.49608804
H        2.45021683       0.93681040       0.03816142
H        0.76563409      -1.10081504      -1.43330953
H        0.93715223       0.92697631       1.45227195
H        0.62193014      -0.45817573       2.65599293
H       -0.26552383      -1.23095192      -0.08942251
H       -2.76194628       1.23979899      -0.33575039
H       -2.72058039      -0.20624783      -1.35030195
H       -3.22176656      -0.33331605       0.35148788
17
Frame=7 idx=007099 GeodesicLength=0.4031409114966208 rxn_smarts="[C:1]([C@@:2]1([H:11])[C:3]([H:12])([H:13])[O:4][C@:5]([C:6]([H:15])([H:16])[H:17])([H:14])[O:7]1)([H:8])([H:9])[H:10]>>[C:1]([C:2]([O:7][C:5](=[O+:4][C-:3]([H:12])[H:13])[C:6]([H:15])([H:16])[H:17])([H:11])[H:14])([H:8])([H:9])[H:10]"
C        2.25062124       0.14308884      -0.67318871
C        0.86393586      -0.44302757      -0.54411496
C        0.42504315      -0.00425932       1.69262157
O       -0.88823759       0.00140093       1.38719827
C       -1.13853990      -0.08773485       0.05239216
C       -2.54865944       0.17606136      -0.34374274
O       -0.17203690       0.55469379      -0.69072727
H        2.41334448       0.53489752      -1.68141997
H        2.98977520      -0.63916501      -0.49250223
H        2.44346140       0.96336822       0.01623184
H        0.78127425      -1.12080819      -1.40576078
H        0.93841943       0.92389561       1.47369761
H        0.62168826      -0.48628766       2.64296888
H       -0.27489451      -1.24935411      -0.08821341
H       -2.75199964       1.24999293      -0.34739351
H       -2.72465089      -0.20430119      -1.35036800
H       -3.22854439      -0.31246131       0.35232126
17
Frame=8 idx=007099 GeodesicLength=0.46084214815821967 rxn_smarts="[C:1]([C@@:2]1([H:11])[C:3]([H:12])([H:13])[O:4][C@:5]([C:6]([H:15])([H:16])[H:17])([H:14])[O:7]1)([H:8])([H:9])[H:10]>>[C:1]([C:2]([O:7][C:5](=[O+:4][C-:3]([H:12])[H:13])[C:6]([H:15])([H:16])[H:17])([H:11])[H:14])([H:8])([H:9])[H:10]"
C        2.24903233       0.15311455      -0.67784424
C        0.87063033      -0.44885288      -0.52578263
C        0.42958045      -0.01655220       1.68629397
O       -0.89006335       0.00876390       1.38547366
C       -1.14306814      -0.09031460       0.05402409
C       -2.54958053       0.18407231      -0.34648094
O       -0.17038441       0.54059800      -0.69120118
H        2.39824181       0.53065123      -1.69329394
H        3.00101083      -0.61494233      -0.48928999
H        2.43602901       0.98932536      -0.00604300
H        0.79695460      -1.14013591      -1.37803719
H        0.93999902       0.92007337       1.49567947
H        0.62086292      -0.51393882       2.62999713
H       -0.28388144      -1.26749601      -0.08709144
H       -2.74192162       1.25983801      -0.35907590
H       -2.72853960      -0.20248488      -1.35038894
H       -3.23490221      -0.29171910       0.35306106
17
Frame=9 idx=007099 GeodesicLength=0.5185932760849774 rxn_smarts="[C:1]([C@@:2]1([H:11])[C:3]([H:12])([H:13])[O:4][C@:5]([C:6]([H:15])([H:16])[H:17])([H:14])[O:7]1)([H:8])([H:9])[H:10]>>[C:1]([C:2]([O:7][C:5](=[O+:4][C-:3]([H:12])[H:13])[C:6]([H:15])([H:16])[H:17])([H:11])[H:14])([H:8])([H:9])[H:10]"
C        2.24718656       0.16300294      -0.68262141
C        0.87733275      -0.45405997      -0.50767682
C        0.43405676      -0.02853436       1.68016329
O       -0.89162215       0.01617037       1.38368595
C       -1.14744979      -0.09277814       0.05568886
C       -2.55029856       0.19195063      -0.34923048
O       -0.16876614       0.52668243      -0.69160625
H        2.38322917       0.52590131      -1.70494815
H        3.01171239      -0.59063523      -0.48642317
H        2.42794259       1.01470643      -0.02866058
H        0.81268154      -1.15881005      -1.35013283
H        0.94187556       0.91550520       1.51821485
H        0.61948170      -0.54117588       2.61705716
H       -0.29249915      -1.28539992      -0.08605765
H       -2.73172586       1.26934913      -0.37082015
H       -2.73227508      -0.20081418      -1.35035492
H       -3.24086229      -0.27106071       0.35372230
17
Frame=10 idx=007099 GeodesicLength=0.5763788855218824 rxn_smarts="[C:1]([C@@:2]1([H:11])[C:3]([H:12])([H:13])[O:4][C@:5]([C:6]([H:15])([H:16])[H:17])([H:14])[O:7]1)([H:8])([H:9])[H:10]>>[C:1]([C:2]([O:7][C:5](=[O+:4][C-:3]([H:12])[H:13])[C:6]([H:15])([H:16])[H:17])([H:11])[H:14])([H:8])([H:9])[H:10]"
C        2.24508888       0.17275845      -0.68752489
C        0.88403953      -0.45864605      -0.48979324
C        0.43846393      -0.04021671       1.67422401
O       -0.89292790       0.02366022       1.38183334
C       -1.15168631      -0.09511674       0.05739122
C       -2.55080937       0.19969621      -0.35198750
O       -0.16717387       0.51293723      -0.69194566
H        2.36831691       0.52066800      -1.71637828
H        3.02188160      -0.56623197      -0.48392585
H        2.41922363       1.03948898      -0.05162667
H        0.82846370      -1.17681849      -1.32201502
H        0.94403414       0.91017755       1.54130079
H        0.61752550      -0.56802711       2.60412051
H       -0.30076131      -1.30306948      -0.08509895
H       -2.72141029       1.27851836      -0.38262804
H       -2.73584418      -0.19929414      -1.35025393
H       -3.24642460      -0.25048429       0.35430816
17
Frame=11 idx=007099 GeodesicLength=0.6342462326866304 rxn_smarts="[C:1]([C@@:2]1([H:11])[C:3]([H:12])([H:13])[O:4][C@:5]([C:6]([H:15])([H:16])[H:17])([H:14])[O:7]1)([H:8])([H:9])[H:10]>>[C:1]([C:2]([O:7][C:5](=[O+:4][C-:3]([H:12])[H:13])[C:6]([H:15])([H:16])[H:17])([H:11])[H:14])([H:8])([H:9])[H:10]"
C        2.24274904       0.18242556      -0.69254762
C        0.89076622      -0.46264466      -0.47212457
C        0.44282862      -0.05165595       1.66847786
O       -0.89397855       0.03121582       1.37991569
C       -1.15579056      -0.09736344       0.05912946
C       -2.55112987       0.20734471      -0.35475149
O       -0.16562078       0.49931949      -0.69223807
H        2.35349707       0.51493147      -1.72761417
H        3.03157365      -0.54164512      -0.48169409
H        2.40983540       1.06379628      -0.07498809
H        0.84433724      -1.19422738      -1.29365784
H        0.94643189       0.90405798       1.56493902
H        0.61504883      -0.59459749       2.59115170
H       -0.30867632      -1.32056103      -0.08422664
H       -2.71093138       1.28740004      -0.39457698
H       -2.73931151      -0.19794688      -1.35005831
H       -3.25162897      -0.22984942       0.35486414
17
Frame=12 idx=007099 GeodesicLength=0.692160534913604 rxn_smarts="[C:1]([C@@:2]1([H:11])[C:3]([H:12])([H:13])[O:4][C@:5]([C:6]([H:15])([H:16])[H:17])([H:14])[O:7]1)([H:8])([H:9])[H:10]>>[C:1]([C:2]([O:7][C:5](=[O+:4][C-:3]([H:12])[H:13])[C:6]([H:15])([H:16])[H:17])([H:11])[H:14])([H:8])([H:9])[H:10]"
C        2.24018856       0.19197904      -0.69768879
C        0.89750062      -0.46603595      -0.45468133
C        0.44714807      -0.06283798       1.66291481
O       -0.89478335       0.03888007       1.37793222
C       -1.15976370      -0.09948554       0.06090810
C       -2.55126617       0.21487604      -0.35751686
O       -0.16410218       0.48585621      -0.69247943
H        2.33880727       0.50871940      -1.73863265
H        3.04077789      -0.51694323      -0.47979043
H        2.39985159       1.08754283      -0.09870181
H        0.86027350      -1.21098247      -1.26507391
H        0.94905050       0.89715560       1.58911720
H        0.61203315      -0.62081799       2.57815941
H       -0.31626107      -1.33785703      -0.08344171
H       -2.70034617       1.29595975      -0.40660492
H       -2.74264796      -0.19674699      -1.34977996
H       -3.25646057      -0.20926175       0.35536006
17
Frame=13 idx=007099 GeodesicLength=0.7501471274697883 rxn_smarts="[C:1]([C@@:2]1([H:11])[C:3]([H:12])([H:13])[O:4][C@:5]([C:6]([H:15])([H:16])[H:17])([H:14])[O:7]1)([H:8])([H:9])[H:10]>>[C:1]([C:2]([O:7][C:5](=[O+:4][C-:3]([H:12])[H:13])[C:6]([H:15])([H:16])[H:17])([H:11])[H:14])([H:8])([H:9])[H:10]"
C        2.23742554       0.20142604      -0.70294536
C        0.90424646      -0.46882785      -0.43746034
C        0.45144348      -0.07377449       1.65754582
O       -0.89533950       0.04668046       1.37588992
C       -1.16361546      -0.10147822       0.06272816
C       -2.55124324       0.22229602      -0.36029233
O       -0.16262431       0.47254620      -0.69267624
H        2.32424948       0.50205458      -1.74943455
H        3.04952209      -0.49213331      -0.47821942
H        2.38931130       1.11073802      -0.12275516
H        0.87627435      -1.22709083      -1.23625358
H        0.95187857       0.88946634       1.61384569
H        0.60851132      -0.64671529       2.56514085
H       -0.32352679      -1.35498594      -0.08274520
H       -2.68968335       1.30421579      -0.41873323
H       -2.74588658      -0.19570686      -1.34942802
H       -3.26094336      -0.18871064       0.35579299
17
Frame=14 idx=007099 GeodesicLength=0.8081776095055647 rxn_smarts="[C:1]([C@@:2]1([H:11])[C:3]([H:12])([H:13])[O:4][C@:5]([C:6]([H:15])([H:16])[H:17])([H:14])[O:7]1)([H:8])([H:9])[H:10]>>[C:1]([C:2]([O:7][C:5](=[O+:4][C-:3]([H:12])[H:13])[C:6]([H:15])([H:16])[H:17])([H:11])[H:14])([H:8])([H:9])[H:10]"
C        2.23446450       0.21076502      -0.70832497
C        0.91099971      -0.47100547      -0.42044534
C        0.45568531      -0.08446667       1.65235307
O       -0.89566493       0.05464964       1.37377801
C       -1.16734055      -0.10332927       0.06460166
C       -2.55103968       0.22959637      -0.36306635
O       -0.16116664       0.45937855      -0.69281645
H        2.30982698       0.49496724      -1.76000300
H        3.05779343      -0.46721447      -0.47704767
H        2.37825195       1.13333226      -0.14715314
H        0.89233893      -1.24251434      -1.20714739
H        0.95487364       0.88095951       1.63910320
H        0.60443257      -0.67229008       2.55204751
H       -0.33048822      -1.37192970      -0.08211710
H       -2.67892213       1.31213728      -0.43095098
H       -2.74898036      -0.19482745      -1.34897355
H       -3.26506453      -0.16820842       0.35616248
17
Frame=15 idx=007099 GeodesicLength=0.8663106215466916 rxn_smarts="[C:1]([C@@:2]1([H:11])[C:3]([H:12])([H:13])[O:4][C@:5]([C:6]([H:15])([H:16])[H:17])([H:14])[O:7]1)([H:8])([H:9])[H:10]>>[C:1]([C:2]([O:7][C:5](=[O+:4][C-:3]([H:12])[H:13])[C:6]([H:15])([H:16])[H:17])([H:11])[H:14])([H:8])([H:9])[H:10]"
C        2.23130779       0.22004387      -0.71382479
C        0.91777865      -0.47260382      -0.40363427
C        0.45991025      -0.09497585       1.64735023
O       -0.89574393       0.06275743       1.37160247
C       -1.17095154      -0.10507695       0.06652210
C       -2.55067650       0.23681962      -0.36584136
O       -0.15974901       0.44631100      -0.69292314
H        2.29553752       0.48740318      -1.77037984
H        3.06565043      -0.44207803      -0.47613799
H        2.36660098       1.15546702      -0.17196739
H        0.90851588      -1.25731812      -1.17773530
H        0.95800199       0.87159771       1.66492154
H        0.59985707      -0.69765266       2.53885828
H       -0.33714180      -1.38875725      -0.08158918
H       -2.66801791       1.31978839      -0.44335101
H       -2.75202121      -0.19413986      -1.34839098
H       -3.26885866      -0.14758569       0.35652063
17
Frame=16 idx=007099 GeodesicLength=0.924518740858102 rxn_smarts="[C:1]([C@@:2]1([H:11])[C:3]([H:12])([H:13])[O:4][C@:5]([C:6]([H:15])([H:16])[H:17])([H:14])[O:7]1)([H:8])([H:9])[H:10]>>[C:1]([C:2]([O:7][C:5](=[O+:4][C-:3]([H:12])[H:13])[C:6]([H:15])([H:16])[H:17])([H:11])[H:14])([H:8])([H:9])[H:10]"
C        2.22797955       0.22923519      -0.71944588
C        0.92457544      -0.47359869      -0.38702170
C        0.46410929      -0.10527702       1.64253316
O       -0.89558583       0.07104342       1.36936436
C       -1.17444689      -0.10668672       0.06849777
C       -2.55015867       0.24394320      -0.36861572
O       -0.15835909       0.43337206      -0.69298254
H        2.28139814       0.47941335      -1.78053715
H        3.07308415      -0.41680836      -0.47559378
H        2.35445990       1.17704681      -0.19714630
H        0.92476822      -1.27144354      -1.14801417
H        0.96122556       0.86138438       1.69128265
H        0.59476856      -0.72273370       2.52557448
H       -0.34350218      -1.40544778      -0.08115321
H       -2.65702790       1.32713482      -0.45587774
H       -2.75497255      -0.19362340      -1.34769552
H       -3.27231571      -0.12695401       0.35683131
