13
Frame=0 idx=002255 GeodesicLength=0.0 rxn_smarts="[C:1]1([H:7])([H:8])[C:2]([H:9])=[C:3]([H:10])[C@@:4]2([H:11])[N:5]([H:12])[C@@:6]12[H:13]>>[C:1]1([H:7])([H:8])[C:2]([H:9])=[C:3]([H:10])[N+:5]2([H:12])[C-:4]([H:11])[C@:6]12[H:13]"
C        0.59646045      -1.22437687       0.14985471
C        1.10893794      -0.27983519      -0.94008443
C        0.32091140       0.87439910      -0.76513176
C       -0.33216644       1.03282071       0.75962062
N       -1.06243353       0.45296643      -0.37397362
C       -0.57181072      -0.42835087       0.71729622
H        1.31863756      -1.40920851       0.95632479
H        0.24894990      -2.19973533      -0.20684840
H        2.17745329      -0.13106129      -1.04278200
H        0.37838552       1.79812297      -1.32607590
H       -0.83569321       1.72875715       1.42153328
H       -1.99939773       0.64618832      -0.68834059
H       -1.34823444      -0.86068667       1.33860706
13
Frame=1 idx=002255 GeodesicLength=0.0657065457680586 rxn_smarts="[C:1]1([H:7])([H:8])[C:2]([H:9])=[C:3]([H:10])[C@@:4]2([H:11])[N:5]([H:12])[C@@:6]12[H:13]>>[C:1]1([H:7])([H:8])[C:2]([H:9])=[C:3]([H:10])[N+:5]2([H:12])[C-:4]([H:11])[C@:6]12[H:13]"
C        0.59261387      -1.21996387       0.15169169
C        1.10716420      -0.27394561      -0.93405961
C        0.32797496       0.88093889      -0.76662372
C       -0.32915914       1.03610449       0.77058223
N       -1.06926277       0.46114596      -0.35958271
C       -0.57415954      -0.42449629       0.72318059
H        1.31654839      -1.40934865       0.95504103
H        0.24633600      -2.19303481      -0.21214613
H        2.17506199      -0.14212434      -1.06033135
H        0.39220890       1.80190355      -1.33126971
H       -0.84064513       1.72715138       1.43177842
H       -1.99736813       0.61768790      -0.71308335
H       -1.34731361      -0.86201860       1.34482261
13
Frame=2 idx=002255 GeodesicLength=0.13145332918540098 rxn_smarts="[C:1]1([H:7])([H:8])[C:2]([H:9])=[C:3]([H:10])[C@@:4]2([H:11])[N:5]([H:12])[C@@:6]12[H:13]>>[C:1]1([H:7])([H:8])[C:2]([H:9])=[C:3]([H:10])[N+:5]2([H:12])[C-:4]([H:11])[C@:6]12[H:13]"
C        0.58849952      -1.21533692       0.15351500
C        1.10527942      -0.26771505      -0.92785811
C        0.33491304       0.88776001      -0.76798702
C       -0.32626628       1.03951342       0.78185264
N       -1.07663517       0.46981296      -0.34481194
C       -0.57671959      -0.42044055       0.72915016
H        1.31415563      -1.40944149       0.95371128
H        0.24333135      -2.18597190      -0.21758616
H        2.17172107      -0.15341884      -1.07860796
H        0.40610202       1.80587182      -1.33637090
H       -0.84524573       1.72565168       1.44259015
H       -1.99264024       0.58693558      -0.73877416
H       -1.34649505      -0.86322074       1.35117703
13
Frame=3 idx=002255 GeodesicLength=0.19719401219042249 rxn_smarts="[C:1]1([H:7])([H:8])[C:2]([H:9])=[C:3]([H:10])[C@@:4]2([H:11])[N:5]([H:12])[C@@:6]12[H:13]>>[C:1]1([H:7])([H:8])[C:2]([H:9])=[C:3]([H:10])[N+:5]2([H:12])[C-:4]([H:11])[C@:6]12[H:13]"
C        0.58412721      -1.21053427       0.15532326
C        1.10334067      -0.26114046      -0.92143000
C        0.34167012       0.89482790      -0.76930823
C       -0.32355467       1.04304456       0.79329741
N       -1.08464425       0.47886723      -0.32979005
C       -0.57951599      -0.41622924       0.73512144
H        1.31143767      -1.40951034       0.95237844
H        0.23996844      -2.17861581      -0.22319005
H        2.16740108      -0.16485121      -1.09746974
H        0.42000396       1.80999723      -1.34148265
H       -0.84951533       1.72427799       1.45385510
H       -1.98493657       0.55422519      -0.76489459
H       -1.34578234      -0.86435877       1.35758965
13
Frame=4 idx=002255 GeodesicLength=0.2629050999102772 rxn_smarts="[C:1]1([H:7])([H:8])[C:2]([H:9])=[C:3]([H:10])[C@@:4]2([H:11])[N:5]([H:12])[C@@:6]12[H:13]>>[C:1]1([H:7])([H:8])[C:2]([H:9])=[C:3]([H:10])[N+:5]2([H:12])[C-:4]([H:11])[C@:6]12[H:13]"
C        0.57957467      -1.20548201       0.15714527
C        1.10140552      -0.25426553      -0.91476614
C        0.34823441       0.90198876      -0.77061917
C       -0.32122662       1.04653720       0.80483653
N       -1.09330489       0.48807566      -0.31462692
C       -0.58259958      -0.41191535       0.74102211
H        1.30838708      -1.40932566       0.95110197
H        0.23651460      -2.17088224      -0.22887225
H        2.16201457      -0.17654748      -1.11708862
H        0.43386380       1.81403367      -1.34664663
H       -0.85371379       1.72281878       1.46551468
H       -1.97394119       0.52044071      -0.79097448
H       -1.34520858      -0.86547650       1.36397365
13
Frame=5 idx=002255 GeodesicLength=0.32854759645355386 rxn_smarts="[C:1]1([H:7])([H:8])[C:2]([H:9])=[C:3]([H:10])[C@@:4]2([H:11])[N:5]([H:12])[C@@:6]12[H:13]>>[C:1]1([H:7])([H:8])[C:2]([H:9])=[C:3]([H:10])[N+:5]2([H:12])[C-:4]([H:11])[C@:6]12[H:13]"
C        0.57491587      -1.20032214       0.15899029
C        1.09963734      -0.24710016      -0.90777678
C        0.35460814       0.90924708      -0.77205714
C       -0.31934395       1.05005945       0.81621999
N       -1.10266772       0.49727418      -0.29959588
C       -0.58594696      -0.40759686       0.74673293
H        1.30506433      -1.40906621       0.94998041
H        0.23302919      -2.16299396      -0.23467543
H        2.15566547      -0.18836900      -1.13715880
H        0.44769273       1.81804682      -1.35203228
H       -0.85793453       1.72138592       1.47725819
H       -1.95996094       0.48615905      -0.81606012
H       -1.34475897      -0.86672417       1.37017461
13
Frame=6 idx=002255 GeodesicLength=0.39427210626742804 rxn_smarts="[C:1]1([H:7])([H:8])[C:2]([H:9])=[C:3]([H:10])[C@@:4]2([H:11])[N:5]([H:12])[C@@:6]12[H:13]>>[C:1]1([H:7])([H:8])[C:2]([H:9])=[C:3]([H:10])[N+:5]2([H:12])[C-:4]([H:11])[C@:6]12[H:13]"
C        0.57030123      -1.19496724       0.16095157
C        1.09813155      -0.23969791      -0.90045871
C        0.36088857       0.91645529      -0.77360834
C       -0.31813048       1.05339522       0.82742818
N       -1.11266164       0.50613027      -0.28481817
C       -0.58959394      -0.40337785       0.75222551
H        1.30156651      -1.40840562       0.94916005
H        0.22990255      -2.15488467      -0.24040537
H        2.14826905      -0.20058525      -1.15810046
H        0.46151153       1.82177399      -1.35768738
H       -0.86256881       1.71966790       1.48903864
H       -1.94313059       0.45271975      -0.83986208
H       -1.34448553      -0.86822388       1.37613654
13
Frame=7 idx=002255 GeodesicLength=0.4598367562710152 rxn_smarts="[C:1]1([H:7])([H:8])[C:2]([H:9])=[C:3]([H:10])[C@@:4]2([H:11])[N:5]([H:12])[C@@:6]12[H:13]>>[C:1]1([H:7])([H:8])[C:2]([H:9])=[C:3]([H:10])[N+:5]2([H:12])[C-:4]([H:11])[C@:6]12[H:13]"
C        0.56581093      -1.18957612       0.16300826
C        1.09707626      -0.23206413      -0.89268103
C        0.36712038       0.92364065      -0.77535994
C       -0.31757925       1.05667575       0.83822001
N       -1.12321668       0.51453678      -0.27052717
C       -0.59343928      -0.39931863       0.75739503
H        1.29794049      -1.40762147       0.94868006
H        0.22716911      -2.14676975      -0.24616850
H        2.13989494      -0.21307288      -1.17951334
H        0.47539828       1.82532657      -1.36366896
H       -0.86768045       1.71786855       1.50047497
H       -1.92419998       0.42044262      -0.86153142
H       -1.34429475      -0.87006795       1.38167203
13
Frame=8 idx=002255 GeodesicLength=0.5255093900409651 rxn_smarts="[C:1]1([H:7])([H:8])[C:2]([H:9])=[C:3]([H:10])[C@@:4]2([H:11])[N:5]([H:12])[C@@:6]12[H:13]>>[C:1]1([H:7])([H:8])[C:2]([H:9])=[C:3]([H:10])[N+:5]2([H:12])[C-:4]([H:11])[C@:6]12[H:13]"
C        0.56158776      -1.18403760       0.16527359
C        1.09655164      -0.22422986      -0.88446381
C        0.37347133       0.93071507      -0.77723299
C       -0.31784113       1.05968057       0.84869422
N       -1.13422621       0.52223697      -0.25672160
C       -0.59751160      -0.39550839       0.76229369
H        1.29432864      -1.40636537       0.94867747
H        0.22518056      -2.13854672      -0.25172383
H        2.13037890      -0.22616691      -1.20194745
H        0.48941906       1.82848492      -1.37001256
H       -0.87360898       1.71564465       1.51163756
H       -1.90348007       0.39045504      -0.88131206
H       -1.34424990      -0.87236236       1.38683777
13
Frame=9 idx=002255 GeodesicLength=0.5910932516689323 rxn_smarts="[C:1]1([H:7])([H:8])[C:2]([H:9])=[C:3]([H:10])[C@@:4]2([H:11])[N:5]([H:12])[C@@:6]12[H:13]>>[C:1]1([H:7])([H:8])[C:2]([H:9])=[C:3]([H:10])[N+:5]2([H:12])[C-:4]([H:11])[C@:6]12[H:13]"
C        0.55764742      -1.17843164       0.16768152
C        1.09671077      -0.21615823      -0.87569760
C        0.37999089       0.93770887      -0.77925439
C       -0.31884870       1.06256706       0.85874000
N       -1.14559848       0.52926825      -0.24349723
C       -0.60170720      -0.39190474       0.76688241
H        1.29069284      -1.40491536       0.94911230
H        0.22384742      -2.13027130      -0.25727180
H        2.11967065      -0.23976262      -1.22511005
H        0.50372332       1.83135504      -1.37662932
H       -0.88032957       1.71322594       1.52231312
H       -1.88153795       0.36235986      -0.89879221
H       -1.34426141      -0.87504112       1.39152327
13
Frame=10 idx=002255 GeodesicLength=0.6567448458055382 rxn_smarts="[C:1]1([H:7])([H:8])[C:2]([H:9])=[C:3]([H:10])[C@@:4]2([H:11])[N:5]([H:12])[C@@:6]12[H:13]>>[C:1]1([H:7])([H:8])[C:2]([H:9])=[C:3]([H:10])[N+:5]2([H:12])[C-:4]([H:11])[C@:6]12[H:13]"
C        0.55411437      -1.17270601       0.17038796
C        1.09760849      -0.20781293      -0.86629395
C        0.38684236       0.94471911      -0.78125739
C       -0.32067160       1.06526525       0.86849583
N       -1.15726975       0.53554999      -0.23082090
C       -0.60603256      -0.38857951       0.77122374
H        1.28720791      -1.40305827       0.95016682
H        0.22341894      -2.12195425      -0.26255785
H        2.10732376      -0.25430646      -1.24971221
H        0.51841778       1.83401977      -1.38341887
H       -0.88805972       1.71044863       1.53259784
H       -1.85854090       0.33666338      -0.91457835
H       -1.34435909      -0.87824870       1.39576733
13
Frame=11 idx=002255 GeodesicLength=0.7223620876023005 rxn_smarts="[C:1]1([H:7])([H:8])[C:2]([H:9])=[C:3]([H:10])[C@@:4]2([H:11])[N:5]([H:12])[C@@:6]12[H:13]>>[C:1]1([H:7])([H:8])[C:2]([H:9])=[C:3]([H:10])[N+:5]2([H:12])[C-:4]([H:11])[C@:6]12[H:13]"
C        0.55097438      -1.16686716       0.17332434
C        1.09941558      -0.19911322      -0.85614953
C        0.39407775       0.95173460      -0.78325642
C       -0.32324388       1.06786281       0.87792036
N       -1.16915390       0.54112262      -0.21871391
C       -0.61041080      -0.38546671       0.77532130
H        1.28377732      -1.40100498       0.95178897
H        0.22379153      -2.11351829      -0.26779641
H        2.09313457      -0.26967077      -1.27554694
H        0.53363620       1.83648092      -1.39031667
H       -0.89674905       1.70744931       1.54238377
H       -1.83477362       0.31286720      -0.92850334
H       -1.34447606      -0.88187634       1.39954449
13
Frame=12 idx=002255 GeodesicLength=0.7879220978975671 rxn_smarts="[C:1]1([H:7])([H:8])[C:2]([H:9])=[C:3]([H:10])[C@@:4]2([H:11])[N:5]([H:12])[C@@:6]12[H:13]>>[C:1]1([H:7])([H:8])[C:2]([H:9])=[C:3]([H:10])[N+:5]2([H:12])[C-:4]([H:11])[C@:6]12[H:13]"
C        0.54832508      -1.16085433       0.17654578
C        1.10218704      -0.19006948      -0.84521640
C        0.40180335       0.95876636      -0.78512337
C       -0.32659861       1.07028260       0.88708984
N       -1.18119128       0.54591895      -0.20710057
C       -0.61482126      -0.38259758       0.77919343
H        1.28051278      -1.39857668       0.95400508
H        0.22518331      -2.10492133      -0.27282940
H        2.07660579      -0.28614015      -1.30284647
H        0.54936379       1.83868032      -1.39726884
H       -0.90651388       1.70409034       1.55171889
H       -1.81027843       0.29138797      -0.94103345
H       -1.34457768      -0.88596699       1.40286547
13
Frame=13 idx=002255 GeodesicLength=0.8535228290452843 rxn_smarts="[C:1]1([H:7])([H:8])[C:2]([H:9])=[C:3]([H:10])[C@@:4]2([H:11])[N:5]([H:12])[C@@:6]12[H:13]>>[C:1]1([H:7])([H:8])[C:2]([H:9])=[C:3]([H:10])[N+:5]2([H:12])[C-:4]([H:11])[C@:6]12[H:13]"
C        0.54615070      -1.15468397       0.18005053
C        1.10609204      -0.18055166      -0.83341688
C        0.41011487       0.96589392      -0.78688076
C       -0.33064776       1.07263264       0.89602203
N       -1.19332545       0.54999418      -0.19605701
C       -0.61921258      -0.37994850       0.78287953
H        1.27735324      -1.39596118       0.95690192
H        0.22745652      -2.09615536      -0.27779800
H        2.05729018      -0.30359154      -1.33159496
H        0.56583150       1.84078547      -1.40422488
H       -0.91727114       1.70050394       1.56058975
H       -1.78518182       0.27160283      -0.95222937
H       -1.34465029      -0.89052077       1.40575810
13
Frame=14 idx=002255 GeodesicLength=0.9189330271508696 rxn_smarts="[C:1]1([H:7])([H:8])[C:2]([H:9])=[C:3]([H:10])[C@@:4]2([H:11])[N:5]([H:12])[C@@:6]12[H:13]>>[C:1]1([H:7])([H:8])[C:2]([H:9])=[C:3]([H:10])[N+:5]2([H:12])[C-:4]([H:11])[C@:6]12[H:13]"
C        0.54456553      -1.14828102       0.18382196
C        1.11116078      -0.17063490      -0.82072759
C        0.41906699       0.97306558      -0.78836963
C       -0.33544107       1.07485139       0.90469680
N       -1.20551271       0.55333937      -0.18549993
C       -0.62353502      -0.37748749       0.78631723
H        1.27441983      -1.39301125       0.96035231
H        0.23084531      -2.08712515      -0.28258005
H        2.03449999      -0.32227881      -1.36175286
H        0.58303477       1.84268259      -1.41096452
H       -0.92914097       1.69659028       1.56892221
H       -1.75936993       0.25374449      -0.96233584
H       -1.34459350      -0.89545508       1.40811992
13
Frame=15 idx=002255 GeodesicLength=0.9845325370416081 rxn_smarts="[C:1]1([H:7])([H:8])[C:2]([H:9])=[C:3]([H:10])[C@@:4]2([H:11])[N:5]([H:12])[C@@:6]12[H:13]>>[C:1]1([H:7])([H:8])[C:2]([H:9])=[C:3]([H:10])[N+:5]2([H:12])[C-:4]([H:11])[C@:6]12[H:13]"
C        0.54354698      -1.14174776       0.18790102
C        1.11746383      -0.16026075      -0.80730175
C        0.42878547       0.98043958      -0.78971477
C       -0.34084563       1.07705007       0.91319493
N       -1.21773749       0.55596287      -0.17555006
C       -0.62776856      -0.37530591       0.78959979
H        1.27172405      -1.38987501       0.96456035
H        0.23520690      -2.07805985      -0.28718404
H        2.00776679      -0.34188479      -1.39309172
H        0.60117594       1.84467130      -1.41769284
H       -0.94195407       1.69248727       1.57684934
H       -1.73293670       0.23750301      -0.97169379
H       -1.34442750      -0.90098005       1.41012353
13
Frame=16 idx=002255 GeodesicLength=1.049908236129638 rxn_smarts="[C:1]1([H:7])([H:8])[C:2]([H:9])=[C:3]([H:10])[C@@:4]2([H:11])[N:5]([H:12])[C@@:6]12[H:13]>>[C:1]1([H:7])([H:8])[C:2]([H:9])=[C:3]([H:10])[N+:5]2([H:12])[C-:4]([H:11])[C@:6]12[H:13]"
C        0.54299303      -1.13495024       0.19189988
C        1.12460629      -0.14978451      -0.79366703
C        0.43909193       0.98761186      -0.79099179
C       -0.34669084       1.07901856       0.92121307
N       -1.23004633       0.55790035      -0.16598074
C       -0.63182117      -0.37322755       0.79253713
H        1.26929045      -1.38642073       0.96873557
H        0.24034279      -2.06862131      -0.29170660
H        1.97765588      -0.36181159      -1.42370413
H        0.62001937       1.84614347      -1.42429286
H       -0.95536153       1.68796955       1.58407712
H       -1.70615833       0.22282157      -0.97975264
H       -1.34392154      -0.90664942       1.41163300
