14
Frame=0 idx=004970 GeodesicLength=0.0 rxn_smarts="[O:1]([C:2]([C@@:3]1([H:10])[C:4]([H:11])([H:12])[C:5]([H:13])([H:14])[O:6]1)([H:8])[H:9])[H:7]>>[C:2](=[C:3]1[C:4]([H:11])([H:12])[C:5]([H:13])([H:14])[O:6]1)([H:8])[H:9].[O:1]([H:7])[H:10]"
O       -1.92905107      -0.67117115       1.47635690
C       -1.43091324      -0.34017996      -0.31698892
C       -0.11794581       0.02344496       0.00766743
C        1.22533820      -0.52930637      -0.43741459
C        1.64778389       0.94701493      -0.40372661
O        0.31390339       1.38221833      -0.08968653
H       -2.47423960       0.02313813       1.86767105
H       -1.64834190      -1.34860558      -0.64212966
H       -2.16459310       0.41724867      -0.56855127
H       -0.74071148      -0.31376359       1.22963407
H        1.73700447      -1.18613677       0.26327494
H        1.23587407      -0.97925446      -1.43062934
H        1.99635492       1.36956332      -1.34883430
H        2.34953721       1.20578959       0.39335679
14
Frame=1 idx=004970 GeodesicLength=0.08742931657689618 rxn_smarts="[O:1]([C:2]([C@@:3]1([H:10])[C:4]([H:11])([H:12])[C:5]([H:13])([H:14])[O:6]1)([H:8])[H:9])[H:7]>>[C:2](=[C:3]1[C:4]([H:11])([H:12])[C:5]([H:13])([H:14])[O:6]1)([H:8])[H:9].[O:1]([H:7])[H:10]"
O       -1.95812397      -0.60082418       1.49415942
C       -1.43011507      -0.38204678      -0.31881558
C       -0.11895713      -0.01083230       0.00531867
C        1.22764869      -0.52703668      -0.46946216
C        1.63415134       0.95133254      -0.37523850
O        0.29485040       1.35604183      -0.04321550
H       -2.42063243       0.16789492       1.85023202
H       -1.64721789      -1.40495269      -0.59865187
H       -2.15549077       0.35808406      -0.63740836
H       -0.71903135      -0.37221117       1.24507635
H        1.75118371      -1.20742058       0.19943127
H        1.23499850      -0.93311111      -1.48147656
H        1.97497907       1.41802851      -1.30242879
H        2.33175690       1.18705365       0.43247960
14
Frame=2 idx=004970 GeodesicLength=0.17563980854772313 rxn_smarts="[O:1]([C:2]([C@@:3]1([H:10])[C:4]([H:11])([H:12])[C:5]([H:13])([H:14])[O:6]1)([H:8])[H:9])[H:7]>>[C:2](=[C:3]1[C:4]([H:11])([H:12])[C:5]([H:13])([H:14])[O:6]1)([H:8])[H:9].[O:1]([H:7])[H:10]"
O       -1.97876261      -0.53230501       1.50771976
C       -1.43049683      -0.41972375      -0.32086192
C       -0.12084445      -0.04187956       0.00325878
C        1.22807213      -0.52380093      -0.49807587
C        1.62081362       0.95397518      -0.34807211
O        0.27645039       1.33083864      -0.00285619
H       -2.36079296       0.29424714       1.82674119
H       -1.64771243      -1.45439192      -0.55734596
H       -2.14733728       0.30044425      -0.69904891
H       -0.70206681      -0.42195503       1.26090377
H        1.76214889      -1.22481118       0.14076609
H        1.23138950      -0.88892388      -1.52570681
H        1.95545821       1.46019460      -1.25697958
H        2.31368063       1.16809146       0.46955776
14
Frame=3 idx=004970 GeodesicLength=0.2641999462429415 rxn_smarts="[O:1]([C:2]([C@@:3]1([H:10])[C:4]([H:11])([H:12])[C:5]([H:13])([H:14])[O:6]1)([H:8])[H:9])[H:7]>>[C:2](=[C:3]1[C:4]([H:11])([H:12])[C:5]([H:13])([H:14])[O:6]1)([H:8])[H:9].[O:1]([H:7])[H:10]"
O       -1.99298379      -0.46687075       1.51759408
C       -1.43135026      -0.45354153      -0.32287643
C       -0.12309848      -0.06992859       0.00144969
C        1.22685240      -0.51971399      -0.52364007
C        1.60781672       0.95508088      -0.32244871
O        0.25903951       1.30673407       0.03196244
H       -2.29820153       0.40378277       1.79920102
H       -1.64885366      -1.49730290      -0.51862753
H       -2.13947645       0.24480127      -0.75422665
H       -0.68815028      -0.46327200       1.27748522
H        1.77026408      -1.23862355       0.08692120
H        1.22524865      -0.84661508      -1.56415561
H        1.93739997       1.49646111      -1.21305489
H        2.29549310       1.14900830       0.50441623
14
Frame=4 idx=004970 GeodesicLength=0.3531463933975167 rxn_smarts="[O:1]([C:2]([C@@:3]1([H:10])[C:4]([H:11])([H:12])[C:5]([H:13])([H:14])[O:6]1)([H:8])[H:9])[H:7]>>[C:2](=[C:3]1[C:4]([H:11])([H:12])[C:5]([H:13])([H:14])[O:6]1)([H:8])[H:9].[O:1]([H:7])[H:10]"
O       -2.00281697      -0.40447074       1.52442432
C       -1.43240493      -0.48407041      -0.32460556
C       -0.12540568      -0.09540846       0.00003088
C        1.22440233      -0.51492490      -0.54672471
C        1.59537437       0.95500509      -0.29837102
O        0.24277499       1.28386621       0.06239066
H       -2.23536990       0.49901158       1.76883482
H       -1.65023495      -1.53467844      -0.48235986
H       -2.13171086       0.19103961      -0.80401781
H       -0.67618970      -0.49759602       1.29516363
H        1.77634383      -1.24949998       0.03694689
H        1.21691379      -0.80599260      -1.59785308
H        1.92055227       1.52783814      -1.17082811
H        2.27777140       1.12988093       0.53696894
14
Frame=5 idx=004970 GeodesicLength=0.4424842119896853 rxn_smarts="[O:1]([C:2]([C@@:3]1([H:10])[C:4]([H:11])([H:12])[C:5]([H:13])([H:14])[O:6]1)([H:8])[H:9])[H:7]>>[C:2](=[C:3]1[C:4]([H:11])([H:12])[C:5]([H:13])([H:14])[O:6]1)([H:8])[H:9].[O:1]([H:7])[H:10]"
O       -2.00948749      -0.34461194       1.52902074
C       -1.43376540      -0.51198052      -0.32591326
C       -0.12772541      -0.11873670      -0.00104093
C        1.22109706      -0.50952635      -0.56795248
C        1.58367857       0.95396300      -0.27559401
O        0.22770698       1.26203947       0.08924636
H       -2.17377969       0.58252780       1.73619011
H       -1.65173436      -1.56784577      -0.44809677
H       -2.12433371       0.13875124      -0.84929839
H       -0.66539788      -0.52594333       1.31392931
H        1.78105342      -1.25805441      -0.01033507
H        1.20688143      -0.76656683      -1.62775292
H        1.90496717       1.55541949      -1.12989866
H        2.26083930       1.11056484       0.56749596
14
Frame=6 idx=004970 GeodesicLength=0.5325877380205422 rxn_smarts="[O:1]([C:2]([C@@:3]1([H:10])[C:4]([H:11])([H:12])[C:5]([H:13])([H:14])[O:6]1)([H:8])[H:9])[H:7]>>[C:2](=[C:3]1[C:4]([H:11])([H:12])[C:5]([H:13])([H:14])[O:6]1)([H:8])[H:9].[O:1]([H:7])[H:10]"
O       -2.01408774      -0.28684822       1.53157219
C       -1.43524238      -0.53773344      -0.32686298
C       -0.13000249      -0.14026785      -0.00176878
C        1.21701716      -0.50361777      -0.58771243
C        1.57262895       0.95221932      -0.25394525
O        0.21366322       1.24130426       0.11321733
H       -2.11352242       0.65657956       1.70234584
H       -1.65318483      -1.59754454      -0.41549091
H       -2.11692857       0.08745477      -0.89116744
H       -0.65524672      -0.54975878       1.33374569
H        1.78445089      -1.26474315      -0.05543844
H        1.19539585      -0.72809202      -1.65468738
H        1.89056823       1.57995489      -1.09019245
H        2.24449084       1.09109298       0.59638501
14
Frame=7 idx=004970 GeodesicLength=0.6227593075728822 rxn_smarts="[O:1]([C:2]([C@@:3]1([H:10])[C:4]([H:11])([H:12])[C:5]([H:13])([H:14])[O:6]1)([H:8])[H:9])[H:7]>>[C:2](=[C:3]1[C:4]([H:11])([H:12])[C:5]([H:13])([H:14])[O:6]1)([H:8])[H:9].[O:1]([H:7])[H:10]"
O       -2.01729004      -0.23135618       1.53218788
C       -1.43681324      -0.56141669      -0.32749065
C       -0.13219636      -0.16013150      -0.00207721
C        1.21233316      -0.49731189      -0.60611435
C        1.56238491       0.94993805      -0.23350380
O        0.20071783       1.22180748       0.13482766
H       -2.05548801       0.72198934       1.66805730
H       -1.65455650      -1.62402824      -0.38465372
H       -2.10937885       0.03723339      -0.92999844
H       -0.64556401      -0.56965565       1.35463585
H        1.78676718      -1.26978606      -0.09849348
H        1.18262296      -0.69073608      -1.67882617
H        1.87733818       1.60181617      -1.05193628
H        2.22912279       1.07163788       0.62338542
14
Frame=8 idx=004970 GeodesicLength=0.7130043427833737 rxn_smarts="[O:1]([C:2]([C@@:3]1([H:10])[C:4]([H:11])([H:12])[C:5]([H:13])([H:14])[O:6]1)([H:8])[H:9])[H:7]>>[C:2](=[C:3]1[C:4]([H:11])([H:12])[C:5]([H:13])([H:14])[O:6]1)([H:8])[H:9].[O:1]([H:7])[H:10]"
O       -2.01948725      -0.17773761       1.53111709
C       -1.43847510      -0.58329580      -0.32782656
C       -0.13432226      -0.17853751      -0.00198547
C        1.20712517      -0.49064775      -0.62340292
C        1.55294258       0.94722439      -0.21412835
O        0.18880229       1.20347338       0.15453160
H       -2.00000364       0.77999069       1.63360217
H       -1.65582813      -1.64778824      -0.35531470
H       -2.10163033      -0.01222002      -0.96627906
H       -0.63603521      -0.58626924       1.37654093
H        1.78814567      -1.27347557      -0.13995417
H        1.16877666      -0.65429730      -1.70063570
H        1.86525694       1.62146151      -1.01495792
H        2.21473261       1.05211907       0.64869306
14
Frame=9 idx=004970 GeodesicLength=0.8031708107575721 rxn_smarts="[O:1]([C:2]([C@@:3]1([H:10])[C:4]([H:11])([H:12])[C:5]([H:13])([H:14])[O:6]1)([H:8])[H:9])[H:7]>>[C:2](=[C:3]1[C:4]([H:11])([H:12])[C:5]([H:13])([H:14])[O:6]1)([H:8])[H:9].[O:1]([H:7])[H:10]"
O       -2.02091405      -0.12592508       1.52868818
C       -1.44031004      -0.60358374      -0.32801262
C       -0.13651649      -0.19556428      -0.00164966
C        1.20147497      -0.48367288      -0.63972226
C        1.54414190       0.94410218      -0.19566920
O        0.17775448       1.18611708       0.17242896
H       -1.94663724       0.83161363       1.59933367
H       -1.65692751      -1.66928562      -0.32741949
H       -2.09372045      -0.06100412      -1.00034574
H       -0.62647623      -0.59977863       1.39922997
H        1.78862784      -1.27602121      -0.17997923
H        1.15422427      -0.61862429      -1.72039931
H        1.85424166       1.63915767      -0.97909594
H        2.20103691       1.03246928       0.67261266
14
Frame=10 idx=004970 GeodesicLength=0.8934124646666292 rxn_smarts="[O:1]([C:2]([C@@:3]1([H:10])[C:4]([H:11])([H:12])[C:5]([H:13])([H:14])[O:6]1)([H:8])[H:9])[H:7]>>[C:2](=[C:3]1[C:4]([H:11])([H:12])[C:5]([H:13])([H:14])[O:6]1)([H:8])[H:9].[O:1]([H:7])[H:10]"
O       -2.02189759      -0.07564041       1.52483818
C       -1.44216244      -0.62240091      -0.32807987
C       -0.13865368      -0.21140171      -0.00099358
C        1.19536044      -0.47641723      -0.65519164
C        1.53601531       0.94064443      -0.17808329
O        0.16761666       1.16975646       0.18901374
H       -1.89586486       0.87772987       1.56547316
H       -1.65783048      -1.68864858      -0.30080870
H       -2.08535835      -0.10935558      -1.03255671
H       -0.61662450      -0.61094472       1.42275388
H        1.78824559      -1.27750785      -0.21880221
H        1.13879122      -0.58365170      -1.73834282
H        1.84414641       1.65513301      -0.94432430
H        2.18821626       1.01270493       0.69510417
14
Frame=11 idx=004970 GeodesicLength=0.9837541053961271 rxn_smarts="[O:1]([C:2]([C@@:3]1([H:10])[C:4]([H:11])([H:12])[C:5]([H:13])([H:14])[O:6]1)([H:8])[H:9])[H:7]>>[C:2](=[C:3]1[C:4]([H:11])([H:12])[C:5]([H:13])([H:14])[O:6]1)([H:8])[H:9].[O:1]([H:7])[H:10]"
O       -2.02258906      -0.02667226       1.51971219
C       -1.44405937      -0.63990703      -0.32810569
C       -0.14077703      -0.22617619      -0.00006755
C        1.18884407      -0.46891055      -0.66994868
C        1.52851835       0.93690014      -0.16126921
O        0.15830075       1.15430485       0.20453876
H       -1.84763877       0.91917880       1.53214830
H       -1.65857005      -1.70617310      -0.27533681
H       -2.07652102      -0.15746490      -1.06315451
H       -0.60632196      -0.62013988       1.44700156
H        1.78706310      -1.27810508      -0.25662670
H        1.12263108      -0.54927124      -1.75470512
H        1.83491350       1.66965430      -0.91051006
H        2.17620642       0.99278216       0.71632350
14
Frame=12 idx=004970 GeodesicLength=1.0740813815106622 rxn_smarts="[O:1]([C:2]([C@@:3]1([H:10])[C:4]([H:11])([H:12])[C:5]([H:13])([H:14])[O:6]1)([H:8])[H:9])[H:7]>>[C:2](=[C:3]1[C:4]([H:11])([H:12])[C:5]([H:13])([H:14])[O:6]1)([H:8])[H:9].[O:1]([H:7])[H:10]"
O       -2.02312717       0.02102937       1.51333834
C       -1.44600476      -0.65618268      -0.32817914
C       -0.14291128      -0.23996320       0.00109668
C        1.18194428      -0.46118340      -0.68403103
C        1.52160729       0.93289807      -0.14518688
O        0.14976493       1.13969566       0.21919410
H       -1.80185684       0.95646499       1.49953006
H       -1.65916029      -1.72197965      -0.25099374
H       -2.06715035      -0.20537947      -1.09229119
H       -0.59546959      -0.62762439       1.47191376
H        1.78509657      -1.27787959      -0.29349601
H        1.10582888      -0.51547856      -1.76957222
H        1.82644527       1.68283732      -0.87762515
H        2.16499306       0.97274555       0.73630242
14
Frame=13 idx=004970 GeodesicLength=1.1642864693893213 rxn_smarts="[O:1]([C:2]([C@@:3]1([H:10])[C:4]([H:11])([H:12])[C:5]([H:13])([H:14])[O:6]1)([H:8])[H:9])[H:7]>>[C:2](=[C:3]1[C:4]([H:11])([H:12])[C:5]([H:13])([H:14])[O:6]1)([H:8])[H:9].[O:1]([H:7])[H:10]"
O       -2.02362285       0.06745607       1.50582263
C       -1.44804287      -0.67129667      -0.32841341
C       -0.14513419      -0.25277373       0.00241785
C        1.17467539      -0.45328377      -0.69746213
C        1.51519135       0.92866593      -0.12978953
O        0.14193385       1.12587063       0.23305229
H       -1.75820185       0.99002310       1.46784807
H       -1.65956807      -1.73623487      -0.22779206
H       -2.05724456      -0.25310372      -1.12014352
H       -0.58398825      -0.63352068       1.49741403
H        1.78232725      -1.27693172      -0.32937686
H        1.08856223      -0.48227978      -1.78307375
H        1.81866103       1.69476665      -0.84565537
H        2.15445152       0.95264257       0.75515174
14
Frame=14 idx=004970 GeodesicLength=1.2545596142917153 rxn_smarts="[O:1]([C:2]([C@@:3]1([H:10])[C:4]([H:11])([H:12])[C:5]([H:13])([H:14])[O:6]1)([H:8])[H:9])[H:7]>>[C:2](=[C:3]1[C:4]([H:11])([H:12])[C:5]([H:13])([H:14])[O:6]1)([H:8])[H:9].[O:1]([H:7])[H:10]"
O       -2.02415732       0.11292766       1.49716658
C       -1.45014708      -0.68538171      -0.32884840
C       -0.14741397      -0.26477121       0.00388191
C        1.16706432      -0.44519940      -0.71034092
C        1.50925709       0.92422180      -0.11498594
O        0.13475707       1.11271500       0.24636482
H       -1.71673722       1.02049303       1.43701132
H       -1.65990805      -1.74908715      -0.20556508
H       -2.04672299      -0.30087353      -1.14680319
H       -0.57171340      -0.63824268       1.52343505
H        1.77882693      -1.27530371      -0.36448625
H        1.07080190      -0.44953509      -1.79532624
H        1.81148664       1.70562965      -0.81443694
H        2.14460609       0.93240734       0.77293328
14
Frame=15 idx=004970 GeodesicLength=1.3449097119581195 rxn_smarts="[O:1]([C:2]([C@@:3]1([H:10])[C:4]([H:11])([H:12])[C:5]([H:13])([H:14])[O:6]1)([H:8])[H:9])[H:7]>>[C:2](=[C:3]1[C:4]([H:11])([H:12])[C:5]([H:13])([H:14])[O:6]1)([H:8])[H:9].[O:1]([H:7])[H:10]"
O       -2.02476743       0.15754944       1.48743955
C       -1.45234578      -0.69852560      -0.32955375
C       -0.14979218      -0.27602060       0.00543626
C        1.15913392      -0.43694927      -0.72271197
C        1.50374959       0.91958279      -0.10071425
O        0.12816638       1.10015540       0.25925243
H       -1.67730019       1.04829415       1.40699212
H       -1.66022736      -1.76066259      -0.18425114
H       -2.03559190      -0.34875835      -1.17233468
H       -0.55853613      -0.64197883       1.54991957
H        1.77462053      -1.27307457      -0.39889027
H        1.05265010      -0.41719576      -1.80644047
H        1.80485661       1.71554191      -0.78388427
H        2.13538386       0.91204187       0.78974087
14
Frame=16 idx=004970 GeodesicLength=1.4353446163219703 rxn_smarts="[O:1]([C:2]([C@@:3]1([H:10])[C:4]([H:11])([H:12])[C:5]([H:13])([H:14])[O:6]1)([H:8])[H:9])[H:7]>>[C:2](=[C:3]1[C:4]([H:11])([H:12])[C:5]([H:13])([H:14])[O:6]1)([H:8])[H:9].[O:1]([H:7])[H:10]"
O       -2.02551729       0.20140924       1.47664490
C       -1.45465892      -0.71079117      -0.33060388
C       -0.15230491      -0.28657299       0.00704143
C        1.15090483      -0.42855569      -0.73460332
C        1.49861414       0.91477100      -0.08693644
O        0.12210426       1.08812739       0.27182058
H       -1.63970170       1.07372490       1.37782815
H       -1.66057117      -1.77103522      -0.16381862
H       -2.02383844      -0.39678404      -1.19678965
H       -0.54436790      -0.64490754       1.57683256
H        1.76972477      -1.27029216      -0.43259755
H        1.03419222      -0.38525047      -1.81648536
H        1.79868801       1.72457881      -0.75395744
H        2.12673210       0.89157794       0.80562463
