12
Frame=0 idx=011814 GeodesicLength=0.0 rxn_smarts="[N:1]#[C:2][C@@:3]1([H:8])[O:4][C@@:5]2([H:9])[C:6]([H:10])([H:11])[C@@:7]12[H:12]>>[N+:1]1#[C:2][C@@:3]2([H:8])[O:4][C-:5]([H:9])[C:6]([H:10])([H:11])[C@@:7]12[H:12]"
N        1.83664097       0.94238215      -0.62905169
C        2.00326938       0.47636836       0.48022733
C        0.92739774      -0.65874994       0.42979601
O       -0.13016797      -0.76435993       1.33659383
C       -1.18588287      -0.24020652       0.71308856
C       -0.87283460       0.74713818      -0.31443141
C        0.24922264      -0.12949843      -0.82748459
H        1.42733378      -1.62089416       0.38524724
H       -2.14872001      -0.58477190       1.06731036
H       -1.69453121       0.89612989      -1.01150528
H       -0.52046637       1.71961668       0.05562482
H        0.10873848      -0.78315433      -1.68541521
12
Frame=1 idx=011814 GeodesicLength=0.039050196299204525 rxn_smarts="[N:1]#[C:2][C@@:3]1([H:8])[O:4][C@@:5]2([H:9])[C:6]([H:10])([H:11])[C@@:7]12[H:12]>>[N+:1]1#[C:2][C@@:3]2([H:8])[O:4][C-:5]([H:9])[C:6]([H:10])([H:11])[C@@:7]12[H:12]"
N        1.84373675       0.94626783      -0.62916289
C        2.00376036       0.47192373       0.47744529
C        0.92847415      -0.66392911       0.43047715
O       -0.12504122      -0.75091188       1.34547129
C       -1.18108675      -0.24586972       0.70594629
C       -0.87616628       0.75084920      -0.31584539
C        0.24434904      -0.13133574      -0.82149221
H        1.42212858      -1.62942635       0.38737863
H       -2.14345264      -0.58899772       1.06312531
H       -1.69836676       0.89562673      -1.01344652
H       -0.52641808       1.72277430       0.05618263
H        0.10808286      -0.77697127      -1.68607959
12
Frame=2 idx=011814 GeodesicLength=0.07806159280235386 rxn_smarts="[N:1]#[C:2][C@@:3]1([H:8])[O:4][C@@:5]2([H:9])[C:6]([H:10])([H:11])[C@@:7]12[H:12]>>[N+:1]1#[C:2][C@@:3]2([H:8])[O:4][C-:5]([H:9])[C:6]([H:10])([H:11])[C@@:7]12[H:12]"
N        1.85087204       0.95029695      -0.62893789
C        2.00410150       0.46741617       0.47476015
C        0.92943087      -0.66916758       0.43108539
O       -0.12003524      -0.73770421       1.35375389
C       -1.17607151      -0.25124927       0.69908815
C       -0.87950118       0.75436123      -0.31729264
C        0.23952790      -0.13314291      -0.81553247
H        1.41674600      -1.63796270       0.38941161
H       -2.13795202      -0.59279422       1.05926431
H       -1.70224373       0.89469061      -1.01531877
H       -0.53249370       1.72586200       0.05647473
H        0.10761906      -0.77060607      -1.68675646
12
Frame=3 idx=011814 GeodesicLength=0.11707992472569831 rxn_smarts="[N:1]#[C:2][C@@:3]1([H:8])[O:4][C@@:5]2([H:9])[C:6]([H:10])([H:11])[C@@:7]12[H:12]>>[N+:1]1#[C:2][C@@:3]2([H:8])[O:4][C-:5]([H:9])[C:6]([H:10])([H:11])[C@@:7]12[H:12]"
N        1.85816239       0.95447299      -0.62846512
C        2.00443064       0.46280788       0.47215233
C        0.93034628      -0.67449924       0.43166303
O       -0.11512553      -0.72477867       1.36159368
C       -1.17095222      -0.25634790       0.69257585
C       -0.88291161       0.75773488      -0.31879702
C        0.23478297      -0.13490386      -0.80964609
H        1.41131002      -1.64656369       0.39139733
H       -2.13238844      -0.59626327       1.05574300
H       -1.70628420       0.89344674      -1.01719182
H       -0.53874349       1.72893323       0.05647959
H        0.10737320      -0.76403909      -1.68750474
12
Frame=4 idx=011814 GeodesicLength=0.15609701572071874 rxn_smarts="[N:1]#[C:2][C@@:3]1([H:8])[O:4][C@@:5]2([H:9])[C:6]([H:10])([H:11])[C@@:7]12[H:12]>>[N+:1]1#[C:2][C@@:3]2([H:8])[O:4][C-:5]([H:9])[C:6]([H:10])([H:11])[C@@:7]12[H:12]"
N        1.86557348       0.95878647      -0.62773697
C        2.00471919       0.45811005       0.46959580
C        0.93119661      -0.67990177       0.43220217
O       -0.11029084      -0.71208342       1.36900185
C       -1.16571211      -0.26115606       0.68638483
C       -0.88636726       0.76096978      -0.32034472
C        0.23009424      -0.13663036      -0.80381255
H        1.40576439      -1.65520742       0.39332811
H       -2.12671632      -0.59946602       1.05247964
H       -1.71043516       0.89188947      -1.01903595
H       -0.54513112       1.73198169       0.05621903
H        0.10730490      -0.75729241      -1.68828124
12
Frame=5 idx=011814 GeodesicLength=0.1951169757869081 rxn_smarts="[N:1]#[C:2][C@@:3]1([H:8])[O:4][C@@:5]2([H:9])[C:6]([H:10])([H:11])[C@@:7]12[H:12]>>[N+:1]1#[C:2][C@@:3]2([H:8])[O:4][C-:5]([H:9])[C:6]([H:10])([H:11])[C@@:7]12[H:12]"
N        1.87311261       0.96322685      -0.62676651
C        2.00498131       0.45331962       0.46706643
C        0.93198204      -0.68536596       0.43270535
O       -0.10551312      -0.69958486       1.37601583
C       -1.16036469      -0.26566669       0.68051128
C       -0.88986515       0.76407957      -0.32193187
C        0.22545312      -0.13832450      -0.79802541
H        1.40009428      -1.66389070       0.39521062
H       -2.12094061      -0.60247450       1.04942072
H       -1.71469275       0.89004194      -1.02084234
H       -0.55164300       1.73501422       0.05570133
H        0.10739596      -0.75037500      -1.68906544
12
Frame=6 idx=011814 GeodesicLength=0.2341473987984551 rxn_smarts="[N:1]#[C:2][C@@:3]1([H:8])[O:4][C@@:5]2([H:9])[C:6]([H:10])([H:11])[C@@:7]12[H:12]>>[N+:1]1#[C:2][C@@:3]2([H:8])[O:4][C-:5]([H:9])[C:6]([H:10])([H:11])[C@@:7]12[H:12]"
N        1.88078446       0.96779286      -0.62556220
C        2.00522891       0.44843143       0.46455081
C        0.93270785      -0.69089240       0.43317647
O       -0.10077761      -0.68726819       1.38267379
C       -1.15492494      -0.26988692       0.67494714
C       -0.89340891       0.76707664      -0.32356089
C        0.22085544      -0.13998962      -0.79228862
H        1.39430373      -1.67262160       0.39705309
H       -2.11507100      -0.60531813       1.04655505
H       -1.71905822       0.88792640      -1.02262036
H       -0.55828284       1.73804088       0.05493867
H        0.10764315      -0.74329133      -1.68986298
12
Frame=7 idx=011814 GeodesicLength=0.27318581172176065 rxn_smarts="[N:1]#[C:2][C@@:3]1([H:8])[O:4][C@@:5]2([H:9])[C:6]([H:10])([H:11])[C@@:7]12[H:12]>>[N+:1]1#[C:2][C@@:3]2([H:8])[O:4][C-:5]([H:9])[C:6]([H:10])([H:11])[C@@:7]12[H:12]"
N        1.88858167       0.97249064      -0.62412007
C        2.00546650       0.44344421       0.46202372
C        0.93336515      -0.69646984       0.43361200
O       -0.09606444      -0.67510751       1.38898949
C       -1.14939829      -0.27382046       0.66967715
C       -0.89698552       0.76995827      -0.32522790
C        0.21629526      -0.14162891      -0.78659037
H        1.38835890      -1.68138480       0.39885549
H       -2.10910847      -0.60803122       1.04384595
H       -1.72351274       0.88554206      -1.02435280
H       -0.56502703       1.74104960       0.05393340
H        0.10802901      -0.73604205      -1.69064606
12
Frame=8 idx=011814 GeodesicLength=0.3122263748202744 rxn_smarts="[N:1]#[C:2][C@@:3]1([H:8])[O:4][C@@:5]2([H:9])[C:6]([H:10])([H:11])[C@@:7]12[H:12]>>[N+:1]1#[C:2][C@@:3]2([H:8])[O:4][C-:5]([H:9])[C:6]([H:10])([H:11])[C@@:7]12[H:12]"
N        1.89651109       0.97731338      -0.62244640
C        2.00567098       0.43838773       0.45949129
C        0.93395693      -0.70209507       0.43400750
O       -0.09138516      -0.66314552       1.39496101
C       -1.14380231      -0.27749713       0.66467151
C       -0.90059189       0.77272602      -0.32693615
C        0.21176976      -0.14324859      -0.78094035
H        1.38230007      -1.69016483       0.40060911
H       -2.10306687      -0.61056881       1.04133395
H       -1.72803892       0.88291406      -1.02605289
H       -0.57187382       1.74403433       0.05270925
H        0.10855015      -0.72865557      -1.69140784
12
Frame=9 idx=011814 GeodesicLength=0.351269185072853 rxn_smarts="[N:1]#[C:2][C@@:3]1([H:8])[O:4][C@@:5]2([H:9])[C:6]([H:10])([H:11])[C@@:7]12[H:12]>>[N+:1]1#[C:2][C@@:3]2([H:8])[O:4][C-:5]([H:9])[C:6]([H:10])([H:11])[C@@:7]12[H:12]"
N        1.90457778       0.98226326      -0.62053838
C        2.00586420       0.43324598       0.45694185
C        0.93449411      -0.70777131       0.43436583
O       -0.08671920      -0.65136322       1.40062286
C       -1.13815091      -0.28092107       0.65992540
C       -0.90423758       0.77538671      -0.32868908
C        0.20728040      -0.14485172      -0.77534356
H        1.37613300      -1.69897217       0.40231905
H       -2.09696533      -0.61294366       1.03901327
H       -1.73265096       0.88005669      -1.02772839
H       -0.57883609       1.74699865       0.05127139
H        0.10921059      -0.72112813      -1.69216023
12
Frame=10 idx=011814 GeodesicLength=0.3903207618476533 rxn_smarts="[N:1]#[C:2][C@@:3]1([H:8])[O:4][C@@:5]2([H:9])[C:6]([H:10])([H:11])[C@@:7]12[H:12]>>[N+:1]1#[C:2][C@@:3]2([H:8])[O:4][C-:5]([H:9])[C:6]([H:10])([H:11])[C@@:7]12[H:12]"
N        1.91278226       0.98734520      -0.61839218
C        2.00604731       0.42802064       0.45436172
C        0.93497194      -0.71349432       0.43468437
O       -0.08205800      -0.63974558       1.40598923
C       -1.13244962      -0.28410506       0.65542360
C       -0.90791755       0.77794062      -0.33048741
C        0.20282255      -0.14644060      -0.76979826
H        1.36984153      -1.70780383       0.40398594
H       -2.09080098      -0.61516873       1.03687945
H       -1.73733820       0.87697400      -1.02937722
H       -0.58590619       1.74993915       0.04962603
H        0.11000494      -0.71346150      -1.69289528
12
Frame=11 idx=011814 GeodesicLength=0.42938312644297405 rxn_smarts="[N:1]#[C:2][C@@:3]1([H:8])[O:4][C@@:5]2([H:9])[C:6]([H:10])([H:11])[C@@:7]12[H:12]>>[N+:1]1#[C:2][C@@:3]2([H:8])[O:4][C-:5]([H:9])[C:6]([H:10])([H:11])[C@@:7]12[H:12]"
N        1.92112613       0.99256221      -0.61600231
C        2.00622826       0.42270388       0.45173622
C        0.93538957      -0.71926228       0.43496195
O       -0.07738910      -0.62827261       1.41107869
C       -1.12670462      -0.28705380       0.65115629
C       -0.91163161       0.78038977      -0.33233217
C        0.19839446      -0.14801529      -0.76430372
H        1.36341234      -1.71666146       0.40561241
H       -2.08457559      -0.61726114       1.03492512
H       -1.74209906       0.87366773      -1.03099706
H       -0.59308290       1.75285338       0.04777460
H        0.11093212      -0.70565038      -1.69361002
12
Frame=12 idx=011814 GeodesicLength=0.46845329040341865 rxn_smarts="[N:1]#[C:2][C@@:3]1([H:8])[O:4][C@@:5]2([H:9])[C:6]([H:10])([H:11])[C@@:7]12[H:12]>>[N+:1]1#[C:2][C@@:3]2([H:8])[O:4][C-:5]([H:9])[C:6]([H:10])([H:11])[C@@:7]12[H:12]"
N        1.92961192       0.99791395      -0.61336557
C        2.00640336       0.41730428       0.44905999
C        0.93574900      -0.72507277       0.43519610
O       -0.07270955      -0.61695250       1.41589729
C       -1.12092539      -0.28978524       0.64710674
C       -0.91537919       0.78273436      -0.33422521
C        0.19399380      -0.14958054      -0.75886381
H        1.35685785      -1.72553764       0.40719574
H       -2.07829904      -0.61920357       1.03316224
H       -1.74692813       0.87015003      -1.03259269
H       -0.60036479       1.75573628       0.04572983
H        0.11199015      -0.69770665      -1.69430065
12
Frame=13 idx=011814 GeodesicLength=0.5075253521539184 rxn_smarts="[N:1]#[C:2][C@@:3]1([H:8])[O:4][C@@:5]2([H:9])[C:6]([H:10])([H:11])[C@@:7]12[H:12]>>[N+:1]1#[C:2][C@@:3]2([H:8])[O:4][C-:5]([H:9])[C:6]([H:10])([H:11])[C@@:7]12[H:12]"
N        1.93824052       1.00340114      -0.61047861
C        2.00656876       0.41182917       0.44632554
C        0.93605103      -0.73092260       0.43538421
O       -0.06801648      -0.60579143       1.42045161
C       -1.11512058      -0.29231269       0.64325972
C       -0.91915805       0.78497315      -0.33616658
C        0.18961867      -0.15114073      -0.75348123
H        1.35018702      -1.73442368       0.40873314
H       -2.07198083      -0.62098178       1.03159696
H       -1.75181787       0.86642965      -1.03416441
H       -0.60774820       1.75857959       0.04350148
H        0.11317601      -0.68963979      -1.69496183
12
Frame=14 idx=011814 GeodesicLength=0.5465963075910111 rxn_smarts="[N:1]#[C:2][C@@:3]1([H:8])[O:4][C@@:5]2([H:9])[C:6]([H:10])([H:11])[C@@:7]12[H:12]>>[N+:1]1#[C:2][C@@:3]2([H:8])[O:4][C-:5]([H:9])[C:6]([H:10])([H:11])[C@@:7]12[H:12]"
N        1.94701368       1.00902287      -0.60733982
C        2.00672131       0.40628771       0.44352601
C        0.93629794      -0.73680897       0.43552563
O       -0.06330635      -0.59479418       1.42474999
C       -1.10929765      -0.29464985       0.63960225
C       -0.92296669       0.78710704      -0.33815638
C        0.18526617      -0.15270116      -0.74815892
H        1.34341111      -1.74331314       0.41022361
H       -2.06563080      -0.62258598       1.03023019
H       -1.75676313       0.86251856      -1.03571402
H       -0.61522902       1.76137893       0.04110115
H        0.11448342      -0.68146184      -1.69558970
12
Frame=15 idx=011814 GeodesicLength=0.585661828198311 rxn_smarts="[N:1]#[C:2][C@@:3]1([H:8])[O:4][C@@:5]2([H:9])[C:6]([H:10])([H:11])[C@@:7]12[H:12]>>[N+:1]1#[C:2][C@@:3]2([H:8])[O:4][C-:5]([H:9])[C:6]([H:10])([H:11])[C@@:7]12[H:12]"
N        1.95593363       1.01477772      -0.60394887
C        2.00685751       0.40068883       0.44065367
C        0.93649110      -0.74272803       0.43561958
O       -0.05857706      -0.58396417       1.42880049
C       -1.10346392      -0.29680840       0.63612210
C       -0.92680270       0.78913610      -0.34019358
C        0.18093346      -0.15426678      -0.74289898
H        1.33653967      -1.75219779       0.41166620
H       -2.05925859      -0.62400884       1.02905974
H       -1.76175755       0.85842728      -1.03724045
H       -0.62280130       1.76412747       0.03853924
H        0.11590576      -0.67318339      -1.69617916
12
Frame=16 idx=011814 GeodesicLength=0.6247247785029745 rxn_smarts="[N:1]#[C:2][C@@:3]1([H:8])[O:4][C@@:5]2([H:9])[C:6]([H:10])([H:11])[C@@:7]12[H:12]>>[N+:1]1#[C:2][C@@:3]2([H:8])[O:4][C-:5]([H:9])[C:6]([H:10])([H:11])[C@@:7]12[H:12]"
N        1.96500264       1.02066676      -0.60029466
C        2.00698260       0.39502537       0.43769625
C        0.93662931      -0.74867946       0.43566352
O       -0.05381974      -0.57328510       1.43261435
C       -1.09762180      -0.29879417       0.63281170
C       -0.93066766       0.79106162      -0.34227960
C        0.17661853      -0.15583786      -0.73770212
H        1.32956324      -1.76108004       0.41306260
H       -2.05286185      -0.62525749       1.02808569
H       -1.76680242       0.85415485      -1.03874361
H       -0.63046803       1.76682535       0.03581632
H        0.11744519      -0.66479982      -1.69673043
