13
Frame=0 idx=009767 GeodesicLength=0.0 rxn_smarts="[O:1]([C:2]([C:3]#[C:4][C:5]([C:6](=[O:7])[H:13])([H:11])[H:12])([H:9])[H:10])[H:8]>>[O:1]([C:4](=[C:3]=[C:2]([H:9])[H:10])[C:5]([C:6](=[O:7])[H:13])([H:11])[H:12])[H:8]"
O        0.80255620       1.05019600       0.15159025
C        2.16323060      -0.02623315       0.16450378
C        1.29615995      -1.16635147       0.22911784
C        0.21023121      -0.43850798       0.28616796
C       -1.26684635      -0.47166853       0.30597326
C       -1.87048312       0.02580140      -0.99016671
O       -2.75465402       0.83209020      -1.05121314
H        0.70253341       1.54758119       0.97519580
H        2.73063511       0.27273634       1.04532931
H        2.65548731       0.22996679      -0.77119230
H       -1.70103819       0.08764847       1.13816560
H       -1.53853863      -1.52558565       0.42242417
H       -1.42927348      -0.41767362      -1.90589582
13
Frame=1 idx=009767 GeodesicLength=0.08768760209042481 rxn_smarts="[O:1]([C:2]([C:3]#[C:4][C:5]([C:6](=[O:7])[H:13])([H:11])[H:12])([H:9])[H:10])[H:8]>>[O:1]([C:4](=[C:3]=[C:2]([H:9])[H:10])[C:5]([C:6](=[O:7])[H:13])([H:11])[H:12])[H:8]"
O        0.81434371       1.07045487       0.13595534
C        2.18093150      -0.02368341       0.17341683
C        1.29537778      -1.14578778       0.23946480
C        0.20356962      -0.43183951       0.27972785
C       -1.27241525      -0.48650122       0.30160002
C       -1.88624370       0.02342492      -0.98452752
O       -2.73268856       0.86998984      -1.03586266
H        0.68079093       1.57375260       0.95066657
H        2.74589607       0.26781386       1.05827687
H        2.68920249       0.20765409      -0.76015314
H       -1.71074075       0.05241707       1.14520169
H       -1.53412560      -1.54444432       0.40346424
H       -1.47389823      -0.43325101      -1.90723088
13
Frame=2 idx=009767 GeodesicLength=0.17539777875053003 rxn_smarts="[O:1]([C:2]([C:3]#[C:4][C:5]([C:6](=[O:7])[H:13])([H:11])[H:12])([H:9])[H:10])[H:8]>>[O:1]([C:4](=[C:3]=[C:2]([H:9])[H:10])[C:5]([C:6](=[O:7])[H:13])([H:11])[H:12])[H:8]"
O        0.82684078       1.09101123       0.11955161
C        2.19886885      -0.02126537       0.18291747
C        1.29437466      -1.12451439       0.24993081
C        0.19675870      -0.42496107       0.27320109
C       -1.27783431      -0.50152022       0.29704989
C       -1.90244465       0.02177990      -0.97818612
O       -2.71062124       0.90564274      -1.01957464
H        0.65839064       1.60070529       0.92327896
H        2.76112234       0.26243026       1.07203173
H        2.72331873       0.18410632      -0.74779227
H       -1.72005338       0.01631411       1.15201174
H       -1.52923136      -1.56336222       0.38346441
H       -1.51948975      -0.44636657      -1.90788468
13
Frame=3 idx=009767 GeodesicLength=0.26310358003504813 rxn_smarts="[O:1]([C:2]([C:3]#[C:4][C:5]([C:6](=[O:7])[H:13])([H:11])[H:12])([H:9])[H:10])[H:8]>>[O:1]([C:4](=[C:3]=[C:2]([H:9])[H:10])[C:5]([C:6](=[O:7])[H:13])([H:11])[H:12])[H:8]"
O        0.84014098       1.11189677       0.10253172
C        2.21705652      -0.01897170       0.19302100
C        1.29315805      -1.10243813       0.26044386
C        0.18982833      -0.41782124       0.26663159
C       -1.28306321      -0.51666637       0.29227275
C       -1.91896970       0.02089043      -0.97115954
O       -2.68883199       0.93900507      -1.00231573
H        0.63541165       1.62838598       0.89297617
H        2.77636306       0.25646444       1.08660404
H        2.75772688       0.15935128      -0.73403878
H       -1.72894713      -0.02065075       1.15850444
H       -1.52381851      -1.58222160       0.36234150
H       -1.56605494      -0.45722419      -1.90781302
13
Frame=4 idx=009767 GeodesicLength=0.3507715802514396 rxn_smarts="[O:1]([C:2]([C:3]#[C:4][C:5]([C:6](=[O:7])[H:13])([H:11])[H:12])([H:9])[H:10])[H:8]>>[O:1]([C:4](=[C:3]=[C:2]([H:9])[H:10])[C:5]([C:6](=[O:7])[H:13])([H:11])[H:12])[H:8]"
O        0.85435757       1.13309737       0.08486978
C        2.23553361      -0.01680755       0.20382780
C        1.29175468      -1.07945484       0.27100258
C        0.18281683      -0.41037821       0.26000546
C       -1.28804450      -0.53191288       0.28720221
C       -1.93576928       0.02079730      -0.96340235
O       -2.66780150       0.97002164      -0.98387418
H        0.61189021       1.65678040       0.85934888
H        2.79159454       0.24986363       1.10211872
H        2.79243929       0.13329725      -0.71867123
H       -1.73731995      -0.05858505       1.16461552
H       -1.51780634      -1.60093575       0.33991761
H       -1.61364515      -0.46578332      -1.90696081
13
Frame=5 idx=009767 GeodesicLength=0.43841583870847073 rxn_smarts="[O:1]([C:2]([C:3]#[C:4][C:5]([C:6](=[O:7])[H:13])([H:11])[H:12])([H:9])[H:10])[H:8]>>[O:1]([C:4](=[C:3]=[C:2]([H:9])[H:10])[C:5]([C:6](=[O:7])[H:13])([H:11])[H:12])[H:8]"
O        0.86953425       1.15470528       0.06687725
C        2.25427751      -0.01477585       0.21526997
C        1.29015934      -1.05548132       0.28156753
C        0.17572052      -0.40256202       0.25348124
C       -1.29275507      -0.54720604       0.28182185
C       -1.95270658       0.02142957      -0.95497576
O       -2.64776686       0.99868076      -0.96443884
H        0.58792097       1.68583468       0.82257825
H        2.80692395       0.24246397       1.11843290
H        2.82718881       0.10599391      -0.70183245
H       -1.74522040      -0.09742747       1.17024335
H       -1.51115175      -1.61942069       0.31621705
H       -1.66212472      -0.47223478      -1.90524233
13
Frame=6 idx=009767 GeodesicLength=0.5259985538208406 rxn_smarts="[O:1]([C:2]([C:3]#[C:4][C:5]([C:6](=[O:7])[H:13])([H:11])[H:12])([H:9])[H:10])[H:8]>>[O:1]([C:4](=[C:3]=[C:2]([H:9])[H:10])[C:5]([C:6](=[O:7])[H:13])([H:11])[H:12])[H:8]"
O        0.88571928       1.17673247       0.04860498
C        2.27329527      -0.01285913       0.22741915
C        1.28839194      -1.03040833       0.29216683
C        0.16855133      -0.39432932       0.24713233
C       -1.29715591      -0.56255341       0.27609404
C       -1.96975219       0.02275385      -0.94581308
O       -2.62899153       1.02506007      -0.94381650
H        0.56358980       1.71547069       0.78213826
H        2.82233936       0.23424005       1.13563590
H        2.86186173       0.07737755      -0.68335121
H       -1.75259014      -0.13735626       1.17532500
H       -1.50375527      -1.63759835       0.29105266
H       -1.71150367      -0.47652988      -1.90258838
13
Frame=7 idx=009767 GeodesicLength=0.6135218108609074 rxn_smarts="[O:1]([C:2]([C:3]#[C:4][C:5]([C:6](=[O:7])[H:13])([H:11])[H:12])([H:9])[H:10])[H:8]>>[O:1]([C:4](=[C:3]=[C:2]([H:9])[H:10])[C:5]([C:6](=[O:7])[H:13])([H:11])[H:12])[H:8]"
O        0.90288951       1.19931204       0.03045454
C        2.29253481      -0.01105403       0.24016627
C        1.28644573      -1.00414203       0.30282122
C        0.16128004      -0.38560485       0.24120054
C       -1.30125289      -0.57791826       0.27002890
C       -1.98677790       0.02464132      -0.93598175
O       -2.61154744       1.04920485      -0.92221711
H        0.53906618       1.74560091       0.73818740
H        2.83796676       0.22504171       1.15351894
H        2.89607292       0.04751212      -0.66344787
H       -1.75953832      -0.17834989       1.17973726
H       -1.49557525      -1.65537191       0.26445314
H       -1.76156415      -0.47887198      -1.89892148
13
Frame=8 idx=009767 GeodesicLength=0.7009666355777809 rxn_smarts="[O:1]([C:2]([C:3]#[C:4][C:5]([C:6](=[O:7])[H:13])([H:11])[H:12])([H:9])[H:10])[H:8]>>[O:1]([C:4](=[C:3]=[C:2]([H:9])[H:10])[C:5]([C:6](=[O:7])[H:13])([H:11])[H:12])[H:8]"
O        0.92106786       1.22253151       0.01262050
C        2.31198433      -0.00936099       0.25354210
C        1.28433262      -0.97655993       0.31360351
C        0.15389871      -0.37630216       0.23584672
C       -1.30501223      -0.59330355       0.26358042
C       -2.00374215       0.02705886      -0.92543304
O       -2.59562614       1.07112650      -0.89952687
H        0.51450147       1.77612280       0.69027104
H        2.85382719       0.21478316       1.17210481
H        2.92959893       0.01636632      -0.64208982
H       -1.76606448      -0.22055982       1.18338045
H       -1.48650126      -1.67264755       0.23625097
H       -1.81226486      -0.47925515      -1.89415079
13
Frame=9 idx=009767 GeodesicLength=0.7883448274239776 rxn_smarts="[O:1]([C:2]([C:3]#[C:4][C:5]([C:6](=[O:7])[H:13])([H:11])[H:12])([H:9])[H:10])[H:8]>>[O:1]([C:4](=[C:3]=[C:2]([H:9])[H:10])[C:5]([C:6](=[O:7])[H:13])([H:11])[H:12])[H:8]"
O        0.94038418       1.24651932      -0.00473645
C        2.33163851      -0.00777751       0.26755947
C        1.28206654      -0.94772191       0.32417210
C        0.14640158      -0.36642965       0.23099946
C       -1.30835684      -0.60862609       0.25676449
C       -2.02063157       0.03002235      -0.91422473
O       -2.58107191       1.09116832      -0.87587359
H        0.48989318       1.80647488       0.63829757
H        2.86968979       0.20328880       1.19155159
H        2.96252339      -0.01550879      -0.61919545
H       -1.77201717      -0.26381317       1.18634769
H       -1.47647461      -1.68932472       0.20657503
H       -1.86404507      -0.47827183      -1.88823719
13
Frame=10 idx=009767 GeodesicLength=0.8756857884296497 rxn_smarts="[O:1]([C:2]([C:3]#[C:4][C:5]([C:6](=[O:7])[H:13])([H:11])[H:12])([H:9])[H:10])[H:8]>>[O:1]([C:4](=[C:3]=[C:2]([H:9])[H:10])[C:5]([C:6](=[O:7])[H:13])([H:11])[H:12])[H:8]"
O        0.96071480       1.27137247      -0.02129284
C        2.35145539      -0.00629848       0.28224684
C        1.27961186      -0.91733198       0.33491708
C        0.13873773      -0.35581994       0.22701427
C       -1.31128956      -0.62396402       0.24950406
C       -2.03741546       0.03335568      -0.90228024
O       -2.56817027       1.10926478      -0.85100942
H        0.46546883       1.83695859       0.58166850
H        2.88577537       0.19051710       1.21170630
H        2.99436225      -0.04863310      -0.59492554
H       -1.77753657      -0.30853944       1.18835240
H       -1.46527816      -1.70530965       0.17510300
H       -1.91643620      -0.47557202      -1.88100441
13
Frame=11 idx=009767 GeodesicLength=0.9628541841305174 rxn_smarts="[O:1]([C:2]([C:3]#[C:4][C:5]([C:6](=[O:7])[H:13])([H:11])[H:12])([H:9])[H:10])[H:8]>>[O:1]([C:4](=[C:3]=[C:2]([H:9])[H:10])[C:5]([C:6](=[O:7])[H:13])([H:11])[H:12])[H:8]"
O        0.98190424       1.29744228      -0.03608501
C        2.37126995      -0.00494893       0.29723058
C        1.27690824      -0.88519087       0.34610882
C        0.13080674      -0.34428557       0.22452915
C       -1.31384975      -0.63919755       0.24189140
C       -2.05382184       0.03679216      -0.88990708
O       -2.55672718       1.12536564      -0.82563546
H        0.44150855       1.86742006       0.52130878
H        2.90241464       0.17614064       1.23180020
H        3.02416040      -0.08293078      -0.57005376
H       -1.78295624      -0.35448418       1.18922209
H       -1.45285666      -1.72045689       0.14212306
H       -1.96876109      -0.47166601      -1.87253276
13
Frame=12 idx=009767 GeodesicLength=1.0498753031887196 rxn_smarts="[O:1]([C:2]([C:3]#[C:4][C:5]([C:6](=[O:7])[H:13])([H:11])[H:12])([H:9])[H:10])[H:8]>>[O:1]([C:4](=[C:3]=[C:2]([H:9])[H:10])[C:5]([C:6](=[O:7])[H:13])([H:11])[H:12])[H:8]"
O        1.00391177       1.32488745      -0.04904137
C        2.39112496      -0.00370889       0.31263872
C        1.27392107      -0.85117770       0.35767137
C        0.12256731      -0.33170165       0.22355491
C       -1.31601366      -0.65429740       0.23382485
C       -2.06996228       0.04023884      -0.87701664
O       -2.54699493       1.13943902      -0.79943152
H        0.41845914       1.89764733       0.45664543
H        2.91947294       0.16007795       1.25213843
H        3.05205250      -0.11838392      -0.54450076
H       -1.78818597      -0.40180194       1.18875617
H       -1.43909845      -1.73452651       0.10743737
H       -2.02125440      -0.46669257      -1.86267697
13
Frame=13 idx=009767 GeodesicLength=1.1366469795410241 rxn_smarts="[O:1]([C:2]([C:3]#[C:4][C:5]([C:6](=[O:7])[H:13])([H:11])[H:12])([H:9])[H:10])[H:8]>>[O:1]([C:4](=[C:3]=[C:2]([H:9])[H:10])[C:5]([C:6](=[O:7])[H:13])([H:11])[H:12])[H:8]"
O        1.02687385       1.35394877      -0.05907407
C        2.41085943      -0.00273546       0.32839098
C        1.27066302      -0.81515992       0.37001291
C        0.11399362      -0.31799506       0.22470000
C       -1.31761194      -0.66926861       0.22543059
C       -2.08560820       0.04383932      -0.86368674
O       -2.53887993       1.15197419      -0.77242664
H        0.39595146       1.92726532       0.38641047
H        2.93700912       0.14192566       1.27231364
H        3.07714464      -0.15471245      -0.51855713
H       -1.79329723      -0.45074235       1.18707951
H       -1.42354733      -1.74754311       0.07098425
H       -2.07355052      -0.46079630      -1.85157777
13
Frame=14 idx=009767 GeodesicLength=1.2231202293786214 rxn_smarts="[O:1]([C:2]([C:3]#[C:4][C:5]([C:6](=[O:7])[H:13])([H:11])[H:12])([H:9])[H:10])[H:8]>>[O:1]([C:4](=[C:3]=[C:2]([H:9])[H:10])[C:5]([C:6](=[O:7])[H:13])([H:11])[H:12])[H:8]"
O        1.05041537       1.38503864      -0.06573107
C        2.43045801      -0.00194047       0.34436322
C        1.26698632      -0.77682084       0.38326019
C        0.10491942      -0.30286283       0.22824709
C       -1.31876302      -0.68396721       0.21661525
C       -2.10081323       0.04715530      -0.85006641
O       -2.53267154       1.16240237      -0.74480004
H        0.37514412       1.95619051       0.31128803
H        2.95519278       0.12155754       1.29217571
H        3.09924359      -0.19219191      -0.49276355
H       -1.79847301      -0.50115814       1.18369264
H       -1.40622726      -1.75906345       0.03282147
H       -2.12541156      -0.45433950      -1.83910252
13
Frame=15 idx=009767 GeodesicLength=1.308832740444677 rxn_smarts="[O:1]([C:2]([C:3]#[C:4][C:5]([C:6](=[O:7])[H:13])([H:11])[H:12])([H:9])[H:10])[H:8]>>[O:1]([C:4](=[C:3]=[C:2]([H:9])[H:10])[C:5]([C:6](=[O:7])[H:13])([H:11])[H:12])[H:8]"
O        1.07400739       1.41894723      -0.06678170
C        2.44942876      -0.00137954       0.35956980
C        1.26250067      -0.73566573       0.39844378
C        0.09498384      -0.28584866       0.23577431
C       -1.31959577      -0.69810314       0.20774364
C       -2.11493947       0.04961292      -0.83698361
O       -2.52789773       1.17040853      -0.71834761
H        0.35694802       1.98406471       0.23368375
H        2.97489867       0.09841850       1.30966959
H        3.11610638      -0.23081481      -0.46917031
H       -1.80463095      -0.55229545       1.17838021
H       -1.38695139      -1.76885760      -0.00604010
H       -2.17485842      -0.44848696      -1.82594175
13
Frame=16 idx=009767 GeodesicLength=1.3940116532789735 rxn_smarts="[O:1]([C:2]([C:3]#[C:4][C:5]([C:6](=[O:7])[H:13])([H:11])[H:12])([H:9])[H:10])[H:8]>>[O:1]([C:4](=[C:3]=[C:2]([H:9])[H:10])[C:5]([C:6](=[O:7])[H:13])([H:11])[H:12])[H:8]"
O        1.09734090       1.45610054      -0.06138322
C        2.46768758      -0.00115937       0.37415493
C        1.25704178      -0.69142492       0.41585099
C        0.08393487      -0.26676048       0.24761914
C       -1.31997180      -0.71176383       0.19885797
C       -2.12810342       0.05130354      -0.82420067
O       -2.52499079       1.17621136      -0.69223469
H        0.34179478       2.01029649       0.15113389
H        2.99598223       0.07235523       1.32506145
H        3.12752277      -0.27070822      -0.44786969
H       -1.81158092      -0.60475067       1.17118091
H       -1.36520272      -1.77682876      -0.04588825
H       -2.22145525      -0.44287091      -1.81228275
