11
Frame=0 idx=002680 GeodesicLength=0.0 rxn_smarts="[O:1]=[C:2]([C:3]1([H:7])[C:4]([H:8])([H:9])[C:5]1([H:10])[H:11])[H:6]>>[O+:1](=[C-:2][H:6])[C:3]1([H:7])[C:4]([H:8])([H:9])[C:5]1([H:10])[H:11]"
O        1.94855730       0.37332455       0.06811572
C        1.42756688      -0.43399019      -0.82323321
C        0.37500095       0.14088315       0.42912242
C       -0.75710441       0.95798827      -0.03911749
C       -0.94293322      -0.53468607      -0.00828274
H        1.82348131      -1.47294604      -0.66448904
H        0.54181736       0.03291710       1.49297150
H       -1.26608288       1.56016159       0.70263645
H       -0.66141694       1.40866483      -1.01569699
H       -1.51286925      -0.97066982       0.80473299
H       -0.97601707      -1.06164733      -0.94675959
11
Frame=1 idx=002680 GeodesicLength=0.05014466489017556 rxn_smarts="[O:1]=[C:2]([C:3]1([H:7])[C:4]([H:8])([H:9])[C:5]1([H:10])[H:11])[H:6]>>[O+:1](=[C-:2][H:6])[C:3]1([H:7])[C:4]([H:8])([H:9])[C:5]1([H:10])[H:11]"
O        1.95638519       0.35322077       0.08752184
C        1.42732523      -0.42855670      -0.81395692
C        0.36841995       0.13715990       0.44115236
C       -0.75765690       0.95663183      -0.04263693
C       -0.94774172      -0.53441951       0.00230203
H        1.85223854      -1.46219867      -0.72855682
H        0.52836819       0.04282923       1.50747733
H       -1.26977480       1.56857088       0.68876725
H       -0.65314328       1.39708516      -1.02320568
H       -1.52864190      -0.96004540       0.81281491
H       -0.97577850      -1.07027750      -0.93167937
11
Frame=2 idx=002680 GeodesicLength=0.0997949212603426 rxn_smarts="[O:1]=[C:2]([C:3]1([H:7])[C:4]([H:8])([H:9])[C:5]1([H:10])[H:11])[H:6]>>[O+:1](=[C-:2][H:6])[C:3]1([H:7])[C:4]([H:8])([H:9])[C:5]1([H:10])[H:11]"
O        1.96425976       0.33088488       0.10802787
C        1.42721820      -0.42476887      -0.80329500
C        0.36165226       0.13336632       0.45366385
C       -0.75793412       0.95502479      -0.04647783
C       -0.95277885      -0.53417622       0.01330852
H        1.88090810      -1.44717847      -0.79595722
H        0.51441158       0.05357976       1.52237108
H       -1.27319773       1.57708332       0.67398012
H       -0.64420389       1.38465293      -1.03105182
H       -1.54478202      -0.94897679       0.82116268
H       -0.97555329      -1.07949166      -0.91573226
11
Frame=3 idx=002680 GeodesicLength=0.14899926901844596 rxn_smarts="[O:1]=[C:2]([C:3]1([H:7])[C:4]([H:8])([H:9])[C:5]1([H:10])[H:11])[H:6]>>[O+:1](=[C-:2][H:6])[C:3]1([H:7])[C:4]([H:8])([H:9])[C:5]1([H:10])[H:11]"
O        1.97143310       0.30695723       0.12818013
C        1.42672273      -0.42414987      -0.79111294
C        0.35444846       0.12905422       0.46649022
C       -0.75791482       0.95311679      -0.05049527
C       -0.95850544      -0.53386949       0.02468205
H        1.91184972      -1.42682954      -0.86538429
H        0.50017310       0.06451675       1.53732826
H       -1.27573868       1.58578451       0.65866717
H       -0.63438453       1.37145363      -1.03896736
H       -1.56195850      -0.93709747       0.82968355
H       -0.97612514      -1.08893676      -0.89907151
11
Frame=4 idx=002680 GeodesicLength=0.19762956288504727 rxn_smarts="[O:1]=[C:2]([C:3]1([H:7])[C:4]([H:8])([H:9])[C:5]1([H:10])[H:11])[H:6]>>[O+:1](=[C-:2][H:6])[C:3]1([H:7])[C:4]([H:8])([H:9])[C:5]1([H:10])[H:11]"
O        1.97826360       0.28078212       0.14886508
C        1.42610330      -0.42671705      -0.77716638
C        0.34692451       0.12432632       0.47979558
C       -0.75748315       0.95085784      -0.05489210
C       -0.96480541      -0.53357641       0.03654614
H        1.94380135      -1.40014319      -0.93791838
H        0.48556622       0.07596062       1.55255924
H       -1.27749707       1.59474974       0.64235664
H       -0.62356662       1.35716352      -1.04725254
H       -1.57997527      -0.92443437       0.83853957
H       -0.97733146      -1.09896913      -0.88143287
11
Frame=5 idx=002680 GeodesicLength=0.2455028414000493 rxn_smarts="[O:1]=[C:2]([C:3]1([H:7])[C:4]([H:8])([H:9])[C:5]1([H:10])[H:11])[H:6]>>[O+:1](=[C-:2][H:6])[C:3]1([H:7])[C:4]([H:8])([H:9])[C:5]1([H:10])[H:11]"
O        1.98510396       0.25111781       0.17130928
C        1.42568225      -0.43225992      -0.76128755
C        0.33919964       0.11928302       0.49372470
C       -0.75638610       0.94806798      -0.05993827
C       -0.97145364      -0.53333883       0.04907162
H        1.97484139      -1.36545562      -1.01479729
H        0.47032094       0.08838410       1.56821172
H       -1.27852488       1.60388022       0.62438478
H       -0.61145778       1.34120304      -1.05626518
H       -1.59857936      -0.91088059       0.84793833
H       -0.97874640      -1.11000121      -0.86235213
11
Frame=6 idx=002680 GeodesicLength=0.29232187180260305 rxn_smarts="[O:1]=[C:2]([C:3]1([H:7])[C:4]([H:8])([H:9])[C:5]1([H:10])[H:11])[H:6]>>[O+:1](=[C-:2][H:6])[C:3]1([H:7])[C:4]([H:8])([H:9])[C:5]1([H:10])[H:11]"
O        1.99183082       0.21777551       0.19540575
C        1.42551756      -0.44170796      -0.74312660
C        0.33132477       0.11377600       0.50826732
C       -0.75440880       0.94458960      -0.06579109
C       -0.97846246      -0.53321432       0.06229665
H        2.00417828      -1.32085475      -1.09575483
H        0.45458230       0.10170048       1.58419661
H       -1.27845495       1.61313903       0.60448393
H       -0.59771979       1.32323704      -1.06615625
H       -1.61782707      -0.89633294       0.85790274
H       -0.98056067      -1.12210769      -0.84172423
11
Frame=7 idx=002680 GeodesicLength=0.3381239690680589 rxn_smarts="[O:1]=[C:2]([C:3]1([H:7])[C:4]([H:8])([H:9])[C:5]1([H:10])[H:11])[H:6]>>[O+:1](=[C-:2][H:6])[C:3]1([H:7])[C:4]([H:8])([H:9])[C:5]1([H:10])[H:11]"
O        1.99800601       0.18037998       0.22064595
C        1.42523317      -0.45758249      -0.72194916
C        0.32313778       0.10717198       0.52348362
C       -0.75121461       0.94015179      -0.07269162
C       -0.98638508      -0.53322672       0.07648050
H        2.03308232      -1.26221834      -1.18114238
H        0.43844893       0.11554674       1.60046778
H       -1.27635215       1.62286532       0.58219158
H       -0.58171326       1.30252722      -1.07720168
H       -1.63854691      -0.87998454       0.86876380
H       -0.98369619      -1.13563094      -0.81904840
11
Frame=8 idx=002680 GeodesicLength=0.3820715969460503 rxn_smarts="[O:1]=[C:2]([C:3]1([H:7])[C:4]([H:8])([H:9])[C:5]1([H:10])[H:11])[H:6]>>[O+:1](=[C-:2][H:6])[C:3]1([H:7])[C:4]([H:8])([H:9])[C:5]1([H:10])[H:11]"
O        2.00345134       0.13874225       0.24667026
C        1.42488570      -0.48253557      -0.69687594
C        0.31475841       0.09889443       0.53928801
C       -0.74615547       0.93431939      -0.08107428
C       -0.99534391      -0.53341632       0.09169004
H        2.05934914      -1.18453653      -1.27013393
H        0.42218932       0.12976797       1.61681233
H       -1.27123710       1.63291458       0.55678081
H       -0.56248502       1.27813391      -1.08981581
H       -1.66075085      -0.86146921       0.88066816
H       -0.98866156      -1.15081490      -0.79400966
11
Frame=9 idx=002680 GeodesicLength=0.4227727707707415 rxn_smarts="[O:1]=[C:2]([C:3]1([H:7])[C:4]([H:8])([H:9])[C:5]1([H:10])[H:11])[H:6]>>[O+:1](=[C-:2][H:6])[C:3]1([H:7])[C:4]([H:8])([H:9])[C:5]1([H:10])[H:11]"
O        2.00865533       0.09418409       0.27242562
C        1.42545760      -0.51685377      -0.66862679
C        0.30692742       0.08873554       0.55487440
C       -0.73873153       0.92678720      -0.09116551
C       -1.00462975      -0.53397980       0.10722944
H        2.07610681      -1.08635267      -1.35678953
H        0.40686241       0.14377361       1.63229602
H       -1.26254161       1.64255019       0.52833409
H       -0.53980140       1.25002400      -1.10400311
H       -1.68328168      -0.84143920       0.89293569
H       -0.99502361      -1.16742920      -0.76751030
11
Frame=10 idx=002680 GeodesicLength=0.46146511608367186 rxn_smarts="[O:1]=[C:2]([C:3]1([H:7])[C:4]([H:8])([H:9])[C:5]1([H:10])[H:11])[H:6]>>[O+:1](=[C-:2][H:6])[C:3]1([H:7])[C:4]([H:8])([H:9])[C:5]1([H:10])[H:11]"
O        2.01462361       0.04924118       0.29666438
C        1.42844059      -0.55547246      -0.64053565
C        0.30068239       0.07735222       0.56889532
C       -0.72919312       0.91780204      -0.10252518
C       -1.01272726      -0.53511550       0.12164471
H        2.07524745      -0.97503464      -1.43138375
H        0.39374593       0.15688706       1.64555653
H       -1.25080895       1.65067355       0.49845559
H       -0.51506213       1.21992042      -1.11897060
H       -1.70401189      -0.82171391       0.90395843
H       -1.00093661      -1.18453994      -0.74175979
11
Frame=11 idx=002680 GeodesicLength=0.5017019765177361 rxn_smarts="[O:1]=[C:2]([C:3]1([H:7])[C:4]([H:8])([H:9])[C:5]1([H:10])[H:11])[H:6]>>[O+:1](=[C-:2][H:6])[C:3]1([H:7])[C:4]([H:8])([H:9])[C:5]1([H:10])[H:11]"
O        2.02158306       0.00552847       0.31816341
C        1.43379968      -0.59241710      -0.61663888
C        0.29630757       0.06551117       0.58034243
C       -0.71866707       0.90811524      -0.11424281
C       -1.01903948      -0.53669853       0.13403739
H        2.05772232      -0.86121432      -1.48748432
H        0.38365090       0.16853879       1.65570084
H       -1.23710198       1.65705131       0.46933528
H       -0.49088440       1.19006815      -1.13372093
H       -1.72182445      -0.80336574       0.91287992
H       -1.00554617      -1.20111743      -0.71837233
11
Frame=12 idx=002680 GeodesicLength=0.5447487791439641 rxn_smarts="[O:1]=[C:2]([C:3]1([H:7])[C:4]([H:8])([H:9])[C:5]1([H:10])[H:11])[H:6]>>[O+:1](=[C-:2][H:6])[C:3]1([H:7])[C:4]([H:8])([H:9])[C:5]1([H:10])[H:11]"
O        2.02943627      -0.03553499       0.33607019
C        1.44086066      -0.62313761      -0.59922549
C        0.29347991       0.05420569       0.58907103
C       -0.70861050       0.89875122      -0.12519912
C       -1.02359811      -0.53831866       0.14412383
H        2.02985217      -0.75603208      -1.52457879
H        0.37657735       0.17891774       1.66269590
H       -1.22353400       1.66170078       0.44301967
H       -0.46946280       1.16276870      -1.14706548
H       -1.73642269      -0.78736854       0.91938365
H       -1.00857827      -1.21595226      -0.69829540
11
Frame=13 idx=002680 GeodesicLength=0.5887836846167896 rxn_smarts="[O:1]=[C:2]([C:3]1([H:7])[C:4]([H:8])([H:9])[C:5]1([H:10])[H:11])[H:6]>>[O+:1](=[C-:2][H:6])[C:3]1([H:7])[C:4]([H:8])([H:9])[C:5]1([H:10])[H:11]"
O        2.03714462      -0.07470411       0.35004651
C        1.44786959      -0.64690984      -0.58889478
C        0.29138745       0.04383171       0.59529320
C       -0.69992603       0.89028551      -0.13500421
C       -1.02726539      -0.53965879       0.15257482
H        2.00089703      -0.66274786      -1.54605262
H        0.37193515       0.18837818       1.66681636
H       -1.21107086       1.66517463       0.42011469
H       -0.45173823       1.13885818      -1.15874735
H       -1.74821173      -0.77363639       0.92468546
H       -1.01102161      -1.22887122      -0.68083208
11
Frame=14 idx=002680 GeodesicLength=0.6334389107412355 rxn_smarts="[O:1]=[C:2]([C:3]1([H:7])[C:4]([H:8])([H:9])[C:5]1([H:10])[H:11])[H:6]>>[O+:1](=[C-:2][H:6])[C:3]1([H:7])[C:4]([H:8])([H:9])[C:5]1([H:10])[H:11]"
O        2.04482250      -0.11153170       0.36085335
C        1.45501483      -0.66606293      -0.58304179
C        0.28973112       0.03428459       0.59997059
C       -0.69243418       0.88258933      -0.14388146
C       -1.03036516      -0.54072396       0.15985287
H        1.97207856      -0.57932188      -1.55718327
H        0.36905420       0.19707057       1.66920189
H       -1.19980134       1.66785206       0.39985953
H       -0.43676389       1.11753783      -1.16919045
H       -1.75822434      -0.76155674       0.92905412
H       -1.01311232      -1.24013717      -0.66549538
11
Frame=15 idx=002680 GeodesicLength=0.6788091424594145 rxn_smarts="[O:1]=[C:2]([C:3]1([H:7])[C:4]([H:8])([H:9])[C:5]1([H:10])[H:11])[H:6]>>[O+:1](=[C-:2][H:6])[C:3]1([H:7])[C:4]([H:8])([H:9])[C:5]1([H:10])[H:11]"
O        2.05237736      -0.14712886       0.36942303
C        1.46224078      -0.68212049      -0.58029725
C        0.28836986       0.02533600       0.60356866
C       -0.68576195       0.87540359      -0.15217737
C       -1.03305841      -0.54158726       0.16638244
H        1.94341685      -0.50232751      -1.56094883
H        0.36745505       0.20534922       1.67029025
H       -1.18934004       1.67000627       0.38126212
H       -0.42373461       1.09791014      -1.17884792
H       -1.76702112      -0.75051727       0.93281163
H       -1.01494376      -1.25032383      -0.65146675
11
Frame=16 idx=002680 GeodesicLength=0.7243920458046583 rxn_smarts="[O:1]=[C:2]([C:3]1([H:7])[C:4]([H:8])([H:9])[C:5]1([H:10])[H:11])[H:6]>>[O+:1](=[C-:2][H:6])[C:3]1([H:7])[C:4]([H:8])([H:9])[C:5]1([H:10])[H:11]"
O        2.05969150      -0.18157199       0.37592307
C        1.46937048      -0.69547255      -0.58015901
C        0.28714455       0.01697743       0.60631253
C       -0.67994579       0.86872608      -0.15992087
C       -1.03551091      -0.54223645       0.17235403
H        1.91611341      -0.43138558      -1.55891477
H        0.36689876       0.21329539       1.67034146
H       -1.17975607       1.67176909       0.36417890
H       -0.41249588       1.07980838      -1.18779827
H       -1.77485133      -0.74037506       0.93618178
H       -1.01665871      -1.25953473      -0.63849885
