13
Frame=0 idx=010121 GeodesicLength=0.0 rxn_smarts="[O:1]=[C:2]1[N:3]([H:8])[C:4]([H:9])([H:10])[C@@:5]2([H:11])[C:6]([H:12])([H:13])[N:7]12>>[N:3](=[C:4]([H:9])[H:10])[H:8].[O:1]=[C:2]=[N:7][C:5](=[C:6]([H:12])[H:13])[H:11]"
O        2.04878229       2.08973887       0.36443287
C        1.23481177       1.21824317       0.20136382
N        1.59282203      -0.15669233      -0.00820992
C        0.45183164      -0.96729893       0.04082605
C       -0.70673808       0.16974066      -0.37540792
C       -1.90675161      -0.09939266       0.30154188
N       -0.12652345       1.36864869       0.08813089
H        2.29413401      -0.31089229      -0.71496336
H        0.22202160      -1.29467109       1.05154703
H        0.44795291      -1.80725277      -0.64995126
H       -0.78499456       0.09888476      -1.46853167
H       -2.82048780      -0.40397438      -0.19805497
H       -1.94686074       0.09491833       1.36727659
13
Frame=1 idx=010121 GeodesicLength=0.1349757368229934 rxn_smarts="[O:1]=[C:2]1[N:3]([H:8])[C:4]([H:9])([H:10])[C@@:5]2([H:11])[C:6]([H:12])([H:13])[N:7]12>>[N:3](=[C:4]([H:9])[H:10])[H:8].[O:1]=[C:2]=[N:7][C:5](=[C:6]([H:12])[H:13])[H:11]"
O        2.01203514       2.10586386       0.37921251
C        1.20483500       1.23235718       0.20150553
N        1.58993860      -0.16378380       0.02128085
C        0.46351571      -0.99002100       0.02226620
C       -0.71715517       0.15769438      -0.40922059
C       -1.89664485      -0.06315361       0.31620157
N       -0.14781052       1.37062704       0.03261550
H        2.33167134      -0.31956130      -0.64274166
H        0.21352544      -1.34455876       1.01932587
H        0.49041316      -1.81983152      -0.68092961
H       -0.82254914       0.07936099      -1.49807248
H       -2.83423100      -0.34893943      -0.14870825
H       -1.88754370       0.10394597       1.38726456
13
Frame=2 idx=010121 GeodesicLength=0.2700869410193258 rxn_smarts="[O:1]=[C:2]1[N:3]([H:8])[C:4]([H:9])([H:10])[C@@:5]2([H:11])[C:6]([H:12])([H:13])[N:7]12>>[N:3](=[C:4]([H:9])[H:10])[H:8].[O:1]=[C:2]=[N:7][C:5](=[C:6]([H:12])[H:13])[H:11]"
O        1.97451392       2.12157690       0.39221652
C        1.17414801       1.24628507       0.19966828
N        1.58529178      -0.17144064       0.05205295
C        0.47573271      -1.01305995       0.00326658
C       -0.72867248       0.14572463      -0.44173566
C       -1.88435445      -0.02687167       0.33098141
N       -0.16779625       1.37160604      -0.02305986
H        2.36607439      -0.32792184      -0.56560945
H        0.20491121      -1.39614887       0.98464154
H        0.53499014      -1.83068386      -0.71289701
H       -0.86313675       0.06008615      -1.52549206
H       -2.84423792      -0.29286788      -0.09846557
H       -1.82746428       0.11371592       1.40443233
13
Frame=3 idx=010121 GeodesicLength=0.4053365551038315 rxn_smarts="[O:1]=[C:2]1[N:3]([H:8])[C:4]([H:9])([H:10])[C@@:5]2([H:11])[C:6]([H:12])([H:13])[N:7]12>>[N:3](=[C:4]([H:9])[H:10])[H:8].[O:1]=[C:2]=[N:7][C:5](=[C:6]([H:12])[H:13])[H:11]"
O        1.93671331       2.13690199       0.40265012
C        1.14313874       1.26009231       0.19539505
N        1.57878636      -0.17970774       0.08421326
C        0.48855068      -1.03628113      -0.01604748
C       -0.74131565       0.13403425      -0.47281582
C       -1.87000810       0.00919980       0.34566377
N       -0.18661986       1.37152517      -0.07789885
H        2.39683635      -0.33617756      -0.48350777
H        0.19629071      -1.44914107       0.94740000
H        0.58162981      -1.83957277      -0.74549983
H       -0.90653276       0.04151416      -1.55054853
H       -2.85049285      -0.23597889      -0.04786261
H       -1.76697674       0.12359148       1.41885869
13
Frame=4 idx=010121 GeodesicLength=0.5406177548057459 rxn_smarts="[O:1]=[C:2]1[N:3]([H:8])[C:4]([H:9])([H:10])[C@@:5]2([H:11])[C:6]([H:12])([H:13])[N:7]12>>[N:3](=[C:4]([H:9])[H:10])[H:8].[O:1]=[C:2]=[N:7][C:5](=[C:6]([H:12])[H:13])[H:11]"
O        1.89928630       2.15176840       0.40973489
C        1.11227782       1.27378759       0.18832720
N        1.57031601      -0.18860849       0.11777897
C        0.50205935      -1.05953073      -0.03552484
C       -0.75509503       0.12280656      -0.50233858
C       -1.85382978       0.04473611       0.36003993
N       -0.20450601       1.37046389      -0.13096404
H        2.42335200      -0.34444844      -0.39654700
H        0.18783866      -1.50314872       0.90759012
H        0.63033095      -1.84629880      -0.77828729
H       -0.95242270       0.02412374      -1.57302236
H       -2.85305704      -0.17850920       0.00258286
H       -1.70655053       0.13285809       1.43063015
13
Frame=5 idx=010121 GeodesicLength=0.675950747088661 rxn_smarts="[O:1]=[C:2]1[N:3]([H:8])[C:4]([H:9])([H:10])[C@@:5]2([H:11])[C:6]([H:12])([H:13])[N:7]12>>[N:3](=[C:4]([H:9])[H:10])[H:8].[O:1]=[C:2]=[N:7][C:5](=[C:6]([H:12])[H:13])[H:11]"
O        1.86254544       2.16597208       0.41305029
C        1.08190263       1.28713389       0.17830805
N        1.56014130      -0.19827317       0.15223585
C        0.51638053      -1.08271512      -0.05490860
C       -0.76990829       0.11222009      -0.53020455
C       -1.83609038       0.07953045       0.37386087
N       -0.22150381       1.36849572      -0.18122503
H        2.44519340      -0.35279286      -0.30551067
H        0.17967690      -1.55732665       0.86561154
H        0.68109929      -1.85091999      -0.81058099
H       -1.00034022       0.00867059      -1.59282191
H       -2.85218847      -0.12097788       0.05240666
H       -1.64690833       0.14098286       1.43977849
13
Frame=6 idx=010121 GeodesicLength=0.8111317739692414 rxn_smarts="[O:1]=[C:2]1[N:3]([H:8])[C:4]([H:9])([H:10])[C@@:5]2([H:11])[C:6]([H:12])([H:13])[N:7]12>>[N:3](=[C:4]([H:9])[H:10])[H:8].[O:1]=[C:2]=[N:7][C:5](=[C:6]([H:12])[H:13])[H:11]"
O        1.82736530       2.17932905       0.41236659
C        1.05239832       1.30017777       0.16548902
N        1.54798300      -0.20858518       0.18762401
C        0.53160437      -1.10566743      -0.07411537
C       -0.78582187       0.10234461      -0.55644630
C       -1.81705928       0.11327382       0.38704062
N       -0.23800279       1.36584327      -0.22850500
H        2.46179339      -0.36112352      -0.21075228
H        0.17221738      -1.61151744       0.82137214
H        0.73388481      -1.85328764      -0.84195770
H       -1.05005702      -0.00490284      -1.60989161
H       -2.84804329      -0.06351126       0.10130860
H       -1.58826232       0.14762680       1.44646729
13
Frame=7 idx=010121 GeodesicLength=0.9460638998299699 rxn_smarts="[O:1]=[C:2]1[N:3]([H:8])[C:4]([H:9])([H:10])[C@@:5]2([H:11])[C:6]([H:12])([H:13])[N:7]12>>[N:3](=[C:4]([H:9])[H:10])[H:8].[O:1]=[C:2]=[N:7][C:5](=[C:6]([H:12])[H:13])[H:11]"
O        1.79426238       2.19149605       0.40779559
C        1.02392364       1.31277064       0.15048929
N        1.53394222      -0.21955726       0.22345421
C        0.54788074      -1.12826573      -0.09285057
C       -0.80275263       0.09325820      -0.58106815
C       -1.79704940       0.14578557       0.39937495
N       -0.25414537       1.36270653      -0.27244546
H        2.47276471      -0.36925968      -0.11381857
H        0.16591410      -1.66507974       0.77536105
H        0.78846377      -1.85364225      -0.87162777
H       -1.10109807      -0.01631254      -1.62423964
H       -2.84091340      -0.00651980       0.14880736
H       -1.53119269       0.15261999       1.45076772
13
Frame=8 idx=010121 GeodesicLength=1.0807761105124705 rxn_smarts="[O:1]=[C:2]1[N:3]([H:8])[C:4]([H:9])([H:10])[C@@:5]2([H:11])[C:6]([H:12])([H:13])[N:7]12>>[N:3](=[C:4]([H:9])[H:10])[H:8].[O:1]=[C:2]=[N:7][C:5](=[C:6]([H:12])[H:13])[H:11]"
O        1.76368086       2.20223281       0.39964535
C        0.99646750       1.32484660       0.13416302
N        1.51824372      -0.23125051       0.25918354
C        0.56530088      -1.15045658      -0.11085072
C       -0.82063015       0.08499703      -0.60412900
C       -1.77640503       0.17691012       0.41070310
N       -0.27008116       1.35927430      -0.31294448
H        2.47791275      -0.37703224      -0.01634391
H        0.16119986      -1.71751734       0.72809798
H        0.84469237      -1.85227315      -0.89888855
H       -1.15305066      -0.02547574      -1.63597268
H       -2.83112242       0.04980989       0.19456597
H       -1.47620851       0.15593480       1.45277040
13
Frame=9 idx=010121 GeodesicLength=1.214889067144086 rxn_smarts="[O:1]=[C:2]1[N:3]([H:8])[C:4]([H:9])([H:10])[C@@:5]2([H:11])[C:6]([H:12])([H:13])[N:7]12>>[N:3](=[C:4]([H:9])[H:10])[H:8].[O:1]=[C:2]=[N:7][C:5](=[C:6]([H:12])[H:13])[H:11]"
O        1.73608259       2.21103095       0.38767436
C        0.96992028       1.33619654       0.11711447
N        1.50098801      -0.24364842       0.29425040
C        0.58394624      -1.17220677      -0.12796318
C       -0.83940764       0.07763688      -0.62572662
C       -1.75551481       0.20661325       0.42100099
N       -0.28592489       1.35564508      -0.34978043
H        2.47723806      -0.38427219       0.08094794
H        0.15816605      -1.76833439       0.67982244
H        0.90284201      -1.84923861      -0.92325666
H       -1.20556716      -0.03208934      -1.64531338
H       -2.81905743       0.10513182       0.23864336
H       -1.42371132       0.15753522       1.45258630
13
Frame=10 idx=010121 GeodesicLength=1.349102136062266 rxn_smarts="[O:1]=[C:2]1[N:3]([H:8])[C:4]([H:9])([H:10])[C@@:5]2([H:11])[C:6]([H:12])([H:13])[N:7]12>>[N:3](=[C:4]([H:9])[H:10])[H:8].[O:1]=[C:2]=[N:7][C:5](=[C:6]([H:12])[H:13])[H:11]"
O        1.71135388       2.21830627       0.37296658
C        0.94407685       1.34719339       0.10006398
N        1.48270790      -0.25689303       0.32845843
C        0.60380342      -1.19353862      -0.14403543
C       -0.85904908       0.07113005      -0.64595044
C       -1.73457663       0.23489498       0.43014798
N       -0.30181506       1.35202597      -0.38344479
H        2.47153284      -0.39121846       0.17632618
H        0.15718535      -1.81751596       0.63111414
H        0.96215054      -1.84510552      -0.94439723
H       -1.25846401      -0.03642037      -1.65228825
H       -2.80502636       0.15939481       0.28066813
H       -1.37387964       0.15774648       1.45037071
13
Frame=11 idx=010121 GeodesicLength=1.4836920508279263 rxn_smarts="[O:1]=[C:2]1[N:3]([H:8])[C:4]([H:9])([H:10])[C@@:5]2([H:11])[C:6]([H:12])([H:13])[N:7]12>>[N:3](=[C:4]([H:9])[H:10])[H:8].[O:1]=[C:2]=[N:7][C:5](=[C:6]([H:12])[H:13])[H:11]"
O        1.68896026       2.22420120       0.35668764
C        0.91878787       1.35797138       0.08337128
N        1.46402997      -0.27110611       0.36154773
C        0.62485726      -1.21451912      -0.15883419
C       -0.87946105       0.06551965      -0.66494862
C       -1.71366450       0.26190777       0.43808802
N       -0.31768508       1.34854185      -0.41425347
H        2.46132666      -0.39802524       0.26809793
H        0.15842606      -1.86484854       0.58262866
H        1.02210345      -1.84048266      -0.96188781
H       -1.31157123      -0.03842039      -1.65717613
H       -2.78933040       0.21230415       0.32039910
H       -1.32677927       0.15695607       1.44627984
13
Frame=12 idx=010121 GeodesicLength=1.6183702825843582 rxn_smarts="[O:1]=[C:2]1[N:3]([H:8])[C:4]([H:9])([H:10])[C@@:5]2([H:11])[C:6]([H:12])([H:13])[N:7]12>>[N:3](=[C:4]([H:9])[H:10])[H:8].[O:1]=[C:2]=[N:7][C:5](=[C:6]([H:12])[H:13])[H:11]"
O        1.66902789       2.22863976       0.33883212
C        0.89393551       1.36860250       0.06709511
N        1.44494046      -0.28625729       0.39353545
C        0.64712513      -1.23515227      -0.17242347
C       -0.90070478       0.06080387      -0.68282720
C       -1.69298882       0.28770683       0.44491867
N       -0.33364805       1.34526219      -0.44249500
H        2.44706397      -0.40477866       0.35639597
H        0.16184742      -1.91044667       0.53421295
H        1.08282676      -1.83534841      -0.97580404
H       -1.36485268      -0.03817816      -1.66003417
H       -2.77221602       0.26381004       0.35806941
H       -1.28235680       0.15533627       1.44052418
13
Frame=13 idx=010121 GeodesicLength=1.7530453675186428 rxn_smarts="[O:1]=[C:2]1[N:3]([H:8])[C:4]([H:9])([H:10])[C@@:5]2([H:11])[C:6]([H:12])([H:13])[N:7]12>>[N:3](=[C:4]([H:9])[H:10])[H:8].[O:1]=[C:2]=[N:7][C:5](=[C:6]([H:12])[H:13])[H:11]"
O        1.65148234       2.23145160       0.31933625
C        0.86943428       1.37908535       0.05090868
N        1.42538384      -0.30235646       0.42444408
C        0.67064203      -1.25548722      -0.18497029
C       -0.92289349       0.05695281      -0.69972823
C       -1.67267657       0.31241387       0.45079635
N       -0.34983053       1.34218271      -0.46848282
H        2.42921097      -0.41156675       0.44208047
H        0.16726203      -1.95446621       0.48548843
H        1.14477575      -1.82953109      -0.98632853
H       -1.41853893      -0.03578921      -1.66107708
H       -2.75388695       0.31406468       0.39425998
H       -1.24036477       0.15304594       1.43327272
13
Frame=14 idx=010121 GeodesicLength=1.8877631131823018 rxn_smarts="[O:1]=[C:2]1[N:3]([H:8])[C:4]([H:9])([H:10])[C@@:5]2([H:11])[C:6]([H:12])([H:13])[N:7]12>>[N:3](=[C:4]([H:9])[H:10])[H:8].[O:1]=[C:2]=[N:7][C:5](=[C:6]([H:12])[H:13])[H:11]"
O        1.63587125       2.23285097       0.29924779
C        0.84523099       1.38954627       0.03473782
N        1.40556185      -0.31948729       0.45430298
C        0.69544568      -1.27555119      -0.19642073
C       -0.94607174       0.05392644      -0.71571963
C       -1.65270064       0.33618205       0.45573136
N       -0.36619827       1.33935956      -0.49276879
H        2.40816784      -0.41858943       0.52440574
H        0.17487876      -1.99694768       0.43657852
H        1.20756866      -1.82337433      -0.99335441
H       -1.47267162      -0.03148574      -1.66029326
H       -2.73446725       0.36302630       0.42884234
H       -1.20061552       0.15054407       1.42471026
13
Frame=15 idx=010121 GeodesicLength=2.022465130966582 rxn_smarts="[O:1]=[C:2]1[N:3]([H:8])[C:4]([H:9])([H:10])[C@@:5]2([H:11])[C:6]([H:12])([H:13])[N:7]12>>[N:3](=[C:4]([H:9])[H:10])[H:8].[O:1]=[C:2]=[N:7][C:5](=[C:6]([H:12])[H:13])[H:11]"
O        1.62182016       2.23284376       0.27904375
C        0.82130637       1.39999297       0.01822531
N        1.38547110      -0.33769824       0.48314658
C        0.72156972      -1.29542008      -0.20684914
C       -0.97033975       0.05166194      -0.73088675
C       -1.63308123       0.35917137       0.45981252
N       -0.38279133       1.33674676      -0.51576630
H        2.38433914      -0.42592835       0.60363941
H        0.18463529      -2.03801633       0.38725313
H        1.27132217      -1.81690838      -0.99696092
H       -1.52738591      -0.02545265      -1.65775269
H       -2.71404544       0.41088787       0.46212716
H       -1.16282029       0.14811936       1.41496794
13
Frame=16 idx=010121 GeodesicLength=2.157166507162654 rxn_smarts="[O:1]=[C:2]1[N:3]([H:8])[C:4]([H:9])([H:10])[C@@:5]2([H:11])[C:6]([H:12])([H:13])[N:7]12>>[N:3](=[C:4]([H:9])[H:10])[H:8].[O:1]=[C:2]=[N:7][C:5](=[C:6]([H:12])[H:13])[H:11]"
O        1.60866211       2.23153745       0.25965646
C        0.79771321       1.41038562       0.00088163
N        1.36519355      -0.35707316       0.51092027
C        0.74905410      -1.31519875      -0.21626010
C       -0.99579735       0.05008355      -0.74531759
C       -1.61374826       0.38159239       0.46307108
N       -0.39959512       1.33426205      -0.53792939
H        2.35806717      -0.43367737       0.67969750
H        0.19649159      -2.07770651       0.33742680
H        1.33606406      -1.81031694      -0.99709499
H       -1.58286344      -0.01786382      -1.65351017
H       -2.69259987       0.45787293       0.49435109
H       -1.12664174       0.14610255       1.40410743
