14
Frame=0 idx=009745 GeodesicLength=0.0 rxn_smarts="[C:1]([C@@:2]([C:3]([C:4]#[N:5])([H:12])[H:13])([C:6]#[C:7][H:14])[H:11])([H:8])([H:9])[H:10]>>[C:1]([C@@:2]1([H:11])[C:3]([H:12])([H:13])/[C:4](=[N:5]/[H:14])[C:7]#[C:6]1)([H:8])([H:9])[H:10]"
C        0.01246395       1.89009786       0.24768924
C       -0.23401595       0.41987531       0.56236869
C       -0.80678622      -0.34911744      -0.68067487
C       -0.10603166      -1.62584620      -0.66703483
N        0.34985801      -2.69966164      -0.78645388
C        0.96220021      -0.36962697       0.90881466
C        1.74321072      -1.32286188       0.91678097
H        0.75786564       1.99476283      -0.54279098
H       -0.90736200       2.39084252      -0.06355972
H        0.39525973       2.39412395       1.13467648
H       -0.97197924       0.34683035       1.36654576
H       -1.88723770      -0.51065083      -0.66023127
H       -0.54353292       0.15740325      -1.61271452
H        1.23608746      -2.71617117      -0.12341577
14
Frame=1 idx=009745 GeodesicLength=0.1465006644365474 rxn_smarts="[C:1]([C@@:2]([C:3]([C:4]#[N:5])([H:12])[H:13])([C:6]#[C:7][H:14])[H:11])([H:8])([H:9])[H:10]>>[C:1]([C@@:2]1([H:11])[C:3]([H:12])([H:13])/[C:4](=[N:5]/[H:14])[C:7]#[C:6]1)([H:8])([H:9])[H:10]"
C        0.04300573       1.88356812       0.23496319
C       -0.25352513       0.42645925       0.56657502
C       -0.83117784      -0.36090342      -0.65847972
C       -0.07199787      -1.60225426      -0.71957143
N        0.40954657      -2.66288375      -0.87181610
C        0.91562205      -0.37935493       0.95641579
C        1.68688281      -1.33906108       0.98137328
H        0.80640289       1.95428461      -0.54196427
H       -0.85451085       2.40896751      -0.09913942
H        0.42581219       2.39319710       1.11884349
H       -1.00363586       0.39261310       1.36217876
H       -1.89777676      -0.59163180      -0.59475116
H       -0.66100000       0.16677959      -1.59992804
H        1.28635207      -2.68978004      -0.13469938
14
Frame=2 idx=009745 GeodesicLength=0.2928031837555882 rxn_smarts="[C:1]([C@@:2]([C:3]([C:4]#[N:5])([H:12])[H:13])([C:6]#[C:7][H:14])[H:11])([H:8])([H:9])[H:10]>>[C:1]([C@@:2]1([H:11])[C:3]([H:12])([H:13])/[C:4](=[N:5]/[H:14])[C:7]#[C:6]1)([H:8])([H:9])[H:10]"
C        0.07493174       1.87426619       0.22112717
C       -0.27401931       0.43337587       0.57147287
C       -0.85603549      -0.37366987      -0.63519124
C       -0.03773790      -1.57101747      -0.77237406
N        0.47261433      -2.61482957      -0.95890206
C        0.86469428      -0.39026794       1.00515911
C        1.62389670      -1.35815815       1.04208964
H        0.85569612       1.90853338      -0.54081912
H       -0.79811274       2.42343347      -0.13792134
H        0.45828147       2.39020886       1.10120733
H       -1.03627818       0.44107037       1.35617688
H       -1.90110189      -0.67736738      -0.52804507
H       -0.78309776       0.17178695      -1.57866101
H        1.33626862      -2.65736471      -0.14531911
14
Frame=3 idx=009745 GeodesicLength=0.43919381607109975 rxn_smarts="[C:1]([C@@:2]([C:3]([C:4]#[N:5])([H:12])[H:13])([C:6]#[C:7][H:14])[H:11])([H:8])([H:9])[H:10]>>[C:1]([C@@:2]1([H:11])[C:3]([H:12])([H:13])/[C:4](=[N:5]/[H:14])[C:7]#[C:6]1)([H:8])([H:9])[H:10]"
C        0.10690200       1.86249463       0.20713341
C       -0.29467013       0.44039512       0.57666423
C       -0.88034153      -0.38692763      -0.61173173
C       -0.00622848      -1.53392430      -0.82294929
N        0.53522622      -2.55739347      -1.04405375
C        0.81174655      -0.40136215       1.05246281
C        1.55833933      -1.37797862       1.09421096
H        0.90455106       1.85968245      -0.53784634
H       -0.74007729       2.43313800      -0.17911619
H        0.49030574       2.38527509       1.08324666
H       -1.06834187       0.48999885       1.34850077
H       -1.89652830      -0.76386393      -0.46346893
H       -0.90419274       0.17116597      -1.54991059
H        1.38330943      -2.62069999      -0.15314201
14
Frame=4 idx=009745 GeodesicLength=0.5857431387155756 rxn_smarts="[C:1]([C@@:2]([C:3]([C:4]#[N:5])([H:12])[H:13])([C:6]#[C:7][H:14])[H:11])([H:8])([H:9])[H:10]>>[C:1]([C@@:2]1([H:11])[C:3]([H:12])([H:13])/[C:4](=[N:5]/[H:14])[C:7]#[C:6]1)([H:8])([H:9])[H:10]"
C        0.13770884       1.84894106       0.19387964
C       -0.31467167       0.44729997       0.58171726
C       -0.90322635      -0.40013213      -0.58899740
C        0.02029552      -1.49365412      -0.86961453
N        0.59342243      -2.49410963      -1.12427838
C        0.75924221      -0.41169852       1.09633043
C        1.49443400      -1.39635024       1.13541966
H        0.95199436       1.81013042      -0.53179218
H       -0.68229889       2.43764031      -0.22168597
H        0.51968083       2.37902472       1.06632011
H       -1.09851216       0.53735714       1.33933910
H       -1.88468591      -0.84716083      -0.40372599
H       -1.01946113       0.16470943      -1.51574313
H        1.42607793      -2.58199759      -0.15716862
14
Frame=5 idx=009745 GeodesicLength=0.732786410435041 rxn_smarts="[C:1]([C@@:2]([C:3]([C:4]#[N:5])([H:12])[H:13])([C:6]#[C:7][H:14])[H:11])([H:8])([H:9])[H:10]>>[C:1]([C@@:2]1([H:11])[C:3]([H:12])([H:13])/[C:4](=[N:5]/[H:14])[C:7]#[C:6]1)([H:8])([H:9])[H:10]"
C        0.16669832       1.83433675       0.18191125
C       -0.33355484       0.45397267       0.58632522
C       -0.92426236      -0.41289559      -0.56752485
C        0.04109405      -1.45243671      -0.91197917
N        0.64447972      -2.42848281      -1.19851353
C        0.70877315      -0.42073145       1.13597211
C        1.43499807      -1.41176838       1.16595849
H        0.99753274       1.76158072      -0.52202267
H       -0.62593304       2.43716289      -0.26471481
H        0.54519792       2.37222392       1.05117479
H       -1.12617266       0.58199063       1.32894973
H       -1.86695881      -0.92488505      -0.35011468
H       -1.12646585       0.15308719      -1.47820581
H        1.46457359      -2.54315479      -0.15721607
14
Frame=6 idx=009745 GeodesicLength=0.8801550595235337 rxn_smarts="[C:1]([C@@:2]([C:3]([C:4]#[N:5])([H:12])[H:13])([C:6]#[C:7][H:14])[H:11])([H:8])([H:9])[H:10]>>[C:1]([C@@:2]1([H:11])[C:3]([H:12])([H:13])/[C:4](=[N:5]/[H:14])[C:7]#[C:6]1)([H:8])([H:9])[H:10]"
C        0.19387473       1.81910769       0.17133397
C       -0.35124796       0.46038409       0.59036798
C       -0.94355350      -0.42508603      -0.54739135
C        0.05634193      -1.41160327      -0.95039510
N        0.68732154      -2.36281039      -1.26726227
C        0.66076052      -0.42838361       1.17165496
C        1.38051577      -1.42398462       1.18788589
H        1.04118842       1.71456738      -0.50851494
H       -0.57112312       2.43218783      -0.30773269
H        0.56681673       2.36539156       1.03784352
H       -1.15135957       0.62377478       1.31753155
H       -1.84489747      -0.99635460      -0.30259622
H       -1.22501138       0.13715581      -1.43865192
H        1.50037339      -2.50434660      -0.15407337
14
Frame=7 idx=009745 GeodesicLength=1.0277975517058864 rxn_smarts="[C:1]([C@@:2]([C:3]([C:4]#[N:5])([H:12])[H:13])([C:6]#[C:7][H:14])[H:11])([H:8])([H:9])[H:10]>>[C:1]([C@@:2]1([H:11])[C:3]([H:12])([H:13])/[C:4](=[N:5]/[H:14])[C:7]#[C:6]1)([H:8])([H:9])[H:10]"
C        0.21949988       1.80344872       0.16206049
C       -0.36784283       0.46654117       0.59381826
C       -0.96137845      -0.43670940      -0.52847845
C        0.06662386      -1.37174238      -0.98550970
N        0.72185988      -2.29827444      -1.33181352
C        0.61507415      -0.43477565       1.20397378
C        1.33043112      -1.43329982       1.20334340
H        1.08309412       1.66904872      -0.49154042
H       -0.51758480       2.42319363      -0.35044847
H        0.58504222       2.35878710       1.02603692
H       -1.17433066       0.66300822       1.30520215
H       -1.81974289      -1.06181643      -0.26062681
H       -1.31587815       0.11769876      -1.39781126
H        1.53513254      -2.46510819      -0.14820638
14
Frame=8 idx=009745 GeodesicLength=1.1755565737465945 rxn_smarts="[C:1]([C@@:2]([C:3]([C:4]#[N:5])([H:12])[H:13])([C:6]#[C:7][H:14])[H:11])([H:8])([H:9])[H:10]>>[C:1]([C@@:2]1([H:11])[C:3]([H:12])([H:13])/[C:4](=[N:5]/[H:14])[C:7]#[C:6]1)([H:8])([H:9])[H:10]"
C        0.24373422       1.78758764       0.15396740
C       -0.38336196       0.47248516       0.59666322
C       -0.97783473      -0.44782235      -0.51067325
C        0.07287442      -1.33284564      -1.01810978
N        0.74884687      -2.23500240      -1.39383138
C        0.57171887      -0.43992723       1.23337272
C        1.28433625      -1.43992677       1.21385669
H        1.12315170       1.62512985      -0.47157725
H       -0.46525635       2.41067183      -0.39246698
H        0.60038417       2.35264573       1.01541695
H       -1.19524489       0.69993033       1.29207823
H       -1.79208919      -1.12196484      -0.22360114
H       -1.40001438       0.09530546      -1.35604339
H        1.56875500      -2.42626676      -0.13905204
14
Frame=9 idx=009745 GeodesicLength=1.323185269338066 rxn_smarts="[C:1]([C@@:2]([C:3]([C:4]#[N:5])([H:12])[H:13])([C:6]#[C:7][H:14])[H:11])([H:8])([H:9])[H:10]>>[C:1]([C@@:2]1([H:11])[C:3]([H:12])([H:13])/[C:4](=[N:5]/[H:14])[C:7]#[C:6]1)([H:8])([H:9])[H:10]"
C        0.26651236       1.77193718       0.14692505
C       -0.39770566       0.47831092       0.59889507
C       -0.99272325      -0.45850594      -0.49389189
C        0.07631052      -1.29444157      -1.04898825
N        0.76969580      -2.17216501      -1.45509582
C        0.53106166      -0.44364060       1.26007814
C        1.24233829      -1.44377099       1.22038075
H        1.16099845       1.58335563      -0.44927798
H       -0.41452600       2.39522164      -0.43328576
H        0.61312708       2.34734445       1.00566778
H       -1.21413116       0.73459502       1.27832047
H       -1.76179092      -1.17771732      -0.19099121
H       -1.47820326       0.07027770      -1.31345043
H        1.59903611      -2.39080113      -0.12528593
14
Frame=10 idx=009745 GeodesicLength=1.4708457744063328 rxn_smarts="[C:1]([C@@:2]([C:3]([C:4]#[N:5])([H:12])[H:13])([C:6]#[C:7][H:14])[H:11])([H:8])([H:9])[H:10]>>[C:1]([C@@:2]1([H:11])[C:3]([H:12])([H:13])/[C:4](=[N:5]/[H:14])[C:7]#[C:6]1)([H:8])([H:9])[H:10]"
C        0.28802532       1.75658477       0.14078988
C       -0.41102612       0.48407518       0.60056383
C       -1.00617077      -0.46885283      -0.47797890
C        0.07744480      -1.25639177      -1.07841590
N        0.78472383      -2.10945543      -1.51673444
C        0.49278684      -0.44600857       1.28459326
C        1.20380808      -1.44511166       1.22401141
H        1.19668265       1.54357634      -0.42505385
H       -0.36518791       2.37726340      -0.47277724
H        0.62378102       2.34291200       0.99649409
H       -1.23132041       0.76735469       1.26393187
H       -1.72912524      -1.22964646      -0.16237120
H       -1.55107288       0.04274972      -1.27008827
H        1.62665078      -2.35904938      -0.10696454
14
Frame=11 idx=009745 GeodesicLength=1.6184801068503782 rxn_smarts="[C:1]([C@@:2]([C:3]([C:4]#[N:5])([H:12])[H:13])([C:6]#[C:7][H:14])[H:11])([H:8])([H:9])[H:10]>>[C:1]([C@@:2]1([H:11])[C:3]([H:12])([H:13])/[C:4](=[N:5]/[H:14])[C:7]#[C:6]1)([H:8])([H:9])[H:10]"
C        0.30827658       1.74177190       0.13543729
C       -0.42335419       0.48985698       0.60169464
C       -1.01807402      -0.47896178      -0.46283246
C        0.07696553      -1.21835779      -1.10669084
N        0.79455033      -2.04602429      -1.57994033
C        0.45692371      -0.44694947       1.30719820
C        1.16865030      -1.44393363       1.22543365
H        1.23006655       1.50602363      -0.39939892
H       -0.31740121       2.35728496      -0.51072220
H        0.63261632       2.33950878       0.98766932
H       -1.24700057       0.79835623       1.24894805
H       -1.69390171      -1.27836210      -0.13739626
H       -1.61904298       0.01269172      -1.22593769
H        1.65072534      -2.33290512      -0.08346247
14
Frame=12 idx=009745 GeodesicLength=1.7660958528558726 rxn_smarts="[C:1]([C@@:2]([C:3]([C:4]#[N:5])([H:12])[H:13])([C:6]#[C:7][H:14])[H:11])([H:8])([H:9])[H:10]>>[C:1]([C@@:2]1([H:11])[C:3]([H:12])([H:13])/[C:4](=[N:5]/[H:14])[C:7]#[C:6]1)([H:8])([H:9])[H:10]"
C        0.32723959       1.72774345       0.13075457
C       -0.43472488       0.49572970       0.60230368
C       -1.02828248      -0.48893894      -0.44837717
C        0.07546497      -1.18006257      -1.13398188
N        0.79949735      -1.98097885      -1.64577267
C        0.42349754      -0.44637177       1.32813661
C        1.13688318      -1.44014350       1.22520929
H        1.26103031       1.47095626      -0.37279540
H       -0.27137304       2.33579563      -0.54692423
H        0.63983563       2.33726833       0.97902860
H       -1.26137888       0.82770332       1.23336456
H       -1.65584577      -1.32433604      -0.11580815
H       -1.68232695      -0.02003425      -1.18097923
H        1.67048342      -2.31433080      -0.05415858
14
Frame=13 idx=009745 GeodesicLength=1.9136477468667816 rxn_smarts="[C:1]([C@@:2]([C:3]([C:4]#[N:5])([H:12])[H:13])([C:6]#[C:7][H:14])[H:11])([H:8])([H:9])[H:10]>>[C:1]([C@@:2]1([H:11])[C:3]([H:12])([H:13])/[C:4](=[N:5]/[H:14])[C:7]#[C:6]1)([H:8])([H:9])[H:10]"
C        0.34470414       1.71495635       0.12662156
C       -0.44506097       0.50179398       0.60239247
C       -1.03638937      -0.49892680      -0.43456032
C        0.07375463      -1.14106927      -1.16048362
N        0.80013241      -1.91284661      -1.71536300
C        0.39289019      -0.44400833       1.34751053
C        1.10913321      -1.43329132       1.22363861
H        1.28934133       1.43906694      -0.34579957
H       -0.22767338       2.31344215      -0.58117906
H        0.64535268       2.33654487       0.97044621
H       -1.27458001       0.85530776       1.21721877
H       -1.61417730      -1.36809694      -0.09738549
H       -1.74091123      -0.05580295      -1.13512325
H        1.68348367      -2.30706981      -0.01793381
14
Frame=14 idx=009745 GeodesicLength=2.061375111312107 rxn_smarts="[C:1]([C@@:2]([C:3]([C:4]#[N:5])([H:12])[H:13])([C:6]#[C:7][H:14])[H:11])([H:8])([H:9])[H:10]>>[C:1]([C@@:2]1([H:11])[C:3]([H:12])([H:13])/[C:4](=[N:5]/[H:14])[C:7]#[C:6]1)([H:8])([H:9])[H:10]"
C        0.36057798       1.70368874       0.12291426
C       -0.45436720       0.50808322       0.60196286
C       -1.04210274      -0.50910287      -0.42132464
C        0.07234446      -1.10121795      -1.18623767
N        0.79632565      -1.84028291      -1.78972020
C        0.36521638      -0.43976118       1.36549688
C        1.08587833      -1.42300573       1.22100894
H        1.31496049       1.41071523      -0.31884337
H       -0.18659653       2.29075459      -0.61343490
H        0.64916293       2.33750558       0.96182347
H       -1.28682213       0.88113532       1.20046722
H       -1.56833888      -1.40998055      -0.08197428
H       -1.79461668      -0.09500492      -1.08832996
H        1.68837792      -2.31352657       0.02619140
14
Frame=15 idx=009745 GeodesicLength=2.20938899264202 rxn_smarts="[C:1]([C@@:2]([C:3]([C:4]#[N:5])([H:12])[H:13])([C:6]#[C:7][H:14])[H:11])([H:8])([H:9])[H:10]>>[C:1]([C@@:2]1([H:11])[C:3]([H:12])([H:13])/[C:4](=[N:5]/[H:14])[C:7]#[C:6]1)([H:8])([H:9])[H:10]"
C        0.37465633       1.69434093       0.11947699
C       -0.46251874       0.51458482       0.60099315
C       -1.04486989      -0.51972331      -0.40865575
C        0.07194491      -1.06027631      -1.21139257
N        0.78797473      -1.76135688      -1.86989762
C        0.34093098      -0.43347568       1.38213961
C        1.06817998      -1.40864195       1.21730744
H        1.33779442       1.38656369      -0.29245199
H       -0.14869533       2.26833604      -0.64365188
H        0.65106841       2.34044084       0.95306678
H       -1.29822479       0.90491702       1.18310390
H       -1.51727955      -1.45039327      -0.06945149
H       -1.84304655      -0.13828196      -1.04049730
H        1.68208511      -2.33703396       0.07991074
14
Frame=16 idx=009745 GeodesicLength=2.3577415259964063 rxn_smarts="[C:1]([C@@:2]([C:3]([C:4]#[N:5])([H:12])[H:13])([C:6]#[C:7][H:14])[H:11])([H:8])([H:9])[H:10]>>[C:1]([C@@:2]1([H:11])[C:3]([H:12])([H:13])/[C:4](=[N:5]/[H:14])[C:7]#[C:6]1)([H:8])([H:9])[H:10]"
C        0.38706887       1.68684244       0.11615939
C       -0.46948229       0.52108809       0.59941962
C       -1.04439791      -0.53106990      -0.39663649
C        0.07279998      -1.01849703      -1.23604081
N        0.77363223      -1.67444932      -1.95687903
C        0.32002064      -0.42544018       1.39753444
C        1.05635266      -1.39016781       1.21253246
H        1.35806654       1.36647974      -0.26701741
H       -0.11391511       2.24647711      -0.67190110
H        0.65129701       2.34509673       0.94412600
H       -1.30894569       0.92644226       1.16497574
H       -1.46051849      -1.48947185      -0.05982004
H       -1.88579432      -0.18613446      -0.99165217
H        1.66381589      -2.37719582       0.14519942
