13
Frame=0 idx=002017 GeodesicLength=0.0 rxn_smarts="[C:1]([C@@:2]([O:3][H:10])([C:4]([O:5][H:13])([H:11])[H:12])[H:9])([H:6])([H:7])[H:8]>>[C:1](=[C:2]([O:3][H:10])[C:4]([O:5][H:13])([H:11])[H:12])([H:6])[H:8].[H:7][H:9]"
C       -1.62995070       0.46435017       0.13643952
C       -0.39181477      -0.09666101      -0.27151485
O       -0.26803362      -0.63578667      -1.47325616
C        0.88290250       0.40441573       0.35871200
O        1.95878860      -0.38597646      -0.09727051
H       -1.60892745       1.34223460       0.76660059
H       -1.19749187      -0.76583096       0.70920488
H       -2.49065523       0.27247921      -0.48626764
H       -0.36946778      -1.55516909       0.63853408
H        0.61559448      -1.03866620      -1.51295143
H        0.98382892       1.44578142       0.02682343
H        0.79037290       0.37933061       1.44534757
H        2.72485398       0.16949860      -0.24040150
13
Frame=1 idx=002017 GeodesicLength=0.0753365251988633 rxn_smarts="[C:1]([C@@:2]([O:3][H:10])([C:4]([O:5][H:13])([H:11])[H:12])[H:9])([H:6])([H:7])[H:8]>>[C:1](=[C:2]([O:3][H:10])[C:4]([O:5][H:13])([H:11])[H:12])([H:6])[H:8].[H:7][H:9]"
C       -1.62864957       0.45787934       0.13895736
C       -0.39044377      -0.10454104      -0.26765890
O       -0.26741290      -0.62514093      -1.48143752
C        0.88476140       0.40612562       0.35443811
O        1.96095939      -0.38610349      -0.09933861
H       -1.60698994       1.34281620       0.75940302
H       -1.21628368      -0.78035157       0.73476880
H       -2.48766842       0.27313037      -0.48886928
H       -0.37905119      -1.56096874       0.64949169
H        0.61770522      -1.02251515      -1.52987582
H        0.98575297       1.44546798       0.01639285
H        0.79540850       0.38806257       1.44174465
H        2.73191199       0.16613884      -0.22801635
13
Frame=2 idx=002017 GeodesicLength=0.15056748789657176 rxn_smarts="[C:1]([C@@:2]([O:3][H:10])([C:4]([O:5][H:13])([H:11])[H:12])[H:9])([H:6])([H:7])[H:8]>>[C:1](=[C:2]([O:3][H:10])[C:4]([O:5][H:13])([H:11])[H:12])([H:6])[H:8].[H:7][H:9]"
C       -1.62716600       0.45105683       0.14144511
C       -0.38879982      -0.11240262      -0.26419388
O       -0.26661587      -0.61405015      -1.48985257
C        0.88671063       0.40780769       0.35003194
O        1.96323190      -0.38626295      -0.10150372
H       -1.60500434       1.34304916       0.75195440
H       -1.23560504      -0.79460080       0.76110261
H       -2.48455656       0.27316825      -0.49123497
H       -0.38926960      -1.56628905       0.66082453
H        0.61991670      -1.00582985      -1.54697168
H        0.98782159       1.44513540       0.00600071
H        0.80041425       0.39666053       1.43794293
H        2.73892216       0.16255756      -0.21554540
13
Frame=3 idx=002017 GeodesicLength=0.2257345904769405 rxn_smarts="[C:1]([C@@:2]([O:3][H:10])([C:4]([O:5][H:13])([H:11])[H:12])[H:9])([H:6])([H:7])[H:8]>>[C:1](=[C:2]([O:3][H:10])[C:4]([O:5][H:13])([H:11])[H:12])([H:6])[H:8].[H:7][H:9]"
C       -1.62549173       0.44385618       0.14390021
C       -0.38686500      -0.12023765      -0.26115132
O       -0.26562463      -0.60250321      -1.49851832
C        0.88876222       0.40945591       0.34549212
O        1.96561909      -0.38645082      -0.10378113
H       -1.60298049       1.34289560       0.74425917
H       -1.25550325      -0.80855137       0.78826102
H       -2.48131694       0.27256297      -0.49337411
H       -0.40017107      -1.57106771       0.67255911
H        0.62224635      -0.98860244      -1.56424674
H        0.99004725       1.44479042      -0.00432503
H        0.80539464       0.40509121       1.43394332
H        2.74588355       0.15876092      -0.20301831
13
Frame=4 idx=002017 GeodesicLength=0.30087617842323466 rxn_smarts="[C:1]([C@@:2]([O:3][H:10])([C:4]([O:5][H:13])([H:11])[H:12])[H:9])([H:6])([H:7])[H:8]>>[C:1](=[C:2]([O:3][H:10])[C:4]([O:5][H:13])([H:11])[H:12])([H:6])[H:8].[H:7][H:9]"
C       -1.62361586       0.43624530       0.14632167
C       -0.38462125      -0.12803979      -0.25856320
O       -0.26442266      -0.59048591      -1.50745380
C        0.89092916       0.41106406       0.34081612
O        1.96813450      -0.38666297      -0.10618888
H       -1.60093074       1.34231120       0.73632061
H       -1.27603207      -0.82217402       0.81630182
H       -2.47794391       0.27128345      -0.49529511
H       -0.41180619      -1.57523540       0.68472767
H        0.62471403      -0.97081903      -1.58171402
H        0.99244263       1.44443975      -0.01455829
H        0.81035612       0.41332093       1.42974641
H        2.75279623       0.15475243      -0.19046101
13
Frame=5 idx=002017 GeodesicLength=0.3760237818122323 rxn_smarts="[C:1]([C@@:2]([O:3][H:10])([C:4]([O:5][H:13])([H:11])[H:12])[H:9])([H:6])([H:7])[H:8]>>[C:1](=[C:2]([O:3][H:10])[C:4]([O:5][H:13])([H:11])[H:12])([H:6])[H:8].[H:7][H:9]"
C       -1.62152830       0.42819482       0.14870519
C       -0.38205042      -0.13580759      -0.25645847
O       -0.26299166      -0.57798685      -1.51667478
C        0.89322329       0.41262400       0.33600343
O        1.97079174      -0.38689583      -0.10874393
H       -1.59886428       1.34125523       0.72814639
H       -1.29725104      -0.83544537       0.84527677
H       -2.47443078       0.26930201      -0.49701213
H       -0.42422073      -1.57872146       0.69736489
H        0.62733475      -0.95246568      -1.59938342
H        0.99501841       1.44408963      -0.02467049
H        0.81530459       0.42131328       1.42535547
H        2.75966443       0.15054382      -0.17790891
13
Frame=6 idx=002017 GeodesicLength=0.4511939893874949 rxn_smarts="[C:1]([C@@:2]([O:3][H:10])([C:4]([O:5][H:13])([H:11])[H:12])[H:9])([H:6])([H:7])[H:8]>>[C:1](=[C:2]([O:3][H:10])[C:4]([O:5][H:13])([H:11])[H:12])([H:6])[H:8].[H:7][H:9]"
C       -1.61921499       0.41966173       0.15105265
C       -0.37913390      -0.14354189      -0.25486741
O       -0.26131677      -0.56498630      -1.52620204
C        0.89565891       0.41412867       0.33104886
O        1.97360606      -0.38714408      -0.11147112
H       -1.59679490       1.33967070       0.71974586
H       -1.31922778      -0.84833231       0.87523624
H       -2.47076568       0.26658708      -0.49853592
H       -0.43746836      -1.58144114       0.71052056
H        0.63013040      -0.93351841      -1.61727579
H        0.99778444       1.44374699      -0.03464007
H        0.82025096       0.42903395       1.42076996
H        2.76649161       0.14613502      -0.16538179
13
Frame=7 idx=002017 GeodesicLength=0.5264036817393446 rxn_smarts="[C:1]([C@@:2]([O:3][H:10])([C:4]([O:5][H:13])([H:11])[H:12])[H:9])([H:6])([H:7])[H:8]>>[C:1](=[C:2]([O:3][H:10])[C:4]([O:5][H:13])([H:11])[H:12])([H:6])[H:8].[H:7][H:9]"
C       -1.61666326       0.41060745       0.15336272
C       -0.37585205      -0.15125053      -0.25381702
O       -0.25938203      -0.55146921      -1.53605122
C        0.89824916       0.41556819       0.32595013
O        1.97659446      -0.38740207      -0.11439301
H       -1.59472928       1.33750663       0.71113668
H       -1.34204354      -0.86081248       0.90621672
H       -2.46693492       0.26311288      -0.49988567
H       -0.45159555      -1.58330693       0.72425071
H        0.63311896      -0.91395470      -1.63540416
H        1.00074730       1.44341739      -0.04444189
H        0.82520495       0.43644439       1.41599264
H        2.77328580       0.14153899      -0.15291664
13
Frame=8 idx=002017 GeodesicLength=0.6016579855516443 rxn_smarts="[C:1]([C@@:2]([O:3][H:10])([C:4]([O:5][H:13])([H:11])[H:12])[H:9])([H:6])([H:7])[H:8]>>[C:1](=[C:2]([O:3][H:10])[C:4]([O:5][H:13])([H:11])[H:12])([H:6])[H:8].[H:7][H:9]"
C       -1.61385623       0.40099209       0.15563351
C       -0.37218684      -0.15894786      -0.25333010
O       -0.25717708      -0.53741962      -1.54623455
C        0.90100723       0.41693246       0.32070241
O        1.97977478      -0.38766126      -0.11753813
H       -1.59267417       1.33470582       0.70233673
H       -1.36578672      -0.87286562       0.93824338
H       -2.46292182       0.25885586      -0.50107681
H       -0.46664220      -1.58422461       0.73862335
H        0.63631949      -0.89374337      -1.65379007
H        1.00391055       1.44310521      -0.05405617
H        0.83018015       0.44350786       1.41102433
H        2.78005285       0.13676303      -0.14053788
13
Frame=9 idx=002017 GeodesicLength=0.6769931888816002 rxn_smarts="[C:1]([C@@:2]([O:3][H:10])([C:4]([O:5][H:13])([H:11])[H:12])[H:9])([H:6])([H:7])[H:8]>>[C:1](=[C:2]([O:3][H:10])[C:4]([O:5][H:13])([H:11])[H:12])([H:6])[H:8].[H:7][H:9]"
C       -1.61077568       0.39077679       0.15785397
C       -0.36811654      -0.16664630      -0.25343363
O       -0.25468293      -0.52282201      -1.55676513
C        0.90394545       0.41821003       0.31530237
O        1.98316339      -0.38791410      -0.12093384
H       -1.59063420       1.33120761       0.69337474
H       -1.39054719      -0.88448453       0.97134292
H       -2.45870684       0.25379354      -0.50213302
H       -0.48265407      -1.58408350       0.75370946
H        0.63973965      -0.87285923      -1.67244298
H        1.00727949       1.44281526      -0.06345616
H        0.83518698       0.45018130       1.40586760
H        2.78680247       0.13182512      -0.12828631
13
Frame=10 idx=002017 GeodesicLength=0.7523518950954404 rxn_smarts="[C:1]([C@@:2]([O:3][H:10])([C:4]([O:5][H:13])([H:11])[H:12])[H:9])([H:6])([H:7])[H:8]>>[C:1](=[C:2]([O:3][H:10])[C:4]([O:5][H:13])([H:11])[H:12])([H:6])[H:8].[H:7][H:9]"
C       -1.60740266       0.37991723       0.16002778
C       -0.36362563      -0.17438384      -0.25413374
O       -0.25190020      -0.50766337      -1.56764005
C        0.90707626       0.41938706       0.30974522
O        1.98678364      -0.38814559      -0.12461517
H       -1.58860568       1.32694937       0.68428222
H       -1.41644634      -0.89564823       1.00547479
H       -2.45426538       0.24792006      -0.50307515
H       -0.49964467      -1.58278378       0.76961047
H        0.64339707      -0.85126529      -1.69137934
H        1.01084373       1.44254788      -0.07262862
H        0.84024681       0.45642917       1.40052433
H        2.79354305       0.12673933      -0.11619273
13
Frame=11 idx=002017 GeodesicLength=0.8277147580662185 rxn_smarts="[C:1]([C@@:2]([O:3][H:10])([C:4]([O:5][H:13])([H:11])[H:12])[H:9])([H:6])([H:7])[H:8]>>[C:1](=[C:2]([O:3][H:10])[C:4]([O:5][H:13])([H:11])[H:12])([H:6])[H:8].[H:7][H:9]"
C       -1.60371980       0.36837669       0.16215049
C       -0.35869661      -0.18219973      -0.25543775
O       -0.24882591      -0.49193427      -1.57885249
C        0.91040958       0.42044703       0.30402776
O        1.99065828      -0.38834057      -0.12861783
H       -1.58658001       1.32187232       0.67509804
H       -1.44360430      -0.90634777       1.04059657
H       -2.44957275       0.24123120      -0.50393177
H       -0.51762360      -1.58021617       0.78642347
H        0.64729695      -0.82893232      -1.71060128
H        1.01459205       1.44230251      -0.08155382
H        0.84537816       0.46220891       1.39499804
H        2.80028795       0.12153217      -0.10429941
13
Frame=12 idx=002017 GeodesicLength=0.9030528211797686 rxn_smarts="[C:1]([C@@:2]([O:3][H:10])([C:4]([O:5][H:13])([H:11])[H:12])[H:9])([H:6])([H:7])[H:8]>>[C:1](=[C:2]([O:3][H:10])[C:4]([O:5][H:13])([H:11])[H:12])([H:6])[H:8].[H:7][H:9]"
C       -1.59970555       0.35612233       0.16421816
C       -0.35331405      -0.19014256      -0.25734248
O       -0.24546598      -0.47563258      -1.59038306
C        0.91395536       0.42137415       0.29814589
O        1.99481174      -0.38847904      -0.13297986
H       -1.58454486       1.31591625       0.66586760
H       -1.47215528      -0.91658963       1.07662086
H       -2.44460148       0.23373497      -0.50472503
H       -0.53658235      -1.57626366       0.80426306
H        0.65144266      -0.80582924      -1.73011316
H        1.01850746       1.44207646      -0.09021952
H        0.85060472       0.46748499       1.38929163
H        2.80704760       0.11622758      -0.09264410
13
Frame=13 idx=002017 GeodesicLength=0.9783532759179122 rxn_smarts="[C:1]([C@@:2]([O:3][H:10])([C:4]([O:5][H:13])([H:11])[H:12])[H:9])([H:6])([H:7])[H:8]>>[C:1](=[C:2]([O:3][H:10])[C:4]([O:5][H:13])([H:11])[H:12])([H:6])[H:8].[H:7][H:9]"
C       -1.59533933       0.34312368       0.16622443
C       -0.34746172      -0.19826608      -0.25983927
O       -0.24182364      -0.45876041      -1.60220427
C        0.91772196       0.42214959       0.29209930
O        1.99926985      -0.38853861      -0.13773843
H       -1.58247973       1.30902275       0.65664635
H       -1.50224542      -0.92638261       1.11343574
H       -2.43931937       0.22544891      -0.50548900
H       -0.55649850      -1.57080675       0.82324404
H        0.65582135      -0.78193965      -1.74989650
H        1.02256866       1.44186614      -0.09860598
H        0.85594975       0.47221570       1.38341160
H        2.81383614       0.11086734      -0.08128800
13
Frame=14 idx=002017 GeodesicLength=1.053582431187038 rxn_smarts="[C:1]([C@@:2]([O:3][H:10])([C:4]([O:5][H:13])([H:11])[H:12])[H:9])([H:6])([H:7])[H:8]>>[C:1](=[C:2]([O:3][H:10])[C:4]([O:5][H:13])([H:11])[H:12])([H:6])[H:8].[H:7][H:9]"
C       -1.59060113       0.32936290       0.16816912
C       -0.34113102      -0.20663351      -0.26290520
O       -0.23792276      -0.44133204      -1.61427248
C        0.92171433       0.42275669       0.28588347
O        2.00405770      -0.38849169      -0.14293369
H       -1.58035990       1.30114449       0.64749750
H       -1.53401809      -0.93574928       1.15087550
H       -2.43369924       0.21640505      -0.50624434
H       -0.57731608      -1.56373362       0.84348028
H        0.66042394      -0.75725228      -1.76993428
H        1.02674565       1.44166486      -0.10671040
H        0.86144151       0.47637444       1.37736025
H        2.82066511       0.10548400      -0.07026574
13
Frame=15 idx=002017 GeodesicLength=1.1287280878362984 rxn_smarts="[C:1]([C@@:2]([O:3][H:10])([C:4]([O:5][H:13])([H:11])[H:12])[H:9])([H:6])([H:7])[H:8]>>[C:1](=[C:2]([O:3][H:10])[C:4]([O:5][H:13])([H:11])[H:12])([H:6])[H:8].[H:7][H:9]"
C       -1.58547315       0.31483224       0.17004899
C       -0.33431384      -0.21530787      -0.26650895
O       -0.23378617      -0.42337342      -1.62652868
C        0.92593650       0.42317901       0.27949943
O        2.00920095      -0.38830791      -0.14860142
H       -1.57815319       1.29224351       0.63849111
H       -1.56761661      -0.94473125       1.18873577
H       -2.42771253       0.20664916      -0.50701685
H       -0.59896255      -1.55493118       0.86507769
H        0.66521905      -0.73177762      -1.79018216
H        1.03100530       1.44146622      -0.11452490
H        0.86710778       0.47993445       1.37114464
H        2.82754846       0.10012466      -0.05963468
13
Frame=16 idx=002017 GeodesicLength=1.2037826389953692 rxn_smarts="[C:1]([C@@:2]([O:3][H:10])([C:4]([O:5][H:13])([H:11])[H:12])[H:9])([H:6])([H:7])[H:8]>>[C:1](=[C:2]([O:3][H:10])[C:4]([O:5][H:13])([H:11])[H:12])([H:6])[H:8].[H:7][H:9]"
C       -1.57994080       0.29953361       0.17186812
C       -0.32700697      -0.22435259      -0.27060817
O       -0.22945037      -0.40492553      -1.63889967
C        0.93038979       0.42340366       0.27294674
O        2.01472330      -0.38795333      -0.15477472
H       -1.57582388       1.28229381       0.62970667
H       -1.60317738      -0.95337902       1.22677125
H       -2.42133494       0.19623842      -0.50782385
H       -0.62133953      -1.54429652       0.88812641
H        0.67017260      -0.70554049      -1.81059126
H        1.03531001       1.44126289      -0.12205263
H        0.87297897       0.48288329       1.36476994
H        2.83449920       0.09483181      -0.04943882
