15
Frame=0 idx=007175 GeodesicLength=0.0 rxn_smarts="[C:1]([C@@:2]1([H:11])[C:3]([H:12])([H:13])[N:4]1[C:5]([C:6]#[N:7])([H:14])[H:15])([H:8])([H:9])[H:10]>>[C:1]([H:8])([H:9])([H:10])[H:14].[C:2]1([H:11])=[N+:4]([C-:5]([C:6]#[N:7])[H:15])[C:3]1([H:12])[H:13]"
C       -1.33033273      -1.05197848      -0.41884201
C       -0.66792491       1.05651168      -0.49703816
C       -0.20278369       1.37573535       0.85416683
N        0.62704613       0.94442032      -0.26947668
C        1.32178582      -0.26608130      -0.35395272
C        2.31057151      -0.48975934       0.65615692
N        3.06206315      -0.72878826       1.49459043
H       -2.17030632      -0.57227138       0.08547522
H       -1.26256036      -2.04597119       0.04007441
H       -1.57556749      -1.18912241      -1.47115545
H       -1.29352709       1.37445668      -1.31356160
H       -0.01083525       2.38436134       1.20135419
H       -0.42599125       0.63900291       1.62569308
H       -0.03060687      -0.91903584      -0.27273731
H        1.64896936      -0.51148008      -1.36074715
15
Frame=1 idx=007175 GeodesicLength=0.09752415267581384 rxn_smarts="[C:1]([C@@:2]1([H:11])[C:3]([H:12])([H:13])[N:4]1[C:5]([C:6]#[N:7])([H:14])[H:15])([H:8])([H:9])[H:10]>>[C:1]([H:8])([H:9])([H:10])[H:14].[C:2]1([H:11])=[N+:4]([C-:5]([C:6]#[N:7])[H:15])[C:3]1([H:12])[H:13]"
C       -1.33497189      -1.06116717      -0.40940583
C       -0.67207868       1.04777759      -0.49641339
C       -0.20960106       1.39214372       0.84948856
N        0.62486944       0.94141510      -0.25974218
C        1.33775190      -0.25352300      -0.36538485
C        2.30935260      -0.49325519       0.65811647
N        3.03424565      -0.77003869       1.50832714
H       -2.16265055      -0.60384970       0.13502431
H       -1.26317370      -2.07270382       0.00845783
H       -1.62222824      -1.16962038      -1.45481184
H       -1.27730750       1.37690543      -1.32412126
H       -0.01283721       2.40808661       1.17278580
H       -0.43350905       0.66872099       1.63298159
H       -0.00542898      -0.94581677      -0.28322745
H        1.68756726      -0.46507473      -1.37207489
15
Frame=2 idx=007175 GeodesicLength=0.19502343965134628 rxn_smarts="[C:1]([C@@:2]1([H:11])[C:3]([H:12])([H:13])[N:4]1[C:5]([C:6]#[N:7])([H:14])[H:15])([H:8])([H:9])[H:10]>>[C:1]([H:8])([H:9])([H:10])[H:14].[C:2]1([H:11])=[N+:4]([C-:5]([C:6]#[N:7])[H:15])[C:3]1([H:12])[H:13]"
C       -1.33953586      -1.07055733      -0.39973625
C       -0.67608529       1.03894027      -0.49607226
C       -0.21724029       1.40894104       0.84427062
N        0.62251805       0.93773622      -0.24907872
C        1.35367130      -0.24080332      -0.37588038
C        2.30721664      -0.49783925       0.66090759
N        3.00681273      -0.81288622       1.51903293
H       -2.15228526      -0.63683446       0.18551463
H       -1.26439787      -2.09814867      -0.02406062
H       -1.67031402      -1.14975612      -1.43526189
H       -1.25969043       1.37873548      -1.33530607
H       -0.01541478       2.43170469       1.14306080
H       -0.44313281       0.69978522       1.63981932
H        0.02052009      -0.97292368      -0.29640048
H        1.72735779      -0.41609387      -1.38080920
15
Frame=3 idx=007175 GeodesicLength=0.29250310984203237 rxn_smarts="[C:1]([C@@:2]1([H:11])[C:3]([H:12])([H:13])[N:4]1[C:5]([C:6]#[N:7])([H:14])[H:15])([H:8])([H:9])[H:10]>>[C:1]([H:8])([H:9])([H:10])[H:14].[C:2]1([H:11])=[N+:4]([C-:5]([C:6]#[N:7])[H:15])[C:3]1([H:12])[H:13]"
C       -1.34401791      -1.08013925      -0.38983963
C       -0.67995541       1.03002508      -0.49604736
C       -0.22568216       1.42613758       0.83843388
N        0.61994165       0.93332234      -0.23745951
C        1.36953024      -0.22791810      -0.38545311
C        2.30409126      -0.50366880       0.66441489
N        2.97971331      -0.85726047       1.52681830
H       -2.13890324      -0.67131486       0.23691818
H       -1.26631675      -2.12224578      -0.05752306
H       -1.71981213      -1.12947414      -1.41218700
H       -1.24071856       1.37983891      -1.34709001
H       -0.01840546       2.45515827       1.11210080
H       -0.45496340       0.73227608       1.64608923
H        0.04722784      -1.00028664      -0.31253689
H        1.76827069      -0.36445020      -1.38663870
15
Frame=4 idx=007175 GeodesicLength=0.38996867917569183 rxn_smarts="[C:1]([C@@:2]1([H:11])[C:3]([H:12])([H:13])[N:4]1[C:5]([C:6]#[N:7])([H:14])[H:15])([H:8])([H:9])[H:10]>>[C:1]([H:8])([H:9])([H:10])[H:14].[C:2]1([H:11])=[N+:4]([C-:5]([C:6]#[N:7])[H:15])[C:3]1([H:12])[H:13]"
C       -1.34839821      -1.08990289      -0.37971998
C       -0.68370505       1.02106518      -0.49637255
C       -0.23491499       1.44375319       0.83189690
N        0.61707630       0.92811469      -0.22484062
C        1.38530320      -0.21485252      -0.39410217
C        2.29990617      -0.51089468       0.66851050
N        2.95290482      -0.90314558       1.53173356
H       -2.12216143      -0.70738450       0.28915044
H       -1.26902573      -2.14492334      -0.09196636
H       -1.77063955      -1.10873916      -1.38522968
H       -1.22043341       1.38010183      -1.35946513
H       -0.02164610       2.47839429       1.07982908
H       -0.46913427       0.76629157       1.65165642
H        0.07468024      -1.02780458      -0.33187531
H        1.81018799      -0.31007350      -1.38920511
15
Frame=5 idx=007175 GeodesicLength=0.4874354641081167 rxn_smarts="[C:1]([C@@:2]1([H:11])[C:3]([H:12])([H:13])[N:4]1[C:5]([C:6]#[N:7])([H:14])[H:15])([H:8])([H:9])[H:10]>>[C:1]([H:8])([H:9])([H:10])[H:14].[C:2]1([H:11])=[N+:4]([C-:5]([C:6]#[N:7])[H:15])[C:3]1([H:12])[H:13]"
C       -1.35262411      -1.09983589      -0.36936276
C       -0.68735793       1.01210122      -0.49708734
C       -0.24494059       1.46182608       0.82456627
N        0.61384461       0.92207725      -0.21117330
C        1.40096487      -0.20154646      -0.40181591
C        2.29462652      -0.51960244       0.67304284
N        2.92623542      -0.95073147       1.53376176
H       -2.10166575      -0.74514873       0.34208747
H       -1.27257863      -2.16608805      -0.12739526
H       -1.82263330      -1.08755464      -1.35397817
H       -1.19888327       1.37939836      -1.37244117
H       -0.02500281       2.50137862       1.04615329
H       -0.48580883       0.80195816       1.65635971
H        0.10289105      -1.05532498      -0.35460104
H        1.85293274      -0.25290704      -1.38811639
15
Frame=6 idx=007175 GeodesicLength=0.5849170629324691 rxn_smarts="[C:1]([C@@:2]1([H:11])[C:3]([H:12])([H:13])[N:4]1[C:5]([C:6]#[N:7])([H:14])[H:15])([H:8])([H:9])[H:10]>>[C:1]([H:8])([H:9])([H:10])[H:14].[C:2]1([H:11])=[N+:4]([C-:5]([C:6]#[N:7])[H:15])[C:3]1([H:12])[H:13]"
C       -1.35667658      -1.10991826      -0.35878509
C       -0.69092702       1.00317220      -0.49822763
C       -0.25574170       1.48035709       0.81635775
N        0.61015890       0.91513334      -0.19638187
C        1.41645767      -0.18799018      -0.40855480
C        2.28819872      -0.52994008       0.67784599
N        2.89972918      -0.99990500       1.53285098
H       -2.07702601      -0.78468825       0.39550909
H       -1.27715172      -2.18563698      -0.16386946
H       -1.87556744      -1.06588250      -1.31803474
H       -1.17609240       1.37762206      -1.38602020
H       -0.02827199       2.52401223       1.01102530
H       -0.50519002       0.83936599       1.66000408
H        0.13184201      -1.08269674      -0.38078775
H        1.89625840      -0.19300492      -1.38293165
15
Frame=7 idx=007175 GeodesicLength=0.6824280446929973 rxn_smarts="[C:1]([C@@:2]1([H:11])[C:3]([H:12])([H:13])[N:4]1[C:5]([C:6]#[N:7])([H:14])[H:15])([H:8])([H:9])[H:10]>>[C:1]([H:8])([H:9])([H:10])[H:14].[C:2]1([H:11])=[N+:4]([C-:5]([C:6]#[N:7])[H:15])[C:3]1([H:12])[H:13]"
C       -1.36055137      -1.12011400      -0.34800294
C       -0.69442498       0.99432164      -0.49983570
C       -0.26732222       1.49933989       0.80719401
N        0.60591397       0.90720947      -0.18036173
C        1.43170796      -0.17415750      -0.41423956
C        2.28062001      -0.54198443       0.68274835
N        2.87355647      -1.05064013       1.52880721
H       -2.04793551      -0.82603057       0.44902828
H       -1.28295528      -2.20341575      -0.20136230
H       -1.92906364      -1.04374586      -1.27703741
H       -1.15205585       1.37468175      -1.40022280
H       -0.03127745       2.54618534       0.97442544
H       -0.52754279       0.87859693       1.66236245
H        0.16152106      -1.10973923      -0.41031639
H        1.93980962      -0.13050755      -1.37318691
15
Frame=8 idx=007175 GeodesicLength=0.7799897493636909 rxn_smarts="[C:1]([C@@:2]1([H:11])[C:3]([H:12])([H:13])[N:4]1[C:5]([C:6]#[N:7])([H:14])[H:15])([H:8])([H:9])[H:10]>>[C:1]([H:8])([H:9])([H:10])[H:14].[C:2]1([H:11])=[N+:4]([C-:5]([C:6]#[N:7])[H:15])[C:3]1([H:12])[H:13]"
C       -1.36427240      -1.13037488      -0.33703523
C       -0.69786256       0.98558853      -0.50195443
C       -0.27966183       1.51873269       0.79700406
N        0.60099473       0.89822533      -0.16301486
C        1.44663682      -0.16001788      -0.41879197
C        2.27195745      -0.55576124       0.68753465
N        2.84786595      -1.10282618       1.52146159
H       -2.01414993      -0.86915807       0.50216474
H       -1.29023513      -2.21924642      -0.23981280
H       -1.98267110      -1.02118748      -1.23066147
H       -1.12677011       1.37050954      -1.41505122
H       -0.03381401       2.56774078       0.93637702
H       -0.55310896       0.91968279       1.66316883
H        0.19193206      -1.13627284      -0.44293386
H        1.98315903      -0.06563467      -1.35845507
15
Frame=9 idx=007175 GeodesicLength=0.8776334400980972 rxn_smarts="[C:1]([C@@:2]1([H:11])[C:3]([H:12])([H:13])[N:4]1[C:5]([C:6]#[N:7])([H:14])[H:15])([H:8])([H:9])[H:10]>>[C:1]([H:8])([H:9])([H:10])[H:14].[C:2]1([H:11])=[N+:4]([C-:5]([C:6]#[N:7])[H:15])[C:3]1([H:12])[H:13]"
C       -1.36790678      -1.14062883      -0.32588852
C       -0.70124095       0.97700736      -0.50463295
C       -0.29273684       1.53845658       0.78572900
N        0.59527592       0.88809900      -0.14424298
C        1.46115815      -0.14552912      -0.42210301
C        2.26234062      -0.57122241       0.69199591
N        2.82292927      -1.15631750       1.51057357
H       -1.97560035      -0.91397630       0.55431133
H       -1.29926715      -2.23291585      -0.27906465
H       -2.03582793      -0.99828772      -1.17867913
H       -1.10020065       1.36507649      -1.43049838
H       -0.03568425       2.58848479       0.89695337
H       -0.58213891       0.96259582       1.66212113
H        0.22310918      -1.16213010      -0.47821777
H        2.02579066       0.00128777      -1.33835692
15
Frame=10 idx=007175 GeodesicLength=0.9753663095767477 rxn_smarts="[C:1]([C@@:2]1([H:11])[C:3]([H:12])([H:13])[N:4]1[C:5]([C:6]#[N:7])([H:14])[H:15])([H:8])([H:9])[H:10]>>[C:1]([H:8])([H:9])([H:10])[H:14].[C:2]1([H:11])=[N+:4]([C-:5]([C:6]#[N:7])[H:15])[C:3]1([H:12])[H:13]"
C       -1.37161198      -1.15079093      -0.31458444
C       -0.70455657       0.96858487      -0.50790488
C       -0.30643851       1.55833368       0.77333370
N        0.58862248       0.87672057      -0.12398843
C        1.47516013      -0.13067941      -0.42408292
C        2.25192221      -0.58828277       0.69588685
N        2.79914354      -1.21054136       1.49606920
H       -1.93244372      -0.96028897       0.60474148
H       -1.31045716      -2.24420055      -0.31892880
H       -2.08792774      -0.97511636      -1.12101701
H       -1.07234583       1.35838409      -1.44647445
H       -0.03658580       2.60809740       0.85634040
H       -0.61471894       1.00716674       1.65886964
H        0.25507978      -1.18721407      -0.51567083
H        2.06715811       0.06982705      -1.31258950
15
Frame=11 idx=007175 GeodesicLength=1.0731798801451284 rxn_smarts="[C:1]([C@@:2]1([H:11])[C:3]([H:12])([H:13])[N:4]1[C:5]([C:6]#[N:7])([H:14])[H:15])([H:8])([H:9])[H:10]>>[C:1]([H:8])([H:9])([H:10])[H:14].[C:2]1([H:11])=[N+:4]([C-:5]([C:6]#[N:7])[H:15])[C:3]1([H:12])[H:13]"
C       -1.37556960      -1.16077123      -0.30309582
C       -0.70780367       0.96031425      -0.51180019
C       -0.32062804       1.57816043       0.75980032
N        0.58089692       0.86401272      -0.10225499
C        1.48853128      -0.11541880      -0.42463352
C        2.24089552      -0.60675375       0.69898979
N        2.77687682      -1.26497504       1.47789113
H       -1.88508592      -1.00784242       0.65268788
H       -1.32416515      -2.25287883      -0.35908026
H       -2.13827593      -0.95180359      -1.05775114
H       -1.04322038       1.35047947      -1.46285297
H       -0.03624569       2.62626223       0.81476683
H       -0.65080904       1.05316036       1.65306153
H        0.28792141      -1.21143916      -0.55476992
H        2.10668146       0.13949338      -1.28095867
15
Frame=12 idx=007175 GeodesicLength=1.1710701509901296 rxn_smarts="[C:1]([C@@:2]1([H:11])[C:3]([H:12])([H:13])[N:4]1[C:5]([C:6]#[N:7])([H:14])[H:15])([H:8])([H:9])[H:10]>>[C:1]([H:8])([H:9])([H:10])[H:14].[C:2]1([H:11])=[N+:4]([C-:5]([C:6]#[N:7])[H:15])[C:3]1([H:12])[H:13]"
C       -1.38000446      -1.17049182      -0.29137199
C       -0.71100002       0.95216807      -0.51633379
C       -0.33510549       1.59769568       0.74514843
N        0.57197034       0.84992062      -0.07914337
C        1.50116662      -0.09970471      -0.42368898
C        2.22947685      -0.62640225       0.70111027
N        2.75649802      -1.31894033       1.45617008
H       -1.83420048      -1.05632980       0.69740439
H       -1.34074552      -2.25877022      -0.39912007
H       -2.18617806      -0.92849659      -0.98916882
H       -1.01292680       1.34145345      -1.47946154
H       -0.03438662       2.64264488       0.77253360
H       -0.69012805       1.10026101       1.64439463
H        0.32173803      -1.23476012      -0.59506417
H        2.14382563       0.20975215      -1.24340869
15
Frame=13 idx=007175 GeodesicLength=1.269039296400652 rxn_smarts="[C:1]([C@@:2]1([H:11])[C:3]([H:12])([H:13])[N:4]1[C:5]([C:6]#[N:7])([H:14])[H:15])([H:8])([H:9])[H:10]>>[C:1]([H:8])([H:9])([H:10])[H:14].[C:2]1([H:11])=[N+:4]([C-:5]([C:6]#[N:7])[H:15])[C:3]1([H:12])[H:13]"
C       -1.38514890      -1.17985495      -0.27927866
C       -0.71418260       0.94409431      -0.52149605
C       -0.34969777       1.61669805       0.72943130
N        0.56173773       0.83441667      -0.05479136
C        1.51298196      -0.08348692      -0.42115676
C        2.21788233      -0.64695713       0.70217131
N        2.73858275      -1.37193841       1.43090631
H       -1.78089006      -1.10530189       0.73822087
H       -1.36043474      -2.26170650      -0.43848462
H       -2.23088630      -0.90541562      -0.91585211
H       -0.98156216       1.33139465      -1.49614106
H       -0.03086460       2.65694814       0.72991524
H       -0.73230435       1.14815898       1.63267376
H        0.35667998      -1.25713760      -0.63613351
H        2.17810671       0.28008823      -1.19998466
15
Frame=14 idx=007175 GeodesicLength=1.3670277864179572 rxn_smarts="[C:1]([C@@:2]1([H:11])[C:3]([H:12])([H:13])[N:4]1[C:5]([C:6]#[N:7])([H:14])[H:15])([H:8])([H:9])[H:10]>>[C:1]([H:8])([H:9])([H:10])[H:14].[C:2]1([H:11])=[N+:4]([C-:5]([C:6]#[N:7])[H:15])[C:3]1([H:12])[H:13]"
C       -1.39116508      -1.18886823      -0.26671900
C       -0.71739228       0.93601137      -0.52725630
C       -0.36403314       1.63489658       0.71268239
N        0.55016181       0.81765069      -0.02963300
C        1.52388175      -0.06666445      -0.41704394
C        2.20617845      -0.66803477       0.70205402
N        2.72280828      -1.42316928       1.40271234
H       -1.72592301      -1.15464826       0.77473952
H       -1.38342759      -2.26163479      -0.47687891
H       -2.27192347      -0.88267578      -0.83823776
H       -0.94949539       1.32040762      -1.51257636
H       -0.02547381       2.66890426       0.68723042
H       -0.77635782       1.19638950       1.61772084
H        0.39296150      -1.27846161      -0.67795762
H        2.20919979       0.34989715      -1.15083664
15
Frame=15 idx=007175 GeodesicLength=1.4650143985693538 rxn_smarts="[C:1]([C@@:2]1([H:11])[C:3]([H:12])([H:13])[N:4]1[C:5]([C:6]#[N:7])([H:14])[H:15])([H:8])([H:9])[H:10]>>[C:1]([H:8])([H:9])([H:10])[H:14].[C:2]1([H:11])=[N+:4]([C-:5]([C:6]#[N:7])[H:15])[C:3]1([H:12])[H:13]"
C       -1.39822772      -1.19750549      -0.25355700
C       -0.72070022       0.92783847      -0.53356242
C       -0.37786175       1.65207291       0.69501577
N        0.53726443       0.79976898      -0.00407046
C        1.53381662      -0.04923104      -0.41134201
C        2.19449199      -0.68931551       0.70076115
N        2.70938688      -1.47200988       1.37203126
H       -1.67050433      -1.20414497       0.80665496
H       -1.40981784      -2.25849430      -0.51388678
H       -2.30880395      -0.86040712      -0.75711082
H       -0.91705161       1.30862118      -1.52856129
H       -0.01822556       2.67834959       0.64476895
H       -0.82143284       1.24458027       1.59959680
H        0.43083893      -1.29865368      -0.72044079
H        2.23682696       0.41853059      -1.09629732
15
Frame=16 idx=007175 GeodesicLength=1.562963576864808 rxn_smarts="[C:1]([C@@:2]1([H:11])[C:3]([H:12])([H:13])[N:4]1[C:5]([C:6]#[N:7])([H:14])[H:15])([H:8])([H:9])[H:10]>>[C:1]([H:8])([H:9])([H:10])[H:14].[C:2]1([H:11])=[N+:4]([C-:5]([C:6]#[N:7])[H:15])[C:3]1([H:12])[H:13]"
C       -1.40640381      -1.20577273      -0.23965392
C       -0.72416407       0.91946599      -0.54037882
C       -0.39094039       1.66803424       0.67648064
N        0.52316509       0.78108208       0.02135116
C        1.54277583      -0.03113074      -0.40406770
C        2.18277326      -0.71044593       0.69837525
N        2.69788848      -1.51802487       1.33951418
H       -1.61531070      -1.25387948       0.83392482
H       -1.43964369      -2.25218126      -0.54936981
H       -2.34129951      -0.83863261      -0.67284369
H       -0.88464929       1.29606716      -1.54391021
H       -0.00929969       2.68521738       0.60268594
H       -0.86648316       1.29231510       1.57840608
H        0.47064966      -1.31749913      -0.76379849
H        2.26094199       0.48538479      -1.03671542
