14
Frame=0 idx=011202 GeodesicLength=0.0 rxn_smarts="[N:1]#[C:2][C:3]1([H:8])[C:4]([H:9])([H:10])[C:5]([H:11])=[C:6]([H:12])[C:7]1([H:13])[H:14]>>[H:8][H:10].[N:1]#[C:2][C:3]1=[C:4]([H:9])[C:5]([H:11])=[C:6]([H:12])[C:7]1([H:13])[H:14]"
N       -0.36150771       3.22015817      -0.98837660
C       -0.31603454       2.11830211      -0.63735926
C       -0.26225242       0.79334999      -0.19428302
C        0.88647566       0.27380818       0.55701668
C        0.84414903      -1.20388216       0.38879173
C       -0.21366400      -1.54514339      -0.34002368
C       -1.05262643      -0.37091170      -0.74811369
H        0.02590504       0.73050533       1.37848815
H        1.82395730       0.82349322       0.57116868
H        0.73506099       0.38675705       1.98798932
H        1.58402688      -1.86779241       0.81180621
H       -0.46534533      -2.56532595      -0.60300682
H       -1.15862946      -0.32060049      -1.83738455
H       -2.06951495      -0.47271791      -0.34671319
14
Frame=1 idx=011202 GeodesicLength=0.10036873436000703 rxn_smarts="[N:1]#[C:2][C:3]1([H:8])[C:4]([H:9])([H:10])[C:5]([H:11])=[C:6]([H:12])[C:7]1([H:13])[H:14]>>[H:8][H:10].[N:1]#[C:2][C:3]1=[C:4]([H:9])[C:5]([H:11])=[C:6]([H:12])[C:7]1([H:13])[H:14]"
N       -0.35006499       3.21348333      -1.00733005
C       -0.31165811       2.11695440      -0.64092326
C       -0.26259717       0.79381999      -0.18477194
C        0.88873330       0.27301216       0.55905495
C        0.85693938      -1.20237284       0.37235393
C       -0.21248410      -1.54554054      -0.33869159
C       -1.05108792      -0.36992487      -0.74301884
H       -0.00362282       0.73672175       1.39675225
H        1.82551570       0.82410730       0.56603506
H        0.71480855       0.37631674       1.99940060
H        1.60114578      -1.86683977       0.78707757
H       -0.47120568      -2.56591465      -0.59364486
H       -1.15691709      -0.31616317      -1.83206060
H       -2.06750482      -0.46765984      -0.34023323
14
Frame=2 idx=011202 GeodesicLength=0.20033175511846651 rxn_smarts="[N:1]#[C:2][C:3]1([H:8])[C:4]([H:9])([H:10])[C:5]([H:11])=[C:6]([H:12])[C:7]1([H:13])[H:14]>>[H:8][H:10].[N:1]#[C:2][C:3]1=[C:4]([H:9])[C:5]([H:11])=[C:6]([H:12])[C:7]1([H:13])[H:14]"
N       -0.33894835       3.20659719      -1.02550121
C       -0.30727811       2.11554074      -0.64413588
C       -0.26267974       0.79427617      -0.17507333
C        0.89162917       0.27206715       0.56062923
C        0.86947433      -1.20079545       0.35599920
C       -0.21112826      -1.54590150      -0.33731692
C       -1.04935674      -0.36887624      -0.73785691
H       -0.03409614       0.74319186       1.41501710
H        1.82774588       0.82442923       0.55974708
H        0.69409675       0.36600737       2.01008867
H        1.61756780      -1.86590615       0.76293328
H       -0.47673349      -2.56642140      -0.58412884
H       -1.15498905      -0.31163346      -1.82666033
H       -2.06530404      -0.46257551      -0.33374113
14
Frame=3 idx=011202 GeodesicLength=0.3000874621429678 rxn_smarts="[N:1]#[C:2][C:3]1([H:8])[C:4]([H:9])([H:10])[C:5]([H:11])=[C:6]([H:12])[C:7]1([H:13])[H:14]>>[H:8][H:10].[N:1]#[C:2][C:3]1=[C:4]([H:9])[C:5]([H:11])=[C:6]([H:12])[C:7]1([H:13])[H:14]"
N       -0.32810713       3.19949353      -1.04292540
C       -0.30293678       2.11406797      -0.64691071
C       -0.26249358       0.79470813      -0.16512093
C        0.89522847       0.27096874       0.56170183
C        0.88175511      -1.19920227       0.33977051
C       -0.20958759      -1.54623241      -0.33591049
C       -1.04742198      -0.36776130      -0.73259925
H       -0.06568926       0.74990779       1.43332002
H        1.83070125       0.82444690       0.55219955
H        0.67289060       0.35595716       2.01998128
H        1.63331041      -1.86505696       0.73939425
H       -0.48190745      -2.56683964      -0.57453744
H       -1.15284093      -0.30697844      -1.82115274
H       -2.06290114      -0.45747920      -0.32721051
14
Frame=4 idx=011202 GeodesicLength=0.39983982064108115 rxn_smarts="[N:1]#[C:2][C:3]1([H:8])[C:4]([H:9])([H:10])[C:5]([H:11])=[C:6]([H:12])[C:7]1([H:13])[H:14]>>[H:8][H:10].[N:1]#[C:2][C:3]1=[C:4]([H:9])[C:5]([H:11])=[C:6]([H:12])[C:7]1([H:13])[H:14]"
N       -0.31761990       3.19219634      -1.05948628
C       -0.29861900       2.11253177      -0.64920551
C       -0.26200028       0.79510091      -0.15486674
C        0.89962079       0.26970273       0.56220492
C        0.89378069      -1.19765834       0.32372730
C       -0.20786255      -1.54654807      -0.33446573
C       -1.04525182      -0.36657388      -0.72723561
H       -0.09859575       0.75685587       1.45167671
H        1.83446623       0.82411979       0.54323835
H        0.65116987       0.34634919       2.02896539
H        1.64835604      -1.86436477       0.71653325
H       -0.48674337      -2.56717330      -0.56490812
H       -1.15042726      -0.30217982      -1.81552754
H       -2.06027369      -0.45235843      -0.32065037
14
Frame=5 idx=011202 GeodesicLength=0.4996413949597688 rxn_smarts="[N:1]#[C:2][C:3]1([H:8])[C:4]([H:9])([H:10])[C:5]([H:11])=[C:6]([H:12])[C:7]1([H:13])[H:14]>>[H:8][H:10].[N:1]#[C:2][C:3]1=[C:4]([H:9])[C:5]([H:11])=[C:6]([H:12])[C:7]1([H:13])[H:14]"
N       -0.30752669       3.18473467      -1.07511794
C       -0.29433767       2.11093410      -0.65095517
C       -0.26117011       0.79543939      -0.14425567
C        0.90488396       0.26826431       0.56209630
C        0.90555950      -1.19623212       0.30791190
C       -0.20595929      -1.54686183      -0.33296778
C       -1.04281844      -0.36530859      -0.72174966
H       -0.13299246       0.76402541       1.47008781
H        1.83910350       0.82341659       0.53272310
H        0.62890100       0.33735625       2.03695305
H        1.66272022      -1.86391966       0.69438784
H       -0.49125692      -2.56742337      -0.55527881
H       -1.14770329      -0.29721921      -1.80976874
H       -2.05740330      -0.44720593      -0.31406625
14
Frame=6 idx=011202 GeodesicLength=0.5996391870436317 rxn_smarts="[N:1]#[C:2][C:3]1([H:8])[C:4]([H:9])([H:10])[C:5]([H:11])=[C:6]([H:12])[C:7]1([H:13])[H:14]>>[H:8][H:10].[N:1]#[C:2][C:3]1=[C:4]([H:9])[C:5]([H:11])=[C:6]([H:12])[C:7]1([H:13])[H:14]"
N       -0.29789244       3.17713560      -1.08968177
C       -0.29008829       2.10927007      -0.65208905
C       -0.25996139       0.79570407      -0.13322183
C        0.91111610       0.26663817       0.56128472
C        0.91710138      -1.19498982       0.29237960
C       -0.20387942      -1.54719075      -0.33140425
C       -1.04008556      -0.36395792      -0.71612907
H       -0.16911465       0.77136485       1.48856612
H        1.84470088       0.82230055       0.52046037
H        0.60607066       0.32920575       2.04379974
H        1.67638289      -1.86380034       0.67305476
H       -0.49547026      -2.56759792      -0.54568267
H       -1.14461250      -0.29207249      -1.80386353
H       -2.05426739      -0.44200984      -0.30747314
14
Frame=7 idx=011202 GeodesicLength=0.699891376564532 rxn_smarts="[N:1]#[C:2][C:3]1([H:8])[C:4]([H:9])([H:10])[C:5]([H:11])=[C:6]([H:12])[C:7]1([H:13])[H:14]>>[H:8][H:10].[N:1]#[C:2][C:3]1=[C:4]([H:9])[C:5]([H:11])=[C:6]([H:12])[C:7]1([H:13])[H:14]"
N       -0.28883368       3.16947981      -1.10301793
C       -0.28586063       2.10753167      -0.65252638
C       -0.25832050       0.79586833      -0.12169450
C        0.91841875       0.26480682       0.55969142
C        0.92841312      -1.19401549       0.27719724
C       -0.20163476      -1.54755654      -0.32974033
C       -1.03700567      -0.36251437      -0.71036313
H       -0.20719435       0.77883305       1.50709337
H        1.85133636       0.82070917       0.50620774
H        0.58265984       0.32215135       2.04937566
H        1.68933987      -1.86412393       0.65263102
H       -0.49941400      -2.56770051      -0.53614546
H       -1.14106615      -0.28672075      -1.79780322
H       -2.05083821      -0.43674861      -0.30090549
14
Frame=8 idx=011202 GeodesicLength=0.800393835285054 rxn_smarts="[N:1]#[C:2][C:3]1([H:8])[C:4]([H:9])([H:10])[C:5]([H:11])=[C:6]([H:12])[C:7]1([H:13])[H:14]>>[H:8][H:10].[N:1]#[C:2][C:3]1=[C:4]([H:9])[C:5]([H:11])=[C:6]([H:12])[C:7]1([H:13])[H:14]"
N       -0.28042109       3.16181146      -1.11496549
C       -0.28165627       2.10571563      -0.65217445
C       -0.25620471       0.79591133      -0.10959142
C        0.92689525       0.26275817       0.55723407
C        0.93951577      -1.19338009       0.26241720
C       -0.19922903      -1.54797593      -0.32794618
C       -1.03353421      -0.36096782      -0.70443688
H       -0.24747266       0.78635914       1.52563768
H        1.85908025       0.81859254       0.48972602
H        0.55863451       0.31644897       2.05353652
H        1.70159312      -1.86498930       0.63320152
H       -0.50312612      -2.56773930      -0.52667480
H       -1.13698448      -0.28113848      -1.79157339
H       -2.04709032      -0.43140630      -0.29439040
14
Frame=9 idx=011202 GeodesicLength=0.9010689289524978 rxn_smarts="[N:1]#[C:2][C:3]1([H:8])[C:4]([H:9])([H:10])[C:5]([H:11])=[C:6]([H:12])[C:7]1([H:13])[H:14]>>[H:8][H:10].[N:1]#[C:2][C:3]1=[C:4]([H:9])[C:5]([H:11])=[C:6]([H:12])[C:7]1([H:13])[H:14]"
N       -0.27262312       3.15413289      -1.12520748
C       -0.27746125       2.10378177      -0.65084646
C       -0.25359742       0.79579154      -0.09670306
C        0.93659984       0.26044226       0.55376424
C        0.95037898      -1.19310203       0.24821351
C       -0.19665463      -1.54845649      -0.32596525
C       -1.02960529      -0.35930002      -0.69833265
H       -0.29020517       0.79376226       1.54421623
H        1.86780687       0.81575051       0.47038096
H        0.53403162       0.31251567       2.05600788
H        1.71309000      -1.86635611       0.61500771
H       -0.50656473      -2.56771937      -0.51734489
H       -1.13219083      -0.27526091      -1.78516046
H       -2.04300487      -0.42598196      -0.28803029
14
Frame=10 idx=011202 GeodesicLength=1.0017576049162098 rxn_smarts="[N:1]#[C:2][C:3]1([H:8])[C:4]([H:9])([H:10])[C:5]([H:11])=[C:6]([H:12])[C:7]1([H:13])[H:14]>>[H:8][H:10].[N:1]#[C:2][C:3]1=[C:4]([H:9])[C:5]([H:11])=[C:6]([H:12])[C:7]1([H:13])[H:14]"
N       -0.26559460       3.14656080      -1.13372524
C       -0.27327729       2.10175719      -0.64854665
C       -0.25040874       0.79549492      -0.08309193
C        0.94763192       0.25787816       0.54928384
C        0.96107938      -1.19329299       0.23451268
C       -0.19392828      -1.54902352      -0.32377927
C       -1.02519375      -0.35751223      -0.69203463
H       -0.33551852       0.80108050       1.56267983
H        1.87764361       0.81225978       0.44832099
H        0.50874283       0.31041062       2.05682172
H        1.72391087      -1.86841214       0.59795080
H       -0.50984405      -2.56764923      -0.50807743
H       -1.12669942      -0.26911717      -1.77854459
H       -2.03854394      -0.42043470      -0.28177013
14
Frame=11 idx=011202 GeodesicLength=1.102316623929917 rxn_smarts="[N:1]#[C:2][C:3]1([H:8])[C:4]([H:9])([H:10])[C:5]([H:11])=[C:6]([H:12])[C:7]1([H:13])[H:14]>>[H:8][H:10].[N:1]#[C:2][C:3]1=[C:4]([H:9])[C:5]([H:11])=[C:6]([H:12])[C:7]1([H:13])[H:14]"
N       -0.25936392       3.13914804      -1.14036492
C       -0.26909971       2.09964422      -0.64519614
C       -0.24657300       0.79498999      -0.06871733
C        0.96002392       0.25505598       0.54372947
C        0.97163981      -1.19400027       0.22135662
C       -0.19104669      -1.54969061      -0.32136167
C       -1.02025969      -0.35559852      -0.68552995
H       -0.38353918       0.80822956       1.58095828
H        1.88852226       0.80805744       0.42331695
H        0.48274380       0.31032808       2.05590484
H        1.73407045      -1.87119022       0.58209883
H       -0.51298989      -2.56753507      -0.49886525
H       -1.12045018      -0.26269711      -1.77171075
H       -2.03367797      -0.41474151      -0.27561897
14
Frame=12 idx=011202 GeodesicLength=1.202648285227045 rxn_smarts="[N:1]#[C:2][C:3]1([H:8])[C:4]([H:9])([H:10])[C:5]([H:11])=[C:6]([H:12])[C:7]1([H:13])[H:14]>>[H:8][H:10].[N:1]#[C:2][C:3]1=[C:4]([H:9])[C:5]([H:11])=[C:6]([H:12])[C:7]1([H:13])[H:14]"
N       -0.25397153       3.13196836      -1.14499915
C       -0.26491196       2.09744047      -0.64072875
C       -0.24204068       0.79425144      -0.05353383
C        0.97380486       0.25197130       0.53706813
C        0.98209197      -1.19527457       0.20876681
C       -0.18801919      -1.55046980      -0.31866534
C       -1.01476702      -0.35355339      -0.67880362
H       -0.43437675       0.81514635       1.59892504
H        1.90035990       0.80309517       0.39519682
H        0.45601817       0.31242214       2.05322396
H        1.74361831      -1.87473938       0.56745966
H       -0.51604588      -2.56738157      -0.48967033
H       -1.11337592      -0.25599855      -1.76464445
H       -2.02838427      -0.40887796      -0.26959495
14
Frame=13 idx=011202 GeodesicLength=1.302664788436371 rxn_smarts="[N:1]#[C:2][C:3]1([H:8])[C:4]([H:9])([H:10])[C:5]([H:11])=[C:6]([H:12])[C:7]1([H:13])[H:14]>>[H:8][H:10].[N:1]#[C:2][C:3]1=[C:4]([H:9])[C:5]([H:11])=[C:6]([H:12])[C:7]1([H:13])[H:14]"
N       -0.24937766       3.12504343      -1.14755530
C       -0.26071010       2.09515392      -0.63509304
C       -0.23677710       0.79326201      -0.03751628
C        0.98896290       0.24862333       0.52928249
C        0.99246358      -1.19712842       0.19675380
C       -0.18484098      -1.55136227      -0.31566627
C       -1.00869878      -0.35137278      -0.67183599
H       -0.48806019       0.82176107       1.61644946
H        1.91301939       0.79733803       0.36385630
H        0.42854822       0.31676937       2.04877347
H        1.75260380      -1.87904777       0.55402180
H       -0.51902990      -2.56719059      -0.48046285
H       -1.10545579      -0.24901893      -1.75732379
H       -2.02264738      -0.40283040      -0.26368380
14
Frame=14 idx=011202 GeodesicLength=1.4023494190338348 rxn_smarts="[N:1]#[C:2][C:3]1([H:8])[C:4]([H:9])([H:10])[C:5]([H:11])=[C:6]([H:12])[C:7]1([H:13])[H:14]>>[H:8][H:10].[N:1]#[C:2][C:3]1=[C:4]([H:9])[C:5]([H:11])=[C:6]([H:12])[C:7]1([H:13])[H:14]"
N       -0.24557061       3.11843014      -1.14800626
C       -0.25646003       2.09278012      -0.62827575
C       -0.23075045       0.79200621      -0.02065595
C        1.00545527       0.24502456       0.52039588
C        1.00278706      -1.19956955       0.18530627
C       -0.18151801      -1.55236754      -0.31232435
C       -1.00204275      -0.34905274      -0.66460974
H       -0.54455479       0.82804635       1.63333954
H        1.92630523       0.79076918       0.32927413
H        0.40033249       0.32335356       2.04263879
H        1.76112006      -1.88411939       0.54170418
H       -0.52197636      -2.56695695      -0.47117839
H       -1.09666980      -0.24176797      -1.74973075
H       -2.01645731      -0.39657599      -0.25787761
14
Frame=15 idx=011202 GeodesicLength=1.501758764307653 rxn_smarts="[N:1]#[C:2][C:3]1([H:8])[C:4]([H:9])([H:10])[C:5]([H:11])=[C:6]([H:12])[C:7]1([H:13])[H:14]>>[H:8][H:10].[N:1]#[C:2][C:3]1=[C:4]([H:9])[C:5]([H:11])=[C:6]([H:12])[C:7]1([H:13])[H:14]"
N       -0.24246866       3.11213867      -1.14639718
C       -0.25213310       2.09032317      -0.62028872
C       -0.22394108       0.79047674      -0.00296943
C        1.02319370       0.24119183       0.51045115
C        1.01309320      -1.20257562       0.17439399
C       -0.17804873      -1.55347548      -0.30861750
C       -0.99480698      -0.34659169      -0.65710293
H       -0.60373523       0.83400024       1.64939941
H        1.93996332       0.78338913       0.29152534
H        0.37137143       0.33205368       2.03495723
H        1.76926361      -1.88989493       0.53039280
H       -0.52489370      -2.56667630      -0.46176773
H       -1.08704514      -0.23425953      -1.74184062
H       -2.00981264      -0.39009991      -0.25213583
14
Frame=16 idx=011202 GeodesicLength=1.601029714331036 rxn_smarts="[N:1]#[C:2][C:3]1([H:8])[C:4]([H:9])([H:10])[C:5]([H:11])=[C:6]([H:12])[C:7]1([H:13])[H:14]>>[H:8][H:10].[N:1]#[C:2][C:3]1=[C:4]([H:9])[C:5]([H:11])=[C:6]([H:12])[C:7]1([H:13])[H:14]"
N       -0.23996347       3.10615814      -1.14284379
C       -0.24770175       2.08779165      -0.61117062
C       -0.21634006       0.78867276       0.01550599
C        1.04205733       0.23714965       0.49951576
C        1.02341381      -1.20610158       0.16396041
C       -0.17442911      -1.55466944      -0.30453442
C       -0.98701408      -0.34398888      -0.64929237
H       -0.66540530       0.83966458       1.66440186
H        1.95370247       0.77522604       0.25079271
H        0.34167420       0.34264105       2.02593659
H        1.77715110      -1.89630312       0.51992706
H       -0.52778551      -2.56633835      -0.45217131
H       -1.07664064      -0.22651097      -1.73362793
H       -2.00271898      -0.38339153      -0.24639994
