10
Frame=0 idx=002242 GeodesicLength=0.0 rxn_smarts="[O:1]([C:2]([C:3](=[O:4])[C:5]#[C:6][H:10])([H:8])[H:9])[H:7]>>[O:1]([C:2]([O+:4]=[C-:3][C:5]#[C:6][H:10])([H:8])[H:9])[H:7]"
O       -2.47048981      -0.55287343       0.08506532
C       -1.53747521       0.27764990      -0.33650280
C        0.52582328       0.11498364      -0.12798406
O       -0.05875248      -1.00829285      -0.19464031
C        1.88833407       0.12765724       0.35322728
C        3.01420812       0.32696212       0.73274032
H       -2.49286056      -1.34122770      -0.46977930
H       -1.51365172       1.16075429       0.28406061
H       -1.36651640       0.40717960      -1.39597252
H        4.01138070       0.48720720       1.06978547
10
Frame=1 idx=002242 GeodesicLength=0.042373790548509774 rxn_smarts="[O:1]([C:2]([C:3](=[O:4])[C:5]#[C:6][H:10])([H:8])[H:9])[H:7]>>[O:1]([C:2]([O+:4]=[C-:3][C:5]#[C:6][H:10])([H:8])[H:9])[H:7]"
O       -2.47015615      -0.55331012       0.07775848
C       -1.52900823       0.27667738      -0.33831848
C        0.50854731       0.12203521      -0.08229623
O       -0.05899597      -1.00426018      -0.19817557
C        1.89093337       0.12999136       0.33428599
C        3.01465987       0.32450571       0.72198874
H       -2.47177944      -1.35317847      -0.46052550
H       -1.52531575       1.16832580       0.27203240
H       -1.36786020       0.41522260      -1.39913221
H        4.00897519       0.47399071       1.07238239
10
Frame=2 idx=002242 GeodesicLength=0.0847586567195544 rxn_smarts="[O:1]([C:2]([C:3](=[O:4])[C:5]#[C:6][H:10])([H:8])[H:9])[H:7]>>[O:1]([C:2]([O+:4]=[C-:3][C:5]#[C:6][H:10])([H:8])[H:9])[H:7]"
O       -2.47488824      -0.55380387       0.05836890
C       -1.52044436       0.27546276      -0.34039825
C        0.48696400       0.12546322      -0.01407892
O       -0.06148705      -1.00150572      -0.18570944
C        1.88894466       0.13744730       0.32608192
C        3.01824814       0.32436889       0.70063321
H       -2.45077788      -1.36418378      -0.46312353
H       -1.54226840       1.17444232       0.26046033
H       -1.35650545       0.42354546      -1.40045258
H        4.01221457       0.45876340       1.05821835
10
Frame=3 idx=002242 GeodesicLength=0.12725908122731253 rxn_smarts="[O:1]([C:2]([C:3](=[O:4])[C:5]#[C:6][H:10])([H:8])[H:9])[H:7]>>[O:1]([C:2]([O+:4]=[C-:3][C:5]#[C:6][H:10])([H:8])[H:9])[H:7]"
O       -2.48112452      -0.55140613       0.03299216
C       -1.50883735       0.27446123      -0.34147876
C        0.46413753       0.11898274       0.06366876
O       -0.06650241      -1.00418834      -0.16760640
C        1.88236650       0.14284021       0.32216644
C        3.01916146       0.32260051       0.67664421
H       -2.43272403      -1.37087032      -0.47206101
H       -1.55433729       1.17886392       0.25159431
H       -1.33585110       0.43358305      -1.39945536
H        4.01371120       0.45513313       1.03353565
10
Frame=4 idx=002242 GeodesicLength=0.1704719712874109 rxn_smarts="[O:1]([C:2]([C:3](=[O:4])[C:5]#[C:6][H:10])([H:8])[H:9])[H:7]>>[O:1]([C:2]([O+:4]=[C-:3][C:5]#[C:6][H:10])([H:8])[H:9])[H:7]"
O       -2.48604630      -0.54741145       0.00559781
C       -1.49438567       0.27317437      -0.34209956
C        0.44090479       0.10580561       0.14230677
O       -0.07170638      -1.01019316      -0.14872612
C        1.86981183       0.15211048       0.32324681
C        3.01423077       0.32701217       0.65438613
H       -2.41551280      -1.37551579      -0.48215069
H       -1.56073359       1.18202465       0.24392489
H       -1.31040242       0.44384972      -1.39738710
H        4.01383977       0.44914339       1.00090106
10
Frame=5 idx=002242 GeodesicLength=0.21462820912041536 rxn_smarts="[O:1]([C:2]([C:3](=[O:4])[C:5]#[C:6][H:10])([H:8])[H:9])[H:7]>>[O:1]([C:2]([O+:4]=[C-:3][C:5]#[C:6][H:10])([H:8])[H:9])[H:7]"
O       -2.48847526      -0.54092830      -0.01927183
C       -1.47712606       0.27190877      -0.34215495
C        0.41937878       0.08560855       0.21273251
O       -0.07685054      -1.01977561      -0.13550981
C        1.85343911       0.16007682       0.32692797
C        3.00448973       0.33268884       0.63499517
H       -2.40066893      -1.37741138      -0.48929812
H       -1.55852283       1.18441587       0.23806252
H       -1.28498382       0.45465163      -1.39494517
H        4.00931981       0.44876482       0.96846171
10
Frame=6 idx=002242 GeodesicLength=0.2596400385996033 rxn_smarts="[O:1]([C:2]([C:3](=[O:4])[C:5]#[C:6][H:10])([H:8])[H:9])[H:7]>>[O:1]([C:2]([O+:4]=[C-:3][C:5]#[C:6][H:10])([H:8])[H:9])[H:7]"
O       -2.48866766      -0.53246158      -0.04083812
C       -1.45799929       0.27065502      -0.34207691
C        0.39972651       0.06048437       0.27330535
O       -0.08165578      -1.03161931      -0.12855693
C        1.83467635       0.16575131       0.33368133
C        2.99115287       0.33885634       0.61975761
H       -2.38805754      -1.37726858      -0.49275458
H       -1.54920572       1.18632632       0.23349859
H       -1.26146944       0.46570921      -1.39283709
H        4.00149971       0.45356691       0.93682074
10
Frame=7 idx=002242 GeodesicLength=0.30534833168173364 rxn_smarts="[O:1]([C:2]([C:3](=[O:4])[C:5]#[C:6][H:10])([H:8])[H:9])[H:7]>>[O:1]([C:2]([O+:4]=[C-:3][C:5]#[C:6][H:10])([H:8])[H:9])[H:7]"
O       -2.48703441      -0.52310511      -0.05966438
C       -1.43792331       0.26927685      -0.34224421
C        0.38136454       0.03306756       0.32544985
O       -0.08560887      -1.04404853      -0.12649054
C        1.81428298       0.17106291       0.34345163
C        2.97508215       0.34683970       0.60882667
H       -2.37656448      -1.37637129      -0.49267349
H       -1.53540347       1.18784643       0.22951494
H       -1.24024039       0.47667326      -1.39143258
H        3.99204527       0.45875822       0.90526211
10
Frame=8 idx=002242 GeodesicLength=0.35166149383171713 rxn_smarts="[O:1]([C:2]([C:3](=[O:4])[C:5]#[C:6][H:10])([H:8])[H:9])[H:7]>>[O:1]([C:2]([O+:4]=[C-:3][C:5]#[C:6][H:10])([H:8])[H:9])[H:7]"
O       -2.48429451      -0.51255177      -0.07701567
C       -1.41693371       0.26783298      -0.34265369
C        0.36380599       0.00313075       0.37163604
O       -0.08941381      -1.05737475      -0.12742676
C        1.79281202       0.17405235       0.35667665
C        2.95704711       0.35521357       0.60158448
H       -2.36656115      -1.37429755      -0.49056268
H       -1.51778039       1.18901363       0.22617781
H       -1.21994158       0.48768866      -1.39045959
H        3.98126003       0.46729213       0.87204341
10
Frame=9 idx=002242 GeodesicLength=0.39856695785837976 rxn_smarts="[O:1]([C:2]([C:3](=[O:4])[C:5]#[C:6][H:10])([H:8])[H:9])[H:7]>>[O:1]([C:2]([O+:4]=[C-:3][C:5]#[C:6][H:10])([H:8])[H:9])[H:7]"
O       -2.48049734      -0.50175590      -0.09409075
C       -1.39535790       0.26615928      -0.34348466
C        0.34632158      -0.02763727       0.41393255
O       -0.09263501      -1.07061925      -0.12952825
C        1.77007179       0.17672031       0.37453726
C        2.93654768       0.36756051       0.59939566
H       -2.35687054      -1.37194106      -0.48742887
H       -1.49820230       1.18970152       0.22303431
H       -1.19982228       0.49856324      -1.38989605
H        3.97044432       0.47324861       0.83352881
10
Frame=10 idx=002242 GeodesicLength=0.4456919396334208 rxn_smarts="[O:1]([C:2]([C:3](=[O:4])[C:5]#[C:6][H:10])([H:8])[H:9])[H:7]>>[O:1]([C:2]([O+:4]=[C-:3][C:5]#[C:6][H:10])([H:8])[H:9])[H:7]"
O       -2.47562593      -0.49005549      -0.10764647
C       -1.37355875       0.26455726      -0.34463815
C        0.33049317      -0.05930151       0.44827993
O       -0.09535908      -1.08377855      -0.13626866
C        1.74831316       0.17682158       0.39056316
C        2.91639375       0.37574224       0.59809260
H       -2.34862116      -1.36881909      -0.47994326
H       -1.47537369       1.19034351       0.22030199
H       -1.18306704       0.50946858      -1.39018606
H        3.95640557       0.48502147       0.80144491
10
Frame=11 idx=002242 GeodesicLength=0.49305662902442987 rxn_smarts="[O:1]([C:2]([C:3](=[O:4])[C:5]#[C:6][H:10])([H:8])[H:9])[H:7]>>[O:1]([C:2]([O+:4]=[C-:3][C:5]#[C:6][H:10])([H:8])[H:9])[H:7]"
O       -2.46966391      -0.47885055      -0.11830908
C       -1.35206412       0.26281170      -0.34622571
C        0.31597256      -0.08995034       0.47613000
O       -0.09686089      -1.09566205      -0.14637312
C        1.72718135       0.17765604       0.40461834
C        2.89612331       0.38556403       0.59648938
H       -2.34039368      -1.36618060      -0.46850753
H       -1.45129717       1.19068018       0.21766845
H       -1.16972214       0.52026724      -1.39128880
H        3.94072471       0.49366437       0.77579808
10
Frame=12 idx=002242 GeodesicLength=0.540709598400105 rxn_smarts="[O:1]([C:2]([C:3](=[O:4])[C:5]#[C:6][H:10])([H:8])[H:9])[H:7]>>[O:1]([C:2]([O+:4]=[C-:3][C:5]#[C:6][H:10])([H:8])[H:9])[H:7]"
O       -2.46305535      -0.46758070      -0.12731825
C       -1.33058834       0.26096676      -0.34824388
C        0.30228726      -0.12049174       0.49945027
O       -0.09790993      -1.10703687      -0.15843286
C        1.70649117       0.17747554       0.41817309
C        2.87560706       0.39565665       0.59550864
H       -2.33263116      -1.36332788      -0.45455481
H       -1.42585267       1.19070889       0.21517216
H       -1.15822686       0.53108950      -1.39289580
H        3.92387881       0.50253985       0.75314144
10
Frame=13 idx=002242 GeodesicLength=0.5886952947125914 rxn_smarts="[O:1]([C:2]([C:3](=[O:4])[C:5]#[C:6][H:10])([H:8])[H:9])[H:7]>>[O:1]([C:2]([O+:4]=[C-:3][C:5]#[C:6][H:10])([H:8])[H:9])[H:7]"
O       -2.45595523      -0.45619163      -0.13496941
C       -1.30912887       0.25901714      -0.35065624
C        0.28934178      -0.15097138       0.51888753
O       -0.09871279      -1.11804411      -0.17198870
C        1.68626923       0.17610504       0.43097148
C        2.85504728       0.40576288       0.59375291
H       -2.32531673      -1.36016465      -0.43826214
H       -1.39918652       1.19039503       0.21284940
H       -1.14823246       0.54199930      -1.39484304
H        3.90587431       0.51209238       0.73425822
10
Frame=14 idx=002242 GeodesicLength=0.6370754276720836 rxn_smarts="[O:1]([C:2]([C:3](=[O:4])[C:5]#[C:6][H:10])([H:8])[H:9])[H:7]>>[O:1]([C:2]([O+:4]=[C-:3][C:5]#[C:6][H:10])([H:8])[H:9])[H:7]"
O       -2.44847038      -0.44460224      -0.14161719
C       -1.28762329       0.25694044      -0.35342791
C        0.27699384      -0.18151740       0.53511223
O       -0.09949343      -1.12889141      -0.18654853
C        1.66649734       0.17323002       0.44313551
C        2.83439869       0.41600782       0.59052352
H       -2.31847121      -1.35652894      -0.41997457
H       -1.37136643       1.18969027       0.21072487
H       -1.13926712       0.55303565      -1.39696405
H        3.88680199       0.52263578       0.71903612
10
Frame=15 idx=002242 GeodesicLength=0.6859162537179033 rxn_smarts="[O:1]([C:2]([C:3](=[O:4])[C:5]#[C:6][H:10])([H:8])[H:9])[H:7]>>[O:1]([C:2]([O+:4]=[C-:3][C:5]#[C:6][H:10])([H:8])[H:9])[H:7]"
O       -2.44068558      -0.43264038      -0.14704206
C       -1.26605175       0.25470886      -0.35649529
C        0.26536861      -0.21233174       0.54813175
O       -0.10052461      -1.13984839      -0.20210777
C        1.64741946       0.16836775       0.45377211
C        2.81386674       0.42628571       0.58369939
H       -2.31229614      -1.35219018      -0.39947259
H       -1.34218147       1.18857387       0.20883990
H       -1.13134155       0.56418066      -1.39914834
H        3.86642629       0.53489385       0.70982290
10
Frame=16 idx=002242 GeodesicLength=0.7351397492956495 rxn_smarts="[O:1]([C:2]([C:3](=[O:4])[C:5]#[C:6][H:10])([H:8])[H:9])[H:7]>>[O:1]([C:2]([O+:4]=[C-:3][C:5]#[C:6][H:10])([H:8])[H:9])[H:7]"
O       -2.43263596      -0.42038008      -0.15182659
C       -1.24439866       0.25232954      -0.35990699
C        0.25417225      -0.24319858       0.55867274
O       -0.10188193      -1.15088778      -0.21808848
C        1.62894880       0.16146397       0.46386846
C        2.79321634       0.43595142       0.57553064
H       -2.30661699      -1.34708255      -0.37746972
H       -1.31199773       1.18702750       0.20708756
H       -1.12393901       0.57547471      -1.40132282
H        3.84513289       0.54930186       0.70345519
