11
Frame=0 idx=005347 GeodesicLength=0.0 rxn_smarts="[C:1]([C:2](=[O:3])[C:4]([C:5]#[N:6])([H:10])[H:11])([H:7])([H:8])[H:9]>>[C:1]([C@@:2]1([C:5]#[N:6])[O:3][C:4]1([H:10])[H:11])([H:7])([H:8])[H:9]"
C       -1.25581063       0.29716294      -0.42587939
C       -0.10378366      -0.14041070       0.48395558
O       -0.41416172      -0.62531501       1.63797714
C        0.95271359      -0.96351222      -0.09298347
C        0.96893500       1.04121972       0.40936439
N        1.79311152       1.84829068       0.36903934
H       -1.91341464      -0.55996968      -0.56817087
H       -0.89251727       0.66162847      -1.38834271
H       -1.81214987       1.08595663       0.07514400
H        0.96914727      -1.35300593      -1.11133134
H        1.70793046      -1.29204495       0.61122728
11
Frame=1 idx=005347 GeodesicLength=0.06718270607546657 rxn_smarts="[C:1]([C:2](=[O:3])[C:4]([C:5]#[N:6])([H:10])[H:11])([H:7])([H:8])[H:9]>>[C:1]([C@@:2]1([C:5]#[N:6])[O:3][C:4]1([H:10])[H:11])([H:7])([H:8])[H:9]"
C       -1.26027711       0.30173710      -0.42691433
C       -0.11258721      -0.13873023       0.48155149
O       -0.40922551      -0.67121362       1.61734558
C        0.95725775      -0.95598009      -0.08058320
C        0.98277418       1.03863283       0.40179795
N        1.79009596       1.86200325       0.36460258
H       -1.92481250      -0.55028320      -0.56657114
H       -0.89811077       0.66107992      -1.39169051
H       -1.80540778       1.09903998       0.07349793
H        0.96095572      -1.36538148      -1.09091974
H        1.71933726      -1.28090445       0.61788338
11
Frame=2 idx=005347 GeodesicLength=0.13434585552823397 rxn_smarts="[C:1]([C:2](=[O:3])[C:4]([C:5]#[N:6])([H:10])[H:11])([H:7])([H:8])[H:9]>>[C:1]([C@@:2]1([C:5]#[N:6])[O:3][C:4]1([H:10])[H:11])([H:7])([H:8])[H:9]"
C       -1.26457970       0.30613201      -0.42757226
C       -0.12126469      -0.13736121       0.47980706
O       -0.40461810      -0.71647458       1.59545715
C        0.96163424      -0.94843926      -0.06829309
C        0.99669327       1.03599810       0.39395695
N        1.78665631       1.87551237       0.36003326
H       -1.93630516      -0.54051344      -0.56434728
H       -0.90371805       0.66004049      -1.39481473
H       -1.79826805       1.11217961       0.07171718
H        0.95359513      -1.37675025      -1.07045332
H        1.73017479      -1.27032384       0.62450908
11
Frame=3 idx=005347 GeodesicLength=0.20148105954948936 rxn_smarts="[C:1]([C:2](=[O:3])[C:4]([C:5]#[N:6])([H:10])[H:11])([H:7])([H:8])[H:9]>>[C:1]([C@@:2]1([C:5]#[N:6])[O:3][C:4]1([H:10])[H:11])([H:7])([H:8])[H:9]"
C       -1.26871845       0.31032746      -0.42785755
C       -0.12982681      -0.13631484       0.47867942
O       -0.40033616      -0.76100176       1.57234947
C        0.96582502      -0.94089031      -0.05610084
C        1.01067332       1.03333847       0.38582594
N        1.78285966       1.88874439       0.35535092
H       -1.94786541      -0.53069764      -0.56151190
H       -0.90934769       0.65851156      -1.39769434
H       -1.79072651       1.12531559       0.06981873
H        0.94707086      -1.38706869      -1.05003133
H        1.74039219      -1.26026424       0.63117148
11
Frame=4 idx=005347 GeodesicLength=0.26863720915553174 rxn_smarts="[C:1]([C:2](=[O:3])[C:4]([C:5]#[N:6])([H:10])[H:11])([H:7])([H:8])[H:9]>>[C:1]([C@@:2]1([C:5]#[N:6])[O:3][C:4]1([H:10])[H:11])([H:7])([H:8])[H:9]"
C       -1.27276401       0.31433905      -0.42780159
C       -0.13829804      -0.13560991       0.47814198
O       -0.39634661      -0.80478765       1.54810823
C        0.96987889      -0.93337780      -0.04398512
C        1.02475226       1.03061114       0.37733611
N        1.77876619       1.90170183       0.35062864
H       -1.95961501      -0.52077850      -0.55804888
H       -0.91507788       0.65647391      -1.40040156
H       -1.78282541       1.13845530       0.06778248
H        0.94147630      -1.39629700      -1.02973366
H        1.75005331      -1.25073037       0.63797335
11
Frame=5 idx=005347 GeodesicLength=0.33578049891629924 rxn_smarts="[C:1]([C:2](=[O:3])[C:4]([C:5]#[N:6])([H:10])[H:11])([H:7])([H:8])[H:9]>>[C:1]([C@@:2]1([C:5]#[N:6])[O:3][C:4]1([H:10])[H:11])([H:7])([H:8])[H:9]"
C       -1.27665319       0.31817804      -0.42737298
C       -0.14673064      -0.13528904       0.47816853
O       -0.39264666      -0.84780677       1.52269367
C        0.97378246      -0.92593982      -0.03187955
C        1.03883400       1.02781422       0.36862990
N        1.77417225       1.91425248       0.34558410
H       -1.97144556      -0.51072460      -0.55394317
H       -0.92081217       0.65394677      -1.40283644
H       -1.77446560       1.15162591       0.06563764
H        0.93688846      -1.40432386      -1.00970510
H        1.75907666      -1.24173332       0.64502341
11
Frame=6 idx=005347 GeodesicLength=0.40288267274956596 rxn_smarts="[C:1]([C:2](=[O:3])[C:4]([C:5]#[N:6])([H:10])[H:11])([H:7])([H:8])[H:9]>>[C:1]([C@@:2]1([C:5]#[N:6])[O:3][C:4]1([H:10])[H:11])([H:7])([H:8])[H:9]"
C       -1.28041631       0.32180521      -0.42660001
C       -0.15510016      -0.13531803       0.47868615
O       -0.38918363      -0.88990670       1.49614359
C        0.97746751      -0.91855093      -0.01981581
C        1.05291691       1.02496446       0.35953221
N        1.76933462       1.92639520       0.34054369
H       -1.98336920      -0.50059245      -0.54921618
H       -0.92665365       0.65087523      -1.40503211
H       -1.76566156       1.16470952       0.06341456
H        0.93327528      -1.41124926      -0.98996024
H        1.76739018      -1.23313225       0.65230415
11
Frame=7 idx=005347 GeodesicLength=0.4700118253280243 rxn_smarts="[C:1]([C:2](=[O:3])[C:4]([C:5]#[N:6])([H:10])[H:11])([H:7])([H:8])[H:9]>>[C:1]([C@@:2]1([C:5]#[N:6])[O:3][C:4]1([H:10])[H:11])([H:7])([H:8])[H:9]"
C       -1.28413101       0.32526016      -0.42550857
C       -0.16347805      -0.13575594       0.47969622
O       -0.38596950      -0.93116864       1.46857019
C        0.98104232      -0.91126522      -0.00770880
C        1.06704166       1.02203394       0.35013873
N        1.76422859       1.93805020       0.33527642
H       -1.99548587      -0.49032352      -0.54387875
H       -0.93261757       0.64734926      -1.40703607
H       -1.75650472       1.17774605       0.06108714
H        0.93074051      -1.41692120      -0.97064816
H        1.77513365      -1.22500508       0.66001165
11
Frame=8 idx=005347 GeodesicLength=0.53715115610506 rxn_smarts="[C:1]([C:2](=[O:3])[C:4]([C:5]#[N:6])([H:10])[H:11])([H:7])([H:8])[H:9]>>[C:1]([C@@:2]1([C:5]#[N:6])[O:3][C:4]1([H:10])[H:11])([H:7])([H:8])[H:9]"
C       -1.28778329       0.32854661      -0.42409936
C       -0.17186025      -0.13662805       0.48115412
O       -0.38298299      -0.97159706       1.43991824
C        0.98447232      -0.90406850       0.00445347
C        1.08115435       1.01903712       0.34046320
N        1.75884770       1.94920167       0.32979823
H       -2.00780444      -0.47988129      -0.53788583
H       -0.93870906       0.64332652      -1.40884226
H       -1.74692434       1.19074796       0.05866658
H        0.92933315      -1.42141412      -0.95178942
H        1.78225686      -1.21727085       0.66816303
11
Frame=9 idx=005347 GeodesicLength=0.6043722594221838 rxn_smarts="[C:1]([C:2](=[O:3])[C:4]([C:5]#[N:6])([H:10])[H:11])([H:7])([H:8])[H:9]>>[C:1]([C@@:2]1([C:5]#[N:6])[O:3][C:4]1([H:10])[H:11])([H:7])([H:8])[H:9]"
C       -1.29138981       0.33165879      -0.42239328
C       -0.18029070      -0.13792439       0.48299619
O       -0.38014723      -1.01118423       1.41019840
C        0.98776606      -0.89696147       0.01670865
C        1.09527444       1.01593352       0.33050476
N        1.75321357       1.95983928       0.32414037
H       -2.02034179      -0.46923369      -0.53124545
H       -0.94496393       0.63878783      -1.41044254
H       -1.73686934       1.20366339       0.05613221
H        0.92899182      -1.42471345      -0.93344352
H        1.78875691      -1.20986559       0.67684421
11
Frame=10 idx=005347 GeodesicLength=0.6715859212208818 rxn_smarts="[C:1]([C:2](=[O:3])[C:4]([C:5]#[N:6])([H:10])[H:11])([H:7])([H:8])[H:9]>>[C:1]([C@@:2]1([C:5]#[N:6])[O:3][C:4]1([H:10])[H:11])([H:7])([H:8])[H:9]"
C       -1.29497100       0.33461427      -0.42039914
C       -0.18877524      -0.13966247       0.48519603
O       -0.37746529      -1.04989723       1.37944422
C        0.99091679      -0.88997564       0.02906448
C        1.10937722       1.01271653       0.32022943
N        1.74735781       1.96994259       0.31829775
H       -2.03309061      -0.45837340      -0.52394343
H       -0.95139703       0.63376478      -1.41184998
H       -1.72639781       1.21649384       0.05349926
H        0.92980819      -1.42681517      -0.91562751
H        1.79463697      -1.20280811       0.68608890
11
Frame=11 idx=005347 GeodesicLength=0.7388847593193937 rxn_smarts="[C:1]([C:2](=[O:3])[C:4]([C:5]#[N:6])([H:10])[H:11])([H:7])([H:8])[H:9]>>[C:1]([C@@:2]1([C:5]#[N:6])[O:3][C:4]1([H:10])[H:11])([H:7])([H:8])[H:9]"
C       -1.29854337       0.33741347      -0.41811849
C       -0.19737329      -0.14190623       0.48774757
O       -0.37490922      -1.08773945       1.34759595
C        0.99393844      -0.88308609       0.04159773
C        1.12345644       1.00938883       0.30980474
N        1.74127375       1.97939982       0.31204092
H       -2.04606589      -0.44727381      -0.51601332
H       -0.95799883       0.62831179      -1.41304025
H       -1.71548690       1.22920855       0.05080287
H        0.93182366      -1.42767086      -0.89843211
H        1.79988520      -1.19604602       0.69601439
11
Frame=12 idx=005347 GeodesicLength=0.8061652001698068 rxn_smarts="[C:1]([C:2](=[O:3])[C:4]([C:5]#[N:6])([H:10])[H:11])([H:7])([H:8])[H:9]>>[C:1]([C@@:2]1([C:5]#[N:6])[O:3][C:4]1([H:10])[H:11])([H:7])([H:8])[H:9]"
C       -1.30210682       0.34006373      -0.41558908
C       -0.20604329      -0.14463384       0.49054116
O       -0.37243892      -1.12475765       1.31469282
C        0.99680404      -0.87629250       0.05429682
C        1.13749663       1.00594456       0.29913080
N        1.73502639       1.98830711       0.30554295
H       -2.05924664      -0.43591994      -0.50740667
H       -0.96482475       0.62240375      -1.41404542
H       -1.70411155       1.24178631       0.04801903
H        0.93495315      -1.42737220      -0.88180216
H        1.80449176      -1.18952932       0.70661975
11
Frame=13 idx=005347 GeodesicLength=0.8735146810966925 rxn_smarts="[C:1]([C:2](=[O:3])[C:4]([C:5]#[N:6])([H:10])[H:11])([H:7])([H:8])[H:9]>>[C:1]([C@@:2]1([C:5]#[N:6])[O:3][C:4]1([H:10])[H:11])([H:7])([H:8])[H:9]"
C       -1.30570656       0.34258033      -0.41280937
C       -0.21487033      -0.14787233       0.49360350
O       -0.36999585      -1.16092596       1.28070448
C        0.99952712      -0.86960308       0.06720905
C        1.15153156       1.00235313       0.28832207
N        1.72863301       1.99659004       0.29860191
H       -2.07265824      -0.42429906      -0.49819893
H       -0.97187349       0.61613178      -1.41484445
H       -1.69232608       1.25418192       0.04519127
H        0.93928303      -1.42587670      -0.86578625
H        1.80845583      -1.18326008       0.71800671
11
Frame=14 idx=005347 GeodesicLength=0.9409807817108721 rxn_smarts="[C:1]([C:2](=[O:3])[C:4]([C:5]#[N:6])([H:10])[H:11])([H:7])([H:8])[H:9]>>[C:1]([C@@:2]1([C:5]#[N:6])[O:3][C:4]1([H:10])[H:11])([H:7])([H:8])[H:9]"
C       -1.30932525       0.34496895      -0.40977798
C       -0.22390111      -0.15166965       0.49690491
O       -0.36752461      -1.19623371       1.24556668
C        1.00208301      -0.86300211       0.08038057
C        1.16554392       0.99860955       0.27757826
N        1.72203051       2.00418005       0.29093824
H       -2.08622064      -0.41241788      -0.48844778
H       -0.97909594       0.60959681      -1.41538005
H       -1.68011322       1.26635158       0.04238091
H        0.94481000      -1.42314426      -0.85036875
H        1.81171333      -1.17723933       0.73022498
11
Frame=15 idx=005347 GeodesicLength=1.008394539654485 rxn_smarts="[C:1]([C:2](=[O:3])[C:4]([C:5]#[N:6])([H:10])[H:11])([H:7])([H:8])[H:9]>>[C:1]([C@@:2]1([C:5]#[N:6])[O:3][C:4]1([H:10])[H:11])([H:7])([H:8])[H:9]"
C       -1.31296697       0.34723483      -0.40651975
C       -0.23307680      -0.15596716       0.50036075
O       -0.36498349      -1.23062187       1.20929937
C        1.00443566      -0.85649726       0.09378272
C        1.17950503       0.99468355       0.26664834
N        1.71532948       2.01115706       0.28287991
H       -2.09986184      -0.40028973      -0.47810726
H       -0.98656479       0.60276472      -1.41566379
H       -1.66751761       1.27825921       0.03956099
H        0.95144039      -1.41932771      -0.83549433
H        1.81426093      -1.17139564       0.74325304
11
Frame=16 idx=005347 GeodesicLength=1.0758765591642436 rxn_smarts="[C:1]([C:2](=[O:3])[C:4]([C:5]#[N:6])([H:10])[H:11])([H:7])([H:8])[H:9]>>[C:1]([C@@:2]1([C:5]#[N:6])[O:3][C:4]1([H:10])[H:11])([H:7])([H:8])[H:9]"
C       -1.31668637       0.34938557      -0.40305008
C       -0.24248702      -0.16083309       0.50398197
O       -0.36230331      -1.26410906       1.17190226
C        1.00659014      -0.85007225       0.10746457
C        1.19348808       0.99057464       0.25579682
N        1.70858766       2.01747591       0.27407118
H       -2.11361757      -0.38795367      -0.46731914
H       -0.99426498       0.59581530      -1.41569861
H       -1.65460407       1.28983453       0.03682748
H        0.95921039      -1.41436405      -0.82114638
H        1.81608705      -1.16575382       0.75716994
