14
Frame=0 idx=000178 GeodesicLength=0.0 rxn_smarts="[C:1]([C:2]([O:3][C:4]([C:5](=[O:6])[H:14])([H:12])[H:13])([H:10])[H:11])([H:7])([H:8])[H:9]>>[C:1](=[C:2]([H:10])[H:11])([H:8])[H:9].[O:3]([C:4]([C:5](=[O:6])[H:14])([H:12])[H:13])[H:7]"
C       -2.03817380      -0.31275958      -0.73383702
C       -0.87752828      -1.06495478      -0.49667652
O       -0.19056849       0.20513811       0.76388242
C        0.93617143       0.94706226       0.40419143
C        2.20592145       0.20341421       0.75502830
O        3.26232519       0.38549444       0.21792604
H       -1.29355932       0.43004608       0.17101526
H       -2.96646304      -0.63366304      -0.27815050
H       -2.12048886       0.22608924      -1.67000195
H       -0.87627300      -1.89859951       0.19350259
H       -0.04379845      -1.03913599      -1.19067326
H        0.95513196       1.89360566       0.96072296
H        0.96311544       1.19920989      -0.66688536
H        2.08418775      -0.54094699       1.56995563
14
Frame=1 idx=000178 GeodesicLength=0.07188803354439545 rxn_smarts="[C:1]([C:2]([O:3][C:4]([C:5](=[O:6])[H:14])([H:12])[H:13])([H:10])[H:11])([H:7])([H:8])[H:9]>>[C:1](=[C:2]([H:10])[H:11])([H:8])[H:9].[O:3]([C:4]([C:5](=[O:6])[H:14])([H:12])[H:13])[H:7]"
C       -2.05757369      -0.33358532      -0.71770333
C       -0.85972029      -1.03890615      -0.51917693
O       -0.19924468       0.25476453       0.74463190
C        0.95456601       0.95845134       0.39824543
C        2.19636984       0.18302331       0.77972644
O        3.26522850       0.32344411       0.25477130
H       -1.31679499       0.46204715       0.15835892
H       -2.95415173      -0.68977975      -0.22521439
H       -2.20039644       0.18138789      -1.66031030
H       -0.80997071      -1.88453577       0.15513154
H       -0.05870954      -0.98667308      -1.24962981
H        0.99032981       1.90942197       0.94610587
H        1.00743439       1.20042228      -0.67394495
H        2.04263353      -0.53948252       1.60900830
14
Frame=2 idx=000178 GeodesicLength=0.1421787041556336 rxn_smarts="[C:1]([C:2]([O:3][C:4]([C:5](=[O:6])[H:14])([H:12])[H:13])([H:10])[H:11])([H:7])([H:8])[H:9]>>[C:1](=[C:2]([H:10])[H:11])([H:8])[H:9].[O:3]([C:4]([C:5](=[O:6])[H:14])([H:12])[H:13])[H:7]"
C       -2.07478969      -0.35441233      -0.70000548
C       -0.84284227      -1.01189579      -0.54335795
O       -0.20669017       0.30446605       0.72292560
C        0.97316563       0.96873461       0.39112625
C        2.18539645       0.16364038       0.80543422
O        3.26585287       0.26242936       0.29499050
H       -1.34118030       0.49239588       0.14784793
H       -2.93647102      -0.74524218      -0.17204562
H       -2.27763952       0.13544831      -1.64518877
H       -0.74424486      -1.86763834       0.11319085
H       -0.07755020      -0.93380817      -1.30922630
H        1.02520374       1.92429830       0.92915155
H        1.05278149       1.19832209      -0.68177051
H        1.99900784      -0.53673817       1.64692774
14
Frame=3 idx=000178 GeodesicLength=0.21155668446059206 rxn_smarts="[C:1]([C:2]([O:3][C:4]([C:5](=[O:6])[H:14])([H:12])[H:13])([H:10])[H:11])([H:7])([H:8])[H:9]>>[C:1](=[C:2]([H:10])[H:11])([H:8])[H:9].[O:3]([C:4]([C:5](=[O:6])[H:14])([H:12])[H:13])[H:7]"
C       -2.08962625      -0.37533190      -0.68099340
C       -0.82689766      -0.98400157      -0.56920326
O       -0.21298508       0.35449629       0.69892038
C        0.99196987       0.97815033       0.38304494
C        2.17281640       0.14520887       0.83196755
O        3.26383249       0.20198456       0.33780374
H       -1.36668869       0.52097283       0.13996953
H       -2.91327619      -0.79993208      -0.11877413
H       -2.35177347       0.08798158      -1.62523367
H       -0.67937692      -1.84810479       0.06761718
H       -0.10017029      -0.88052483      -1.36922116
H        1.06014325       1.93842023       0.91037785
H        1.09896872       1.19330473      -0.69012814
H        1.95306382      -0.53262424       1.68385260
14
Frame=4 idx=000178 GeodesicLength=0.28091078726095614 rxn_smarts="[C:1]([C:2]([O:3][C:4]([C:5](=[O:6])[H:14])([H:12])[H:13])([H:10])[H:11])([H:7])([H:8])[H:9]>>[C:1](=[C:2]([H:10])[H:11])([H:8])[H:9].[O:3]([C:4]([C:5](=[O:6])[H:14])([H:12])[H:13])[H:7]"
C       -2.10233443      -0.39668408      -0.66011986
C       -0.81181934      -0.95458553      -0.59777431
O       -0.21801950       0.40539234       0.67185864
C        1.01140177       0.98667894       0.37378486
C        2.15831853       0.12761282       0.86029035
O        3.25887372       0.14050092       0.38429316
H       -1.39304868       0.54805818       0.13446781
H       -2.88360209      -0.85470409      -0.06379879
H       -2.42470312       0.03772077      -1.59978024
H       -0.61432413      -1.82567209       0.01637661
H       -0.12738905      -0.82500837      -1.43106942
H        1.09576686       1.95199608       0.88918782
H        1.14713277       1.18484108      -0.69915483
H        1.90374670      -0.52614698       1.72143819
14
Frame=5 idx=000178 GeodesicLength=0.34986760145406715 rxn_smarts="[C:1]([C:2]([O:3][C:4]([C:5](=[O:6])[H:14])([H:12])[H:13])([H:10])[H:11])([H:7])([H:8])[H:9]>>[C:1](=[C:2]([H:10])[H:11])([H:8])[H:9].[O:3]([C:4]([C:5](=[O:6])[H:14])([H:12])[H:13])[H:7]"
C       -2.11234944      -0.41851348      -0.63746682
C       -0.79749273      -0.92336494      -0.62937311
O       -0.22181216       0.45726244       0.64142324
C        1.03124900       0.99414801       0.36342836
C        2.14138973       0.11073807       0.89035844
O        3.24972952       0.07675429       0.43403450
H       -1.42004949       0.57324437       0.13157682
H       -2.84619108      -0.90894094      -0.00708248
H       -2.49608437      -0.01590376      -1.56842609
H       -0.54889909      -1.80000542      -0.04145211
H       -0.15945949      -0.76672696      -1.49457569
H        1.13214107       1.96453949       0.86570862
H        1.19681185       1.17268114      -0.70842179
H        1.85101669      -0.51591231       1.76026811
14
Frame=6 idx=000178 GeodesicLength=0.4186799260480455 rxn_smarts="[C:1]([C:2]([O:3][C:4]([C:5](=[O:6])[H:14])([H:12])[H:13])([H:10])[H:11])([H:7])([H:8])[H:9]>>[C:1](=[C:2]([H:10])[H:11])([H:8])[H:9].[O:3]([C:4]([C:5](=[O:6])[H:14])([H:12])[H:13])[H:7]"
C       -2.11922270      -0.44073169      -0.61320525
C       -0.78417431      -0.89050987      -0.66313702
O       -0.22442469       0.51088517       0.60769948
C        1.05152491       1.00086685       0.35189327
C        2.12158805       0.09450889       0.92129105
O        3.23641467       0.01241809       0.48737938
H       -1.44767692       0.59608244       0.13280730
H       -2.80121771      -0.96284307       0.04977386
H       -2.56399264      -0.07274895      -1.53148358
H       -0.48420382      -1.77086036      -0.10461211
H       -0.19610136      -0.70640190      -1.55825116
H        1.16997586       1.97627532       0.84001736
H        1.24772895       1.15696062      -0.71797609
H        1.79378170      -0.50390153       1.79780351
14
Frame=7 idx=000178 GeodesicLength=0.4872912368556406 rxn_smarts="[C:1]([C:2]([O:3][C:4]([C:5](=[O:6])[H:14])([H:12])[H:13])([H:10])[H:11])([H:7])([H:8])[H:9]>>[C:1](=[C:2]([H:10])[H:11])([H:8])[H:9].[O:3]([C:4]([C:5](=[O:6])[H:14])([H:12])[H:13])[H:7]"
C       -2.12233819      -0.46347550      -0.58756745
C       -0.77180348      -0.85613618      -0.69898063
O       -0.22584124       0.56643253       0.57047806
C        1.07195153       1.00686183       0.33916140
C        2.09833536       0.07898523       0.95285641
O        3.21748371      -0.05368313       0.54325930
H       -1.47547610       0.61565151       0.13939673
H       -2.74805359      -1.01646368       0.10581554
H       -2.62711340      -0.13165757      -1.48870816
H       -0.42047075      -1.73833906      -0.17333891
H       -0.23726893      -0.64428153      -1.62156026
H        1.20933741       1.98703657       0.81216257
H        1.29923416       1.13762224      -0.72767271
H        1.73202350      -0.48855327       1.83469812
14
Frame=8 idx=000178 GeodesicLength=0.5560101623763747 rxn_smarts="[C:1]([C:2]([O:3][C:4]([C:5](=[O:6])[H:14])([H:12])[H:13])([H:10])[H:11])([H:7])([H:8])[H:9]>>[C:1](=[C:2]([H:10])[H:11])([H:8])[H:9].[O:3]([C:4]([C:5](=[O:6])[H:14])([H:12])[H:13])[H:7]"
C       -2.12123030      -0.48674067      -0.56021095
C       -0.76043713      -0.82008067      -0.73667442
O       -0.22602348       0.62492786       0.52885409
C        1.09258619       1.01224995       0.32494036
C        2.07078545       0.06404899       0.98476312
O        3.19249189      -0.12051926       0.60310639
H       -1.50255081       0.63161862       0.15225281
H       -2.68592580      -1.06991505       0.16089921
H       -2.68486968      -0.19313926      -1.43974589
H       -0.35779629      -1.70193860      -0.24748557
H       -0.28327914      -0.58025456      -1.68399830
H        1.25087439       1.99668858       0.78186152
H        1.35151628       1.11439091      -0.73753984
H        1.66385842      -0.47133683       1.86897747
14
Frame=9 idx=000178 GeodesicLength=0.6248693996976684 rxn_smarts="[C:1]([C:2]([O:3][C:4]([C:5](=[O:6])[H:14])([H:12])[H:13])([H:10])[H:11])([H:7])([H:8])[H:9]>>[C:1](=[C:2]([H:10])[H:11])([H:8])[H:9].[O:3]([C:4]([C:5](=[O:6])[H:14])([H:12])[H:13])[H:7]"
C       -2.11494165      -0.51029562      -0.53179894
C       -0.74976892      -0.78297292      -0.77552283
O       -0.22519647       0.68629716       0.48306645
C        1.11264519       1.01731652       0.30979189
C        2.03816314       0.04961417       1.01587609
O        3.15915950      -0.18960624       0.66361347
H       -1.52731154       0.64327487       0.17192336
H       -2.61468632      -1.12174765       0.21398671
H       -2.73505488      -0.25649990      -1.38562693
H       -0.29687739      -1.66212446      -0.32585271
H       -0.33314252      -0.51613406      -1.74439044
H        1.29407277       2.00474515       0.75090892
H        1.40288273       1.08862830      -0.74685226
H        1.59005637      -0.45049533       1.90087721
14
Frame=10 idx=000178 GeodesicLength=0.6946864604919165 rxn_smarts="[C:1]([C:2]([O:3][C:4]([C:5](=[O:6])[H:14])([H:12])[H:13])([H:10])[H:11])([H:7])([H:8])[H:9]>>[C:1](=[C:2]([H:10])[H:11])([H:8])[H:9].[O:3]([C:4]([C:5](=[O:6])[H:14])([H:12])[H:13])[H:7]"
C       -2.10294159      -0.53378705      -0.50202181
C       -0.73979107      -0.74520980      -0.81517763
O       -0.22329942       0.75094403       0.43233759
C        1.13185790       1.02218176       0.29361625
C        1.99965288       0.03567476       1.04565523
O        3.11702630      -0.25934063       0.72559178
H       -1.54765977       0.65059069       0.19876241
H       -2.53400244      -1.17143640       0.26497791
H       -2.77694788      -0.32145764      -1.32610679
H       -0.23811274      -1.61910110      -0.40773929
H       -0.38678657      -0.45289163      -1.80226403
H        1.33880772       2.01096269       0.71970093
H        1.45312435       1.06056198      -0.75552305
H        1.50907233      -0.42769166       1.92819049
14
Frame=11 idx=000178 GeodesicLength=0.7663474368647181 rxn_smarts="[C:1]([C:2]([O:3][C:4]([C:5](=[O:6])[H:14])([H:12])[H:13])([H:10])[H:11])([H:7])([H:8])[H:9]>>[C:1](=[C:2]([H:10])[H:11])([H:8])[H:9].[O:3]([C:4]([C:5](=[O:6])[H:14])([H:12])[H:13])[H:7]"
C       -2.08472589      -0.55649855      -0.47117825
C       -0.73031190      -0.70787542      -0.85481247
O       -0.22047002       0.81800103       0.37715559
C        1.14934673       1.02697346       0.27699300
C        1.95495169       0.02223307       1.07295542
O        3.06543584      -0.32869539       0.78704392
H       -1.56110203       0.65419762       0.23172971
H       -2.44455519      -1.21718331       0.31343232
H       -2.80913756      -0.38701729      -1.26207213
H       -0.18228765      -1.57391346      -0.49122960
H       -0.44310183      -0.39297996      -1.85665398
H        1.38374234       2.01489627       0.69010648
H        1.50078166       1.03157235      -0.76295291
H        1.42143381      -0.40371043       1.94948290
14
Frame=12 idx=000178 GeodesicLength=0.8412219933178224 rxn_smarts="[C:1]([C:2]([O:3][C:4]([C:5](=[O:6])[H:14])([H:12])[H:13])([H:10])[H:11])([H:7])([H:8])[H:9]>>[C:1](=[C:2]([H:10])[H:11])([H:8])[H:9].[O:3]([C:4]([C:5](=[O:6])[H:14])([H:12])[H:13])[H:7]"
C       -2.06008703      -0.57756205      -0.43927606
C       -0.72117784      -0.67188546      -0.89372644
O       -0.21676790       0.88625748       0.31826057
C        1.16433930       1.03168735       0.26053529
C        1.90418848       0.00929045       1.09697635
O        3.00490065      -0.39569722       0.84701143
H       -1.56558209       0.65606814       0.26823687
H       -2.34698139      -1.25694701       0.35985893
H       -2.83095897      -0.45316592      -1.19413033
H       -0.12989919      -1.52753413      -0.57440182
H       -0.50129053      -0.33827533      -1.90692966
H        1.42728102       2.01619763       0.66376890
H        1.54476458       1.00287145      -0.76859924
H        1.32727092      -0.38130537       1.96241521
14
Frame=13 idx=000178 GeodesicLength=0.9202933002755511 rxn_smarts="[C:1]([C:2]([O:3][C:4]([C:5](=[O:6])[H:14])([H:12])[H:13])([H:10])[H:11])([H:7])([H:8])[H:9]>>[C:1](=[C:2]([H:10])[H:11])([H:8])[H:9].[O:3]([C:4]([C:5](=[O:6])[H:14])([H:12])[H:13])[H:7]"
C       -2.02971274      -0.59635052      -0.40745294
C       -0.71223321      -0.63854360      -0.93122098
O       -0.21249133       0.95279035       0.25867804
C        1.17599504       1.03614297       0.24553721
C        1.84894566      -0.00343217       1.11675751
O        2.93621018      -0.46098384       0.90088907
H       -1.56124951       0.65865425       0.30450713
H       -2.24389217      -1.28891038       0.40365173
H       -2.84212511      -0.51882362      -1.12442118
H       -0.08163599      -1.48173392      -0.65506403
H       -0.55956425      -0.29101505      -1.95251769
H        1.46716675       2.01463742       0.64324054
H        1.58332285       0.97642898      -0.77177662
H        1.23126382      -0.35886089       1.96919221
14
Frame=14 idx=000178 GeodesicLength=1.0042071228034295 rxn_smarts="[C:1]([C:2]([O:3][C:4]([C:5](=[O:6])[H:14])([H:12])[H:13])([H:10])[H:11])([H:7])([H:8])[H:9]>>[C:1](=[C:2]([H:10])[H:11])([H:8])[H:9].[O:3]([C:4]([C:5](=[O:6])[H:14])([H:12])[H:13])[H:7]"
C       -1.99440307      -0.61270702      -0.37615628
C       -0.70347571      -0.60813316      -0.96705312
O       -0.20770878       1.01596609       0.20030265
C        1.18420819       1.04006661       0.23251975
C        1.79056560      -0.01625175       1.13224386
O        2.86077130      -0.52461560       0.94731859
H       -1.54990879       0.66419004       0.33751550
H       -2.13669373      -1.31263622       0.44491896
H       -2.84324957      -0.58394041      -1.05381376
H       -0.03738496      -1.43711784      -0.73223734
H       -0.61728991      -0.25132214      -1.99333632
H        1.50231551       2.01022706       0.62913371
H        1.61621258       0.95276118      -0.77240700
H        1.13604133      -0.33648684       1.97105081
14
Frame=15 idx=000178 GeodesicLength=1.092891578996242 rxn_smarts="[C:1]([C:2]([O:3][C:4]([C:5](=[O:6])[H:14])([H:12])[H:13])([H:10])[H:11])([H:7])([H:8])[H:9]>>[C:1](=[C:2]([H:10])[H:11])([H:8])[H:9].[O:3]([C:4]([C:5](=[O:6])[H:14])([H:12])[H:13])[H:7]"
C       -1.95574828      -0.62610863      -0.34582672
C       -0.69511152      -0.58088201      -1.00041039
O       -0.20237471       1.07495766       0.14477441
C        1.18940833       1.04337561       0.22174696
C        1.73100092      -0.02944731       1.14323301
O        2.78272394      -0.58380826       0.98675819
H       -1.53456643       0.67467641       0.36521439
H       -2.02809656      -1.32694466       0.48412713
H       -2.83517154      -0.64903892      -0.98396827
H        0.00261334      -1.39431880      -0.80379558
H       -0.67349160      -0.21971343      -2.02897853
H        1.53237525       2.00331485       0.62158654
H        1.64377685       0.93220131      -0.77077065
H        1.04266203      -0.31826380       1.96630952
14
Frame=16 idx=000178 GeodesicLength=1.1862159985593757 rxn_smarts="[C:1]([C:2]([O:3][C:4]([C:5](=[O:6])[H:14])([H:12])[H:13])([H:10])[H:11])([H:7])([H:8])[H:9]>>[C:1](=[C:2]([H:10])[H:11])([H:8])[H:9].[O:3]([C:4]([C:5](=[O:6])[H:14])([H:12])[H:13])[H:7]"
C       -1.91461530      -0.63700347      -0.31692124
C       -0.68706017      -0.55663118      -1.03143954
O       -0.19655038       1.12946379       0.09278440
C        1.19199453       1.04599819       0.21309335
C        1.67117150      -0.04302357       1.15028904
O        2.70260480      -0.64017146       1.01850212
H       -1.51757877       0.68955535       0.38797412
H       -1.91939007      -1.33329972       0.52051100
H       -2.81893720      -0.71281483      -0.91536173
H        0.03899976      -1.35350428      -0.86990207
H       -0.72774801      -0.19540913      -2.05982454
H        1.55742445       1.99430777       0.61974184
H        1.66658286       0.91445984      -0.76727439
H        0.95310201      -0.30192729       1.95782763
