13
Frame=0 idx=004995 GeodesicLength=0.0 rxn_smarts="[C:1]1([H:7])([H:8])[C:2]([H:9])([H:10])[O:3][C:4]([H:11])=[N:5][C:6]1([H:12])[H:13]>>[C:1](=[C:2]([H:9])[H:10])([C:6]([N:5]([C:4](=[O:3])[H:11])[H:7])([H:12])[H:13])[H:8]"
C        0.52163129      -0.80060165       0.42171190
C       -0.54183956      -1.44441158      -0.17985289
O       -1.37568008       0.68811680      -0.94145305
C       -0.90724234       1.44177924      -0.07175010
N        0.35122145       1.41197373       0.38551407
C        1.16839174       0.38337974      -0.27242031
H       -0.05144084       0.05739926       1.13417679
H        1.04790531      -1.27914826       1.24645897
H       -0.72838126      -1.39514581      -1.23986645
H       -1.19111546      -2.08033216       0.41284282
H       -1.56298161       2.13763087       0.47060878
H        2.21397871       0.52428151      -0.00796085
H        1.05555261       0.35507826      -1.35800970
13
Frame=1 idx=004995 GeodesicLength=0.07070921789726281 rxn_smarts="[C:1]1([H:7])([H:8])[C:2]([H:9])([H:10])[O:3][C:4]([H:11])=[N:5][C:6]1([H:12])[H:13]>>[C:1](=[C:2]([H:9])[H:10])([C:6]([N:5]([C:4](=[O:3])[H:11])[H:7])([H:12])[H:13])[H:8]"
C        0.52010388      -0.80285189       0.42323614
C       -0.55136633      -1.43507781      -0.18141436
O       -1.39098815       0.67637049      -0.92475321
C       -0.90948574       1.44886774      -0.07551524
N        0.34711479       1.41318988       0.38145757
C        1.16585978       0.38216981      -0.27080816
H       -0.03904921       0.07442559       1.15714293
H        1.05655466      -1.29819711       1.23072337
H       -0.71098511      -1.40887267      -1.24729030
H       -1.19482194      -2.08226894       0.40524197
H       -1.56139028       2.15348670       0.45965650
H        2.20992874       0.52540941      -0.00103335
H        1.05852492       0.35334880      -1.35664386
13
Frame=2 idx=004995 GeodesicLength=0.14132757485931674 rxn_smarts="[C:1]1([H:7])([H:8])[C:2]([H:9])([H:10])[O:3][C:4]([H:11])=[N:5][C:6]1([H:12])[H:13]>>[C:1](=[C:2]([H:9])[H:10])([C:6]([N:5]([C:4](=[O:3])[H:11])[H:7])([H:12])[H:13])[H:8]"
C        0.51853870      -0.80521106       0.42477838
C       -0.56054042      -1.42600543      -0.18330350
O       -1.40631245       0.66483559      -0.90757256
C       -0.91176285       1.45577843      -0.07952658
N        0.34286774       1.41426571       0.37743156
C        1.16332034       0.38090861      -0.26910139
H       -0.02615712       0.09188840       1.17999312
H        1.06474063      -1.31717436       1.21458627
H       -0.69409002      -1.42222260      -1.25377019
H       -1.19824297      -2.08422813       0.39723685
H       -1.55982069       2.16907943       0.44832276
H        2.20580713       0.52652370       0.00609785
H        1.06165199       0.35156171      -1.35517257
13
Frame=3 idx=004995 GeodesicLength=0.21188626676374733 rxn_smarts="[C:1]1([H:7])([H:8])[C:2]([H:9])([H:10])[O:3][C:4]([H:11])=[N:5][C:6]1([H:12])[H:13]>>[C:1](=[C:2]([H:9])[H:10])([C:6]([N:5]([C:4](=[O:3])[H:11])[H:7])([H:12])[H:13])[H:8]"
C        0.51694192      -0.80768974       0.42635025
C       -0.56935325      -1.41721368      -0.18551497
O       -1.42166914       0.65348102      -0.88986132
C       -0.91408256       1.46248897      -0.08377617
N        0.33847186       1.41519239       0.37344551
C        1.16076861       0.37959244      -0.26728861
H       -0.01274952       0.10982601       1.20274537
H        1.07250346      -1.33608345       1.19802677
H       -0.67765704      -1.43520655      -1.25941851
H       -1.20144203      -2.08615099       0.38885202
H       -1.55827036       2.18441867       0.43658598
H        2.20160586       0.52762550       0.01343544
H        1.06493219       0.34971940      -1.35358178
13
Frame=4 idx=004995 GeodesicLength=0.2824069014310057 rxn_smarts="[C:1]1([H:7])([H:8])[C:2]([H:9])([H:10])[O:3][C:4]([H:11])=[N:5][C:6]1([H:12])[H:13]>>[C:1](=[C:2]([H:9])[H:10])([C:6]([N:5]([C:4](=[O:3])[H:11])[H:7])([H:12])[H:13])[H:8]"
C        0.51531786      -0.81029848       0.42795750
C       -0.57780178      -1.40871647      -0.18804705
O       -1.43707189       0.64228108      -0.87156790
C       -0.91645320       1.46897857      -0.08825818
N        0.33391935       1.41596240       0.36950709
C        1.15819976       0.37821688      -0.26535995
H        0.00119572       0.12827768       1.22541602
H        1.07987179      -1.35492383       1.18103608
H       -0.66165586      -1.44782934      -1.26433753
H       -1.20446902      -2.08799868       0.38010697
H       -1.55673639       2.19951117       0.42442246
H        2.19731910       0.52871379       0.02098383
H        1.06836455       0.34782523      -1.35185934
13
Frame=5 idx=004995 GeodesicLength=0.3529107740020948 rxn_smarts="[C:1]1([H:7])([H:8])[C:2]([H:9])([H:10])[O:3][C:4]([H:11])=[N:5][C:6]1([H:12])[H:13]>>[C:1](=[C:2]([H:9])[H:10])([C:6]([N:5]([C:4](=[O:3])[H:11])[H:7])([H:12])[H:13])[H:8]"
C        0.51366885      -0.81304908       0.42960105
C       -0.58588896      -1.40052352      -0.19090286
O       -1.45253504       0.63121356      -0.85263575
C       -0.91888063       1.47522979      -0.09296921
N        0.32920480       1.41656942       0.36562163
C        1.15560979       0.37677657      -0.26330728
H        0.01570147       0.14728758       1.24801593
H        1.08686309      -1.37368922       1.16362279
H       -0.64605905      -1.46009264      -1.26862152
H       -1.20736004      -2.08975117       0.37101255
H       -1.55521497       2.21436268       0.41181291
H        2.19294175       0.52978370       0.02874498
H        1.07194894       0.34588231      -1.34999521
13
Frame=6 idx=004995 GeodesicLength=0.42340453879549494 rxn_smarts="[C:1]1([H:7])([H:8])[C:2]([H:9])([H:10])[O:3][C:4]([H:11])=[N:5][C:6]1([H:12])[H:13]>>[C:1](=[C:2]([H:9])[H:10])([C:6]([N:5]([C:4](=[O:3])[H:11])[H:7])([H:12])[H:13])[H:8]"
C        0.51198808      -0.81594782       0.43130117
C       -0.59362471      -1.39263413      -0.19407561
O       -1.46807496       0.62025502      -0.83299520
C       -0.92136933       1.48122565      -0.09791232
N        0.32432272       1.41700771       0.36179591
C        1.15299522       0.37526472      -0.26111471
H        0.03080114       0.16691822       1.27055448
H        1.09348628      -1.39237427       1.14575339
H       -0.63084584      -1.47198624      -1.27236386
H       -1.21013617      -2.09142116       0.36157606
H       -1.55369805       2.22897807       0.39872049
H        2.18846652       0.53082874       0.03673114
H        1.07568912       0.34388551      -1.34797093
13
Frame=7 idx=004995 GeodesicLength=0.493893484582586 rxn_smarts="[C:1]1([H:7])([H:8])[C:2]([H:9])([H:10])[O:3][C:4]([H:11])=[N:5][C:6]1([H:12])[H:13]>>[C:1](=[C:2]([H:9])[H:10])([C:6]([N:5]([C:4](=[O:3])[H:11])[H:7])([H:12])[H:13])[H:8]"
C        0.51027404      -0.81900668       0.43305917
C       -0.60102000      -1.38504997      -0.19756922
O       -1.48370377       0.60938976      -0.81257415
C       -0.92392329       1.48694800      -0.10308806
N        0.31926859       1.41726896       0.35803513
C        1.15035183       0.37367428      -0.25877248
H        0.04652749       0.18722202       1.29303391
H        1.09974412      -1.41096487       1.12743909
H       -0.61600016      -1.48349768      -1.27564806
H       -1.21281325      -2.09302025       0.35179635
H       -1.55217912       2.24336010       0.38511390
H        2.18388642       0.53184101       0.04494838
H        1.07958709       0.34183530      -1.34577396
13
Frame=8 idx=004995 GeodesicLength=0.5643790696335754 rxn_smarts="[C:1]1([H:7])([H:8])[C:2]([H:9])([H:10])[O:3][C:4]([H:11])=[N:5][C:6]1([H:12])[H:13]>>[C:1](=[C:2]([H:9])[H:10])([C:6]([N:5]([C:4](=[O:3])[H:11])[H:7])([H:12])[H:13])[H:8]"
C        0.50852120      -0.82223852       0.43488249
C       -0.60809257      -1.37776625      -0.20138278
O       -1.49943621       0.59860376      -0.79128107
C       -0.92654820       1.49237509      -0.10850129
N        0.31403627       1.41734781       0.35434640
C        1.14767659       0.37199698      -0.25626605
H        0.06292028       0.20826005       1.31545533
H        1.10563189      -1.42944538       1.10867681
H       -0.60151203      -1.49460205      -1.27855431
H       -1.21539478      -2.09458168       0.34166245
H       -1.55064750       2.25751021       0.37094268
H        2.17919833       0.53281117       0.05340673
H        1.08364675       0.33972882      -1.34338739
13
Frame=9 idx=004995 GeodesicLength=0.6347713298489526 rxn_smarts="[C:1]1([H:7])([H:8])[C:2]([H:9])([H:10])[O:3][C:4]([H:11])=[N:5][C:6]1([H:12])[H:13]>>[C:1](=[C:2]([H:9])[H:10])([C:6]([N:5]([C:4](=[O:3])[H:11])[H:7])([H:12])[H:13])[H:8]"
C        0.50669747      -0.82564281       0.43677119
C       -0.61485531      -1.37079272      -0.20554807
O       -1.51529160       0.58785863      -0.76898148
C       -0.92925410       1.49748291      -0.11411047
N        0.30863351       1.41725065       0.35070990
C        1.14495616       0.37021812      -0.25360511
H        0.08002185       0.23007954       1.33777348
H        1.11111449      -1.44775401       1.08963478
H       -0.58734335      -1.50526802      -1.28119903
H       -1.21786778      -2.09617594       0.33110638
H       -1.54906137       2.27146616       0.35618831
H        2.17440344       0.53371364       0.06207721
H        1.08784659       0.33756386      -1.34081709
13
Frame=10 idx=004995 GeodesicLength=0.7051549805111068 rxn_smarts="[C:1]1([H:7])([H:8])[C:2]([H:9])([H:10])[O:3][C:4]([H:11])=[N:5][C:6]1([H:12])[H:13]>>[C:1](=[C:2]([H:9])[H:10])([C:6]([N:5]([C:4](=[O:3])[H:11])[H:7])([H:12])[H:13])[H:8]"
C        0.50482396      -0.82924770       0.43872613
C       -0.62133485      -1.36409922      -0.21003341
O       -1.53126412       0.57716437      -0.74559786
C       -0.93204070       1.50224231      -0.11996739
N        0.30303757       1.41695204       0.34716265
C        1.14219827       0.36833906      -0.25075300
H        0.09786990       0.25276270       1.36000884
H        1.11621751      -1.46594262       1.07017053
H       -0.57353047      -1.51546028      -1.28361179
H       -1.22024126      -2.09779944       0.32015709
H       -1.54744623       2.28518459       0.34075052
H        2.16949173       0.53455899       0.07101241
H        1.09221868       0.33534520      -1.33802473
13
Frame=11 idx=004995 GeodesicLength=0.7755252064236119 rxn_smarts="[C:1]1([H:7])([H:8])[C:2]([H:9])([H:10])[O:3][C:4]([H:11])=[N:5][C:6]1([H:12])[H:13]>>[C:1](=[C:2]([H:9])[H:10])([C:6]([N:5]([C:4](=[O:3])[H:11])[H:7])([H:12])[H:13])[H:8]"
C        0.50289626      -0.83306804       0.44074248
C       -0.62755351      -1.35766967      -0.21483748
O       -1.54735481       0.56650626      -0.72101899
C       -0.93491422       1.50662026      -0.12607982
N        0.29724058       1.41644207       0.34371338
C        1.13940242       0.36635399      -0.24769639
H        0.11650790       0.27637395       1.38214783
H        1.12092829      -1.48400383       1.05029944
H       -0.56007723      -1.52513967      -1.28586077
H       -1.22251392      -2.09948106       0.30879053
H       -1.54579590       2.29864942       0.32456808
H        2.16446187       0.53533968       0.08022660
H        1.09677230       0.33307665      -1.33499489
13
Frame=12 idx=004995 GeodesicLength=0.8458907320486995 rxn_smarts="[C:1]1([H:7])([H:8])[C:2]([H:9])([H:10])[O:3][C:4]([H:11])=[N:5][C:6]1([H:12])[H:13]>>[C:1](=[C:2]([H:9])[H:10])([C:6]([N:5]([C:4](=[O:3])[H:11])[H:7])([H:12])[H:13])[H:8]"
C        0.50091111      -0.83711848       0.44280657
C       -0.63353709      -1.35148396      -0.21996168
O       -1.56354757       0.55587390      -0.69516287
C       -0.93787983       1.51058181      -0.13245522
N        0.29123957       1.41571656       0.34036008
C        1.13656872       0.36425608      -0.24442408
H        0.13597818       0.30098844       1.40417242
H        1.12523760      -1.50193198       1.03005243
H       -0.54698899      -1.53427484      -1.28801034
H       -1.22469168      -2.10123222       0.29698448
H       -1.54411939       2.31182188       0.30761626
H        2.15930998       0.53604293       0.08973338
H        1.10151938       0.33075988      -1.33171143
13
Frame=13 idx=004995 GeodesicLength=0.9162345441690208 rxn_smarts="[C:1]1([H:7])([H:8])[C:2]([H:9])([H:10])[O:3][C:4]([H:11])=[N:5][C:6]1([H:12])[H:13]>>[C:1](=[C:2]([H:9])[H:10])([C:6]([N:5]([C:4](=[O:3])[H:11])[H:7])([H:12])[H:13])[H:8]"
C        0.49886342      -0.84141799       0.44491072
C       -0.63931317      -1.34551867      -0.22540676
O       -1.57983376       0.54525821      -0.66788307
C       -0.94094650       1.51407684      -0.13910672
N        0.28502520       1.41476462       0.33710957
C        1.13370146       0.36203879      -0.24091894
H        0.15634041       0.32668746       1.42604799
H        1.12911933      -1.51971875       1.00945495
H       -0.53428123      -1.54280488      -1.29013142
H       -1.22677286      -2.10308080       0.28470257
H       -1.54242006       2.32465814       0.28982176
H        2.15403790       0.53666147       0.09955405
H        1.10647986       0.32839555      -1.32815472
13
Frame=14 idx=004995 GeodesicLength=0.986556258489938 rxn_smarts="[C:1]1([H:7])([H:8])[C:2]([H:9])([H:10])[O:3][C:4]([H:11])=[N:5][C:6]1([H:12])[H:13]>>[C:1](=[C:2]([H:9])[H:10])([C:6]([N:5]([C:4](=[O:3])[H:11])[H:7])([H:12])[H:13])[H:8]"
C        0.49675157      -0.84598674       0.44703856
C       -0.64491182      -1.33974663      -0.23116965
O       -1.59618408       0.53465327      -0.63905657
C       -0.94412586       1.51705023      -0.14603434
N        0.27858877       1.41357800       0.33397001
C        1.13080281       0.35969669      -0.23716143
H        0.17764456       0.35355942       1.44773821
H        1.13256205      -1.53737027       0.98852000
H       -0.52197250      -1.55067725      -1.29228556
H       -1.22876470      -2.10503555       0.27191502
H       -1.54070834       2.33710227       0.27111276
H        2.14864528       0.53718606       0.10971360
H        1.11167226       0.32599051      -1.32430061
13
Frame=15 idx=004995 GeodesicLength=1.0568363893483803 rxn_smarts="[C:1]1([H:7])([H:8])[C:2]([H:9])([H:10])[O:3][C:4]([H:11])=[N:5][C:6]1([H:12])[H:13]>>[C:1](=[C:2]([H:9])[H:10])([C:6]([N:5]([C:4](=[O:3])[H:11])[H:7])([H:12])[H:13])[H:8]"
C        0.49457385      -0.85084396       0.44917020
C       -0.65036537      -1.33413349      -0.23725135
O       -1.61254689       0.52406349      -0.60857748
C       -0.94743053       1.51943795      -0.15324428
N        0.27192412       1.41214916       0.33094044
C        1.12787995       0.35722432      -0.23313510
H        0.19994464       0.38169980       1.46918981
H        1.13554761      -1.55489173       0.96728118
H       -0.51008221      -1.55784159      -1.29453376
H       -1.23068890      -2.10708349       0.25859510
H       -1.53901557       2.34906379       0.25145674
H        2.14313564       0.53760814       0.12023605
H        1.11712363       0.32354761      -1.32012754
13
Frame=16 idx=004995 GeodesicLength=1.1270659219922765 rxn_smarts="[C:1]1([H:7])([H:8])[C:2]([H:9])([H:10])[O:3][C:4]([H:11])=[N:5][C:6]1([H:12])[H:13]>>[C:1](=[C:2]([H:9])[H:10])([C:6]([N:5]([C:4](=[O:3])[H:11])[H:7])([H:12])[H:13])[H:8]"
C        0.49232902      -0.85601323       0.45128280
C       -0.65570966      -1.32863918      -0.24364962
O       -1.62885759       0.51349532      -0.57633562
C       -0.95087769       1.52116402      -0.16073355
N        0.26502332       1.41046914       0.32802613
C        1.12494236       0.35461701      -0.22881773
H        0.22330169       0.41122309       1.49033676
H        1.13805663      -1.57229853       0.94575876
H       -0.49863493      -1.56424242      -1.29693471
H       -1.23257506      -2.10920477       0.24471483
H       -1.53738101       2.36043642       0.23080792
H        2.13751631       0.53791961       0.13115277
H        1.12286660       0.32107351      -1.31560875
