14
Frame=0 idx=005407 GeodesicLength=0.0 rxn_smarts="[C:1]([C:2]1=[C:3]([H:10])[C:4]([H:11])([H:12])[O:5][C:6]1([H:13])[H:14])([H:7])([H:8])[H:9]>>[C:1](/[C:2](=[C:3](/[C:4][H:11])[H:10])[C:6]([O:5][H:12])([H:13])[H:14])([H:7])([H:8])[H:9]"
C       -1.82804112       0.31097566      -0.48536172
C       -0.38650273       0.14801716      -0.13980208
C        0.62721724       0.97670406      -0.39078260
C        1.95307416       0.55807587       0.01380471
O        1.47770543      -0.83855089       0.90397334
C        0.10274099      -1.09791441       0.53974318
H       -2.16965503      -0.47095133      -1.17123669
H       -2.00818731       1.27436380      -0.96196541
H       -2.45922124       0.25143837       0.40701067
H        0.50912574       1.92906678      -0.89682809
H        2.42977833       1.17239194       0.77746217
H        2.11605115      -0.88870859       0.06702278
H       -0.44474647      -1.34704341       1.45416220
H        0.08066085      -1.97786501      -0.11720249
14
Frame=1 idx=005407 GeodesicLength=0.05676189896617688 rxn_smarts="[C:1]([C:2]1=[C:3]([H:10])[C:4]([H:11])([H:12])[O:5][C:6]1([H:13])[H:14])([H:7])([H:8])[H:9]>>[C:1](/[C:2](=[C:3](/[C:4][H:11])[H:10])[C:6]([O:5][H:12])([H:13])[H:14])([H:7])([H:8])[H:9]"
C       -1.82963209       0.31160174      -0.48491382
C       -0.38812331       0.14860279      -0.13953069
C        0.62668248       0.97550438      -0.39175644
C        1.94930276       0.55459334       0.02374343
O        1.47871257      -0.83627307       0.89774473
C        0.10248483      -1.09661951       0.53982085
H       -2.17160222      -0.47066436      -1.17021746
H       -2.00957986       1.27476923      -0.96205170
H       -2.46054410       0.25270596       0.40767230
H        0.51261370       1.92447137      -0.90482674
H        2.42307522       1.17084778       0.78785026
H        2.13170775      -0.88831365       0.05578960
H       -0.44241568      -1.34371564       1.45647074
H        0.07731795      -1.97751035      -0.11579506
14
Frame=2 idx=005407 GeodesicLength=0.11352435138908068 rxn_smarts="[C:1]([C:2]1=[C:3]([H:10])[C:4]([H:11])([H:12])[O:5][C:6]1([H:13])[H:14])([H:7])([H:8])[H:9]>>[C:1](/[C:2](=[C:3](/[C:4][H:11])[H:10])[C:6]([O:5][H:12])([H:13])[H:14])([H:7])([H:8])[H:9]"
C       -1.83123391       0.31222157      -0.48449955
C       -0.38977781       0.14919737      -0.13918532
C        0.62612503       0.97431052      -0.39261162
C        1.94549919       0.55096917       0.03340046
O        1.47959764      -0.83402583       0.89168191
C        0.10215894      -1.09533881       0.53995732
H       -2.17349891      -0.47037277      -1.16927456
H       -2.01096080       1.27517689      -0.96216369
H       -2.46194250       0.25393930       0.40825299
H        0.51608957       1.91989403      -0.91254061
H        2.41655404       1.16907774       0.79788162
H        2.14760460      -0.88746628       0.04467216
H       -0.44020761      -1.34043946       1.45877985
H        0.07399254      -1.97714343      -0.11435096
14
Frame=3 idx=005407 GeodesicLength=0.17028555725448768 rxn_smarts="[C:1]([C:2]1=[C:3]([H:10])[C:4]([H:11])([H:12])[O:5][C:6]1([H:13])[H:14])([H:7])([H:8])[H:9]>>[C:1](/[C:2](=[C:3](/[C:4][H:11])[H:10])[C:6]([O:5][H:12])([H:13])[H:14])([H:7])([H:8])[H:9]"
C       -1.83284640       0.31283606      -0.48411565
C       -0.39146545       0.14979898      -0.13876778
C        0.62554564       0.97311716      -0.39335248
C        1.94166799       0.54720588       0.04279018
O        1.48036214      -0.83181423       0.88577901
C        0.10176174      -1.09407225       0.54015032
H       -2.17535043      -0.47007396      -1.16840257
H       -2.01232973       1.27558596      -0.96229731
H       -2.46341218       0.25514177       0.40875669
H        0.51955529       1.91532164      -0.91999384
H        2.41020700       1.16708733       0.80757780
H        2.16374933      -0.88615935       0.03365875
H       -0.43812088      -1.33721138       1.46108851
H        0.07067594      -1.97676360      -0.11287162
14
Frame=4 idx=005407 GeodesicLength=0.22705119266069063 rxn_smarts="[C:1]([C:2]1=[C:3]([H:10])[C:4]([H:11])([H:12])[O:5][C:6]1([H:13])[H:14])([H:7])([H:8])[H:9]>>[C:1](/[C:2](=[C:3](/[C:4][H:11])[H:10])[C:6]([O:5][H:12])([H:13])[H:14])([H:7])([H:8])[H:9]"
C       -1.83447597       0.31347114      -0.48371913
C       -0.39318473       0.15040833      -0.13827636
C        0.62494478       0.97193254      -0.39396545
C        1.93780423       0.54334432       0.05199996
O        1.48100543      -0.82965707       0.88003173
C        0.10129968      -1.09284174       0.54036363
H       -2.17719793      -0.46973979      -1.16754550
H       -2.01369024       1.27602748      -0.96240589
H       -2.46493545       0.25634947       0.40924744
H        0.52307055       1.91059882      -0.92748072
H        2.40394824       1.16491447       0.81708180
H        2.18017546      -0.88434516       0.02275226
H       -0.43615736      -1.33409523       1.46334899
H        0.06739329      -1.97636756      -0.11143276
14
Frame=5 idx=005407 GeodesicLength=0.28382119696556146 rxn_smarts="[C:1]([C:2]1=[C:3]([H:10])[C:4]([H:11])([H:12])[O:5][C:6]1([H:13])[H:14])([H:7])([H:8])[H:9]>>[C:1](/[C:2](=[C:3](/[C:4][H:11])[H:10])[C:6]([O:5][H:12])([H:13])[H:14])([H:7])([H:8])[H:9]"
C       -1.83612367       0.31413590      -0.48329326
C       -0.39493278       0.15101827      -0.13772336
C        0.62432279       0.97075651      -0.39444614
C        1.93390634       0.53940052       0.06107073
O        1.48152680      -0.82756218       0.87443071
C        0.10077351      -1.09165513       0.54057849
H       -2.17906866      -0.46936095      -1.16667243
H       -2.01504119       1.27650925      -0.96247179
H       -2.46649528       0.25758667       0.40975320
H        0.52666189       1.90565153      -0.93511230
H        2.39773670       1.16257448       0.82646038
H        2.19690360      -0.88199007       0.01194929
H       -0.43431810      -1.33110801       1.46553816
H        0.06414805      -1.97595680      -0.11006168
14
Frame=6 idx=005407 GeodesicLength=0.3405950147201187 rxn_smarts="[C:1]([C:2]1=[C:3]([H:10])[C:4]([H:11])([H:12])[O:5][C:6]1([H:13])[H:14])([H:7])([H:8])[H:9]>>[C:1](/[C:2](=[C:3](/[C:4][H:11])[H:10])[C:6]([O:5][H:12])([H:13])[H:14])([H:7])([H:8])[H:9]"
C       -1.83778409       0.31480991      -0.48287648
C       -0.39671415       0.15163853      -0.13708836
C        0.62368073       0.96957895      -0.39481548
C        1.92998775       0.53533617       0.06993211
O        1.48193469      -0.82552783       0.86897121
C        0.10017320      -1.09049189       0.54084247
H       -2.18090152      -0.46894663      -1.16586371
H       -2.01638420       1.27702016      -0.96251416
H       -2.46812734       0.25878671       0.41020478
H        0.53027926       1.90060692      -0.94265621
H        2.39164635       1.16003853       0.83560024
H        2.21391443      -0.87912774       0.00120981
H       -0.43259667      -1.32818314       1.46772727
H        0.06089155      -1.97553868      -0.10867348
14
Frame=7 idx=005407 GeodesicLength=0.3973724763925513 rxn_smarts="[C:1]([C:2]1=[C:3]([H:10])[C:4]([H:11])([H:12])[O:5][C:6]1([H:13])[H:14])([H:7])([H:8])[H:9]>>[C:1](/[C:2](=[C:3](/[C:4][H:11])[H:10])[C:6]([O:5][H:12])([H:13])[H:14])([H:7])([H:8])[H:9]"
C       -1.83946276       0.31551530      -0.48242996
C       -0.39852566       0.15226279      -0.13638112
C        0.62302084       0.96839917      -0.39507017
C        1.92604178       0.53118610       0.07866394
O        1.48222985      -0.82357257       0.86364145
C        0.09950475      -1.08937185       0.54111872
H       -2.18274334      -0.46847318      -1.16506127
H       -2.01771910       1.27758029      -0.96250063
H       -2.46980590       0.25999792       0.41066486
H        0.53397667       1.89531887      -0.95035492
H        2.38558820       1.15733754       0.84463562
H        2.23124546      -0.87569777      -0.00946200
H       -0.43099206      -1.32537036       1.46987009
H        0.05764127      -1.97511228      -0.10733461
14
Frame=8 idx=005407 GeodesicLength=0.45415448234391737 rxn_smarts="[C:1]([C:2]1=[C:3]([H:10])[C:4]([H:11])([H:12])[O:5][C:6]1([H:13])[H:14])([H:7])([H:8])[H:9]>>[C:1](/[C:2](=[C:3](/[C:4][H:11])[H:10])[C:6]([O:5][H:12])([H:13])[H:14])([H:7])([H:8])[H:9]"
C       -1.84115493       0.31623423      -0.48198705
C       -0.40036641       0.15288391      -0.13561444
C        0.62234817       0.96719748      -0.39524517
C        1.92208083       0.52691477       0.08720720
O        1.48241076      -0.82168895       0.85844631
C        0.09875951      -1.08828439       0.54143348
H       -2.18457858      -0.46797168      -1.16428890
H       -2.01903854       1.27816247      -0.96248387
H       -2.47153691       0.26121702       0.41109326
H        0.53770246       1.88991910      -0.95796847
H        2.37962085       1.15445123       0.85346850
H        2.24888960      -0.87172358      -0.02007872
H       -0.42950959      -1.32262117       1.47200511
H        0.05437277      -1.97469046      -0.10598724
14
Frame=9 idx=005407 GeodesicLength=0.5109365093180168 rxn_smarts="[C:1]([C:2]1=[C:3]([H:10])[C:4]([H:11])([H:12])[O:5][C:6]1([H:13])[H:14])([H:7])([H:8])[H:9]>>[C:1](/[C:2](=[C:3](/[C:4][H:11])[H:10])[C:6]([O:5][H:12])([H:13])[H:14])([H:7])([H:8])[H:9]"
C       -1.84285663       0.31695202      -0.48157485
C       -0.40223524       0.15349527      -0.13479948
C        0.62166811       0.96595541      -0.39537067
C        1.91811664       0.52249254       0.09551510
O        1.48247586      -0.81987316       0.85339054
C        0.09792989      -1.08722171       0.54180840
H       -2.18639528      -0.46746783      -1.16356511
H       -2.02033645       1.27874412      -0.96250738
H       -2.47332459       0.26244225       0.41145782
H        0.54141221       1.88452204      -0.96530324
H        2.37379322       1.15136465       0.86201903
H        2.26684163      -0.86722460      -0.03065056
H       -0.42815458      -1.31989628       1.47416378
H        0.05106521      -1.97428471      -0.10458339
14
Frame=10 idx=005407 GeodesicLength=0.5677142330723477 rxn_smarts="[C:1]([C:2]1=[C:3]([H:10])[C:4]([H:11])([H:12])[O:5][C:6]1([H:13])[H:14])([H:7])([H:8])[H:9]>>[C:1](/[C:2](=[C:3](/[C:4][H:11])[H:10])[C:6]([O:5][H:12])([H:13])[H:14])([H:7])([H:8])[H:9]"
C       -1.84456452       0.31765731      -0.48121403
C       -0.40413075       0.15409046      -0.13394633
C        0.62098605       0.96465560      -0.39547260
C        1.91415999       0.51789461       0.10355226
O        1.48242228      -0.81812350       0.84848119
C        0.09700931      -1.08617906       0.54225997
H       -2.18818594      -0.46698226      -1.16290207
H       -2.02160753       1.27930727      -0.96260572
H       -2.47517068       0.26367463       0.41173501
H        0.54506922       1.87922310      -0.97221034
H        2.36814471       1.14806782       0.87022439
H        2.28509847      -0.86221415      -0.04118476
H       -0.42693346      -1.31716670       1.47636909
H        0.04770284      -1.97390514      -0.10308607
14
Frame=11 idx=005407 GeodesicLength=0.624487657127324 rxn_smarts="[C:1]([C:2]1=[C:3]([H:10])[C:4]([H:11])([H:12])[O:5][C:6]1([H:13])[H:14])([H:7])([H:8])[H:9]>>[C:1](/[C:2](=[C:3](/[C:4][H:11])[H:10])[C:6]([O:5][H:12])([H:13])[H:14])([H:7])([H:8])[H:9]"
C       -1.84627451       0.31833794      -0.48092576
C       -0.40605099       0.15466327      -0.13306435
C        0.62030814       0.96328093      -0.39557504
C        1.91022160       0.51309764       0.11128760
O        1.48224889      -0.81644069       0.84372192
C        0.09599128      -1.08515099       0.54280633
H       -2.18994163      -0.46653714      -1.16231182
H       -2.02284561       1.27983227      -0.96281525
H       -2.47707681       0.26491495       0.41190028
H        0.54863730       1.87412182      -0.97854500
H        2.36271178       1.14455023       0.87802868
H        2.30365416      -0.85670803      -0.05169986
H       -0.42585068      -1.31440014       1.47864718
H        0.04426708      -1.97356207      -0.10145492
14
Frame=12 idx=005407 GeodesicLength=0.6812576400458895 rxn_smarts="[C:1]([C:2]1=[C:3]([H:10])[C:4]([H:11])([H:12])[O:5][C:6]1([H:13])[H:14])([H:7])([H:8])[H:9]>>[C:1](/[C:2](=[C:3](/[C:4][H:11])[H:10])[C:6]([O:5][H:12])([H:13])[H:14])([H:7])([H:8])[H:9]"
C       -1.84799044       0.31901488      -0.48067557
C       -0.40799429       0.15521115      -0.13215423
C        0.61963564       0.96183191      -0.39566822
C        1.90629402       0.50812797       0.11878851
O        1.48195441      -0.81484141       0.83910854
C        0.09487986      -1.08415505       0.54341782
H       -2.19169537      -0.46610441      -1.16175328
H       -2.02405211       1.28034577      -0.96309127
H       -2.47902590       0.26619100       0.41200322
H        0.55216872       1.86908137      -0.98453967
H        2.35741976       1.14083602       0.88554271
H        2.32254093      -0.85063988      -0.06219028
H       -0.42490702      -1.31164545       1.48095835
H        0.04077180      -1.97325387      -0.09974662
14
Frame=13 idx=005407 GeodesicLength=0.7380257532356276 rxn_smarts="[C:1]([C:2]1=[C:3]([H:10])[C:4]([H:11])([H:12])[O:5][C:6]1([H:13])[H:14])([H:7])([H:8])[H:9]>>[C:1](/[C:2](=[C:3](/[C:4][H:11])[H:10])[C:6]([O:5][H:12])([H:13])[H:14])([H:7])([H:8])[H:9]"
C       -1.84971550       0.31970759      -0.48043523
C       -0.40995796       0.15572776      -0.13122388
C        0.61897299       0.96030046      -0.39576017
C        1.90237092       0.50300524       0.12610882
O        1.48153721      -0.81333885       0.83463929
C        0.09367876      -1.08320914       0.54406786
H       -2.19348448      -0.46566405      -1.16118367
H       -2.02522532       1.28087022      -0.96340302
H       -2.48099909       0.26753668       0.41208921
H        0.55570516       1.86399600      -0.99036903
H        2.35220029       1.13694968       0.89285502
H        2.34179502      -0.84394977      -0.07264329
H       -0.42410738      -1.30894644       1.48326628
H        0.03722938      -1.97298537      -0.09800818
14
Frame=14 idx=005407 GeodesicLength=0.7948006374768753 rxn_smarts="[C:1]([C:2]1=[C:3]([H:10])[C:4]([H:11])([H:12])[O:5][C:6]1([H:13])[H:14])([H:7])([H:8])[H:9]>>[C:1](/[C:2](=[C:3](/[C:4][H:11])[H:10])[C:6]([O:5][H:12])([H:13])[H:14])([H:7])([H:8])[H:9]"
C       -1.85144953       0.32042621      -0.48018725
C       -0.41194027       0.15621133      -0.13027201
C        0.61832306       0.95868209      -0.39584537
C        1.89844846       0.49773779       0.13328597
O        1.48099982      -0.81194805       0.83030031
C        0.09238831      -1.08231906       0.54474442
H       -2.19532180      -0.46520345      -1.16057671
H       -2.02636248       1.28141288      -0.96373488
H       -2.48298892       0.26896852       0.41217956
H        0.55927769       1.85878860      -0.99614438
H        2.34700700       1.13289307       0.90003067
H        2.36143643      -0.83657752      -0.08307569
H       -0.42345223      -1.30631811       1.48555530
H        0.03363447      -1.97275429      -0.09625993
14
Frame=15 idx=005407 GeodesicLength=0.851575010000283 rxn_smarts="[C:1]([C:2]1=[C:3]([H:10])[C:4]([H:11])([H:12])[O:5][C:6]1([H:13])[H:14])([H:7])([H:8])[H:9]>>[C:1](/[C:2](=[C:3](/[C:4][H:11])[H:10])[C:6]([O:5][H:12])([H:13])[H:14])([H:7])([H:8])[H:9]"
C       -1.85319066       0.32115272      -0.47996063
C       -0.41394278       0.15665748      -0.12930220
C        0.61768765       0.95696522      -0.39593678
C        1.89453909       0.49229116       0.14026805
O        1.48034055      -0.81067179       0.82609667
C        0.09099806      -1.08147734       0.54547585
H       -2.19718393      -0.46474327      -1.15997206
H       -2.02745902       1.28195256      -0.96412471
H       -2.48500794       0.27047197       0.41223589
H        0.56283942       1.85357890      -1.00167868
H        2.34190353       1.12864211       0.90698172
H        2.38145698      -0.82853588      -0.09350606
H       -0.42294325      -1.30371151       1.48786953
H        0.02996229      -1.97257235      -0.09444659
14
Frame=16 idx=005407 GeodesicLength=0.908352433964166 rxn_smarts="[C:1]([C:2]1=[C:3]([H:10])[C:4]([H:11])([H:12])[O:5][C:6]1([H:13])[H:14])([H:7])([H:8])[H:9]>>[C:1](/[C:2](=[C:3](/[C:4][H:11])[H:10])[C:6]([O:5][H:12])([H:13])[H:14])([H:7])([H:8])[H:9]"
C       -1.85494035       0.32190019      -0.47973575
C       -0.41596785       0.15707264      -0.12829739
C        0.61706349       0.95516022      -0.39600664
C        1.89063746       0.48667664       0.14709526
O        1.47956069      -0.80952644       0.82201836
C        0.08950720      -1.08069180       0.54625323
H       -2.19907548      -0.46425799      -1.15936402
H       -2.02851634       1.28251137      -0.96453606
H       -2.48705715       0.27204053       0.41227680
H        0.56643115       1.84825776      -1.00713342
H        2.33685352       1.12419903       0.91377591
H        2.40187450      -0.81975625      -0.10395092
H       -0.42257681      -1.30115025       1.49019964
H        0.02620595      -1.97243567      -0.09259501
