19
Frame=0 idx=011357 GeodesicLength=0.0 rxn_smarts="[C:1]([C:2]([C:3]([C:4]([C:5]([H:16])([H:17])[H:18])([H:14])[H:15])([C:6](=[O:7])[H:19])[H:13])([H:11])[H:12])([H:8])([H:9])[H:10]>>[C:1]([C@:2]([C:3]([C:4]([C:5]([H:16])([H:17])[H:18])([H:14])[H:15])([H:11])[H:13])([C:6](=[O:7])[H:19])[H:12])([H:8])([H:9])[H:10]"
C       -2.59151863      -0.58082312       0.23713301
C       -1.26241227      -0.43673288      -0.44594881
C        0.20020387       0.01327370       0.39366643
C        1.51880577      -0.46728888      -0.15906377
C        2.61000228       0.54813250       0.16543883
C       -0.66779568       1.02812953      -0.41106876
O       -1.31449845       1.94032424       0.18881274
H       -3.34464994      -0.64562384      -0.55011799
H       -2.68652918      -1.46244150       0.87134328
H       -2.77017985       0.33617258       0.80367087
H       -0.49206620      -1.04352852       0.39073375
H       -1.01289562      -1.05146074      -1.30394309
H        0.09262603       0.20717807       1.45711370
H        1.42606408      -0.57175272      -1.24412154
H        1.79178862      -1.45162922       0.23364341
H        3.56397592       0.23170700      -0.25728192
H        2.73948873       0.65497459       1.24405294
H        2.35970518       1.52957923      -0.23905291
H       -0.16011458       1.22181002      -1.37501015
19
Frame=1 idx=011357 GeodesicLength=0.10549880886161234 rxn_smarts="[C:1]([C:2]([C:3]([C:4]([C:5]([H:16])([H:17])[H:18])([H:14])[H:15])([C:6](=[O:7])[H:19])[H:13])([H:11])[H:12])([H:8])([H:9])[H:10]>>[C:1]([C@:2]([C:3]([C:4]([C:5]([H:16])([H:17])[H:18])([H:14])[H:15])([H:11])[H:13])([C:6](=[O:7])[H:19])[H:12])([H:8])([H:9])[H:10]"
C       -2.58562369      -0.58151946       0.24850741
C       -1.25756093      -0.44235418      -0.43722720
C        0.19472937       0.00735339       0.38498880
C        1.51526324      -0.45779871      -0.17778784
C        2.61283902       0.53713955       0.18492267
C       -0.67332279       1.04408660      -0.42504565
O       -1.30807350       1.96469891       0.16541634
H       -3.33278945      -0.73383869      -0.53224135
H       -2.65974736      -1.41353356       0.94918491
H       -2.80838242       0.36266057       0.75026739
H       -0.48493386      -1.06949653       0.39599281
H       -1.01916238      -1.04351131      -1.30834399
H        0.09259404       0.21359055       1.44677933
H        1.43046113      -0.52832056      -1.26625045
H        1.77957613      -1.45741380       0.18075389
H        3.56623981       0.22940760      -0.24558800
H        2.74032063       0.60475348       1.26700096
H        2.37111212       1.53397567      -0.18615710
H       -0.17353911       1.23012049      -1.39517291
19
Frame=2 idx=011357 GeodesicLength=0.21079585339160428 rxn_smarts="[C:1]([C:2]([C:3]([C:4]([C:5]([H:16])([H:17])[H:18])([H:14])[H:15])([C:6](=[O:7])[H:19])[H:13])([H:11])[H:12])([H:8])([H:9])[H:10]>>[C:1]([C@:2]([C:3]([C:4]([C:5]([H:16])([H:17])[H:18])([H:14])[H:15])([H:11])[H:13])([C:6](=[O:7])[H:19])[H:12])([H:8])([H:9])[H:10]"
C       -2.57948235      -0.58213512       0.25952931
C       -1.25238316      -0.44787932      -0.42886783
C        0.18922716       0.00150203       0.37668494
C        1.51159275      -0.44772397      -0.19617755
C        2.61540469       0.52518804       0.20418197
C       -0.67922660       1.06040583      -0.43854750
O       -1.30282561       1.98844897       0.14285957
H       -3.31706257      -0.82428987      -0.50749027
H       -2.63332279      -1.35707500       1.02486046
H       -2.84737751       0.38436773       0.69107661
H       -0.47744717      -1.09541399       0.40080320
H       -1.02522922      -1.03507437      -1.31287512
H        0.09236407       0.21970439       1.43670837
H        1.43465481      -0.48378749      -1.28693433
H        1.76735815      -1.46148070       0.12717068
H        3.56826217       0.22644675      -0.23394856
H        2.74066912       0.55320805       1.28833291
H        2.38234171       1.53630625      -0.13265594
H       -0.18751767       1.23928179      -1.41471090
19
Frame=3 idx=011357 GeodesicLength=0.3158969000189032 rxn_smarts="[C:1]([C:2]([C:3]([C:4]([C:5]([H:16])([H:17])[H:18])([H:14])[H:15])([C:6](=[O:7])[H:19])[H:13])([H:11])[H:12])([H:8])([H:9])[H:10]>>[C:1]([C@:2]([C:3]([C:4]([C:5]([H:16])([H:17])[H:18])([H:14])[H:15])([H:11])[H:13])([C:6](=[O:7])[H:19])[H:12])([H:8])([H:9])[H:10]"
C       -2.57310424      -0.58273408       0.27013663
C       -1.24685144      -0.45340435      -0.42089133
C        0.18370847      -0.00426869       0.36879176
C        1.50779182      -0.43705889      -0.21416756
C        2.61769909       0.51226407       0.22315489
C       -0.68555683       1.07706101      -0.45155274
O       -1.29905840       2.01150283       0.12108260
H       -3.29723116      -0.91581181      -0.47542266
H       -2.60774037      -1.29295980       1.09725872
H       -2.88658539       0.40022552       0.62661708
H       -0.46964768      -1.12122696       0.40533938
H       -1.03105324      -1.02626304      -1.31749144
H        0.09196373       0.22564756       1.42692465
H        1.43864806      -0.43819182      -1.30605860
H        1.75511512      -1.46372408       0.07300655
H        3.57002845       0.22277405      -0.22241733
H        2.74052416       0.50042378       1.30793700
H        2.39342228       1.53648562      -0.07867889
H       -0.20207242       1.24925907      -1.43356872
19
Frame=4 idx=011357 GeodesicLength=0.42088554339421613 rxn_smarts="[C:1]([C:2]([C:3]([C:4]([C:5]([H:16])([H:17])[H:18])([H:14])[H:15])([C:6](=[O:7])[H:19])[H:13])([H:11])[H:12])([H:8])([H:9])[H:10]>>[C:1]([C@:2]([C:3]([C:4]([C:5]([H:16])([H:17])[H:18])([H:14])[H:15])([H:11])[H:13])([C:6](=[O:7])[H:19])[H:12])([H:8])([H:9])[H:10]"
C       -2.56647514      -0.58337119       0.28024404
C       -1.24091691      -0.45904755      -0.41333691
C        0.17819509      -0.00993116       0.36133208
C        1.50388191      -0.42579931      -0.23166774
C        2.61974495       0.49839202       0.24178708
C       -0.69235447       1.09401019      -0.46412200
O       -1.29707652       2.03379088       0.09987638
H       -3.27332465      -1.00672557      -0.43550733
H       -2.58362100      -1.22155756       1.16486509
H       -2.92528957       0.40911305       0.55793890
H       -0.46154928      -1.14689667       0.40979049
H       -1.03659247      -1.01725939      -1.32215985
H        0.09140600       0.23157897       1.41743848
H        1.44247407      -0.39162259      -1.32348559
H        1.74285931      -1.46403117       0.01846857
H        3.57156780       0.21835965      -0.21100215
H        2.73987818       0.44655853       1.32572270
H        2.40439963       1.53446879      -0.02439553
H       -0.21720694       1.25997007      -1.45178671
19
Frame=5 idx=011357 GeodesicLength=0.5258055971514233 rxn_smarts="[C:1]([C:2]([C:3]([C:4]([C:5]([H:16])([H:17])[H:18])([H:14])[H:15])([C:6](=[O:7])[H:19])[H:13])([H:11])[H:12])([H:8])([H:9])[H:10]>>[C:1]([C@:2]([C:3]([C:4]([C:5]([H:16])([H:17])[H:18])([H:14])[H:15])([H:11])[H:13])([C:6](=[O:7])[H:19])[H:12])([H:8])([H:9])[H:10]"
C       -2.55963072      -0.58395192       0.29004220
C       -1.23461237      -0.46489904      -0.40605889
C        0.17269829      -0.01539198       0.35433466
C        1.49984216      -0.41395416      -0.24861284
C        2.62155234       0.48359512       0.26005988
C       -0.69971152       1.11119532      -0.47636938
O       -1.29710921       2.05531827       0.07896450
H       -3.24537624      -1.09526721      -0.38789001
H       -2.56088746      -1.14439428       1.22614370
H       -2.96282014       0.41084820       0.48623572
H       -0.45317443      -1.17233997       0.41443789
H       -1.04192693      -1.00832211      -1.32670720
H        0.09069407       0.23778708       1.40827790
H        1.44608956      -0.34415503      -1.33914482
H        1.73043524      -1.46240627      -0.03622930
H        3.57287050       0.21317033      -0.19973894
H        2.73880410       0.39170446       1.34170000
H        2.41526646       1.53028287       0.03013005
H       -0.23300370       1.27118031      -1.46957512
19
Frame=6 idx=011357 GeodesicLength=0.6308612662054083 rxn_smarts="[C:1]([C:2]([C:3]([C:4]([C:5]([H:16])([H:17])[H:18])([H:14])[H:15])([C:6](=[O:7])[H:19])[H:13])([H:11])[H:12])([H:8])([H:9])[H:10]>>[C:1]([C@:2]([C:3]([C:4]([C:5]([H:16])([H:17])[H:18])([H:14])[H:15])([H:11])[H:13])([C:6](=[O:7])[H:19])[H:12])([H:8])([H:9])[H:10]"
C       -2.55252251      -0.58463924       0.29944601
C       -1.22788587      -0.47102591      -0.39910530
C        0.16721611      -0.02056302       0.34773711
C        1.49567982      -0.40142935      -0.26503648
C        2.62315813       0.46783718       0.27805400
C       -0.70768317       1.12855954      -0.48848717
O       -1.29927002       2.07606333       0.05799112
H       -3.21359519      -1.18044250      -0.33256396
H       -2.54013590      -1.06156346       1.28058165
H       -2.99863432       0.40465474       0.41268108
H       -0.44446081      -1.19748813       0.41938132
H       -1.04699353      -0.99957710      -1.33110308
H        0.08978676       0.24443140       1.39929221
H        1.44956517      -0.29559544      -1.35303157
H        1.71785770      -1.45874778      -0.09125787
H        3.57395952       0.20725459      -0.18862057
H        2.73732245       0.33555514       1.35589109
H        2.42612936       1.52391042       0.08523610
H       -0.24949372       1.28280560      -1.48708569
19
Frame=7 idx=011357 GeodesicLength=0.7359254982109444 rxn_smarts="[C:1]([C:2]([C:3]([C:4]([C:5]([H:16])([H:17])[H:18])([H:14])[H:15])([C:6](=[O:7])[H:19])[H:13])([H:11])[H:12])([H:8])([H:9])[H:10]>>[C:1]([C@:2]([C:3]([C:4]([C:5]([H:16])([H:17])[H:18])([H:14])[H:15])([H:11])[H:13])([C:6](=[O:7])[H:19])[H:12])([H:8])([H:9])[H:10]"
C       -2.54520820      -0.58551986       0.30836195
C       -1.22075202      -0.47750549      -0.39244690
C        0.16174013      -0.02548083       0.34164805
C        1.49142926      -0.38837939      -0.28063471
C        2.62448649       0.45139586       0.29555462
C       -0.71623127       1.14601146      -0.50064891
O       -1.30340838       2.09620496       0.03657682
H       -3.17903663      -1.25892165      -0.27145201
H       -2.52157078      -0.97649531       1.32677360
H       -3.03144173       0.39061159       0.34062690
H       -0.43541883      -1.22236621       0.42481009
H       -1.05173765      -0.99127048      -1.33521715
H        0.08860127       0.25164584       1.39058340
H        1.45290536      -0.24669080      -1.36487026
H        1.70523107      -1.45305722      -0.14564259
H        3.57481955       0.20057800      -0.17755064
H        2.73521989       0.27932898       1.36819176
H        2.43688991       1.51542352       0.13981572
H       -0.26651743       1.29448703      -1.50447974
19
Frame=8 idx=011357 GeodesicLength=0.8411476504342071 rxn_smarts="[C:1]([C:2]([C:3]([C:4]([C:5]([H:16])([H:17])[H:18])([H:14])[H:15])([C:6](=[O:7])[H:19])[H:13])([H:11])[H:12])([H:8])([H:9])[H:10]>>[C:1]([C@:2]([C:3]([C:4]([C:5]([H:16])([H:17])[H:18])([H:14])[H:15])([H:11])[H:13])([C:6](=[O:7])[H:19])[H:12])([H:8])([H:9])[H:10]"
C       -2.53762350      -0.58667590       0.31690168
C       -1.21321119      -0.48434637      -0.38605666
C        0.15627563      -0.03010405       0.33602724
C        1.48709987      -0.37475350      -0.29543182
C        2.62556616       0.43428815       0.31262428
C       -0.72535572       1.16350273      -0.51303057
O       -1.30928843       2.11583828       0.01447448
H       -3.14221022      -1.33033733      -0.20522392
H       -2.50524476      -0.89006365       1.36469118
H       -3.06119475       0.36917750       0.27107910
H       -0.42596993      -1.24697613       0.43072602
H       -1.05616404      -0.98347135      -1.33900266
H        0.08709573       0.25949210       1.38206052
H        1.45615926      -0.19732379      -1.37467523
H        1.69253365      -1.44529899      -0.19945344
H        3.57546862       0.19322575      -0.16652996
H        2.73252817       0.22285844       1.37865617
H        2.44759051       1.50488149       0.19410432
H       -0.28405508       1.30608661      -1.52194074
19
Frame=9 idx=011357 GeodesicLength=0.9464237014482649 rxn_smarts="[C:1]([C:2]([C:3]([C:4]([C:5]([H:16])([H:17])[H:18])([H:14])[H:15])([C:6](=[O:7])[H:19])[H:13])([H:11])[H:12])([H:8])([H:9])[H:10]>>[C:1]([C@:2]([C:3]([C:4]([C:5]([H:16])([H:17])[H:18])([H:14])[H:15])([H:11])[H:13])([C:6](=[O:7])[H:19])[H:12])([H:8])([H:9])[H:10]"
C       -2.52977502      -0.58793973       0.32537387
C       -1.20532510      -0.49150728      -0.37974123
C        0.15084011      -0.03429188       0.33079951
C        1.48269510      -0.36041615      -0.30954327
C        2.62641897       0.41635571       0.32941516
C       -0.73521008       1.18095213      -0.52578323
O       -1.31694749       2.13497413      -0.00849328
H       -3.10307277      -1.39495997      -0.13424964
H       -2.49055795      -0.80293429       1.39466874
H       -3.08817819       0.34120668       0.20383731
H       -0.41600213      -1.27116624       0.43719267
H       -1.06032581      -0.97626208      -1.34230049
H        0.08526804       0.26820936       1.37357653
H        1.45934437      -0.14705010      -1.38249301
H        1.67960345      -1.43539211      -0.25309172
H        3.57589610       0.18520622      -0.15558954
H        2.72935890       0.16547196       1.38734418
H        2.45822361       1.49219078       0.24877001
H       -0.30225410       1.31735288      -1.53969259
19
Frame=10 idx=011357 GeodesicLength=1.0518055821877261 rxn_smarts="[C:1]([C:2]([C:3]([C:4]([C:5]([H:16])([H:17])[H:18])([H:14])[H:15])([C:6](=[O:7])[H:19])[H:13])([H:11])[H:12])([H:8])([H:9])[H:10]>>[C:1]([C@:2]([C:3]([C:4]([C:5]([H:16])([H:17])[H:18])([H:14])[H:15])([H:11])[H:13])([C:6](=[O:7])[H:19])[H:12])([H:8])([H:9])[H:10]"
C       -2.52160504      -0.58950604       0.33364336
C       -1.19706469      -0.49898242      -0.37360994
C        0.14541746      -0.03815421       0.32599898
C        1.47823336      -0.34543733      -0.32284997
C        2.62701210       0.39778740       0.34580986
C       -0.74565118       1.19833453      -0.53898417
O       -1.32588974       2.15374462      -0.03239978
H       -3.06247503      -1.45197469      -0.05969052
H       -2.47789279      -0.71630402       1.41679379
H       -3.11214365       0.30701388       0.14051729
H       -0.40549223      -1.29507728       0.44406415
H       -1.06413602      -0.96958370      -1.34518813
H        0.08303839       0.27759827       1.36514458
H        1.46250039      -0.09621563      -1.38819960
H        1.66657681      -1.42331499      -0.30613207
H        3.57610996       0.17660172      -0.14468545
H        2.72555597       0.10777845       1.39418232
H        2.46878592       1.47743040       0.30329781
H       -0.32087998       1.32826105      -1.55771251
19
Frame=11 idx=011357 GeodesicLength=1.1572360988844321 rxn_smarts="[C:1]([C:2]([C:3]([C:4]([C:5]([H:16])([H:17])[H:18])([H:14])[H:15])([C:6](=[O:7])[H:19])[H:13])([H:11])[H:12])([H:8])([H:9])[H:10]>>[C:1]([C@:2]([C:3]([C:4]([C:5]([H:16])([H:17])[H:18])([H:14])[H:15])([H:11])[H:13])([C:6](=[O:7])[H:19])[H:12])([H:8])([H:9])[H:10]"
C       -2.51314490      -0.59126523       0.34185924
C       -1.18848817      -0.50673547      -0.36755544
C        0.14002416      -0.04167394       0.32163725
C        1.47373421      -0.32980815      -0.33534735
C        2.62733707       0.37854878       0.36182794
C       -0.75676293       1.21562282      -0.55269605
O       -1.33603244       2.17224328      -0.05727574
H       -3.02058623      -1.50146932       0.01757644
H       -2.46678702      -0.63104574       1.43161821
H       -3.13325881       0.26748098       0.08119610
H       -0.39436219      -1.31868897       0.45133083
H       -1.06761063      -0.96344242      -1.34760663
H        0.08041481       0.28774291       1.35677155
H        1.46560550      -0.04475816      -1.39177135
H        1.65342344      -1.40906721      -0.35858031
H        3.57609354       0.16740695      -0.13385451
H        2.72116293       0.04969348       1.39918235
H        2.47920206       1.46056531       0.35777838
H       -0.33996439       1.33865011      -1.57609090
19
Frame=12 idx=011357 GeodesicLength=1.2627779079904282 rxn_smarts="[C:1]([C:2]([C:3]([C:4]([C:5]([H:16])([H:17])[H:18])([H:14])[H:15])([C:6](=[O:7])[H:19])[H:13])([H:11])[H:12])([H:8])([H:9])[H:10]>>[C:1]([C@:2]([C:3]([C:4]([C:5]([H:16])([H:17])[H:18])([H:14])[H:15])([H:11])[H:13])([C:6](=[O:7])[H:19])[H:12])([H:8])([H:9])[H:10]"
C       -2.50434730      -0.59330135       0.34999037
C       -1.17958717      -0.51474843      -0.36163955
C        0.13465896      -0.04494198       0.31772273
C        1.46920466      -0.31354990      -0.34699832
C        2.62738412       0.35872455       0.37742000
C       -0.76843916       1.23281385      -0.56693176
O       -1.34700739       2.19055098      -0.08306917
H       -2.97785450      -1.54349548       0.09704541
H       -2.45745159      -0.54745776       1.43944096
H       -3.15162304       0.22289404       0.02636407
H       -0.38258882      -1.34212506       0.45882849
H       -1.07071438      -0.95774319      -1.34964048
H        0.07737650       0.29845797       1.34844605
H        1.46867616       0.00722250      -1.39314351
H        1.64020779      -1.39263014      -0.41030691
H        3.57584460       0.15772067      -0.12311908
H        2.71612617      -0.00858339       1.40228407
H        2.48947163       1.44162542       0.41207728
H       -0.35933724       1.34856671      -1.59477065
19
Frame=13 idx=011357 GeodesicLength=1.3683718462811676 rxn_smarts="[C:1]([C:2]([C:3]([C:4]([C:5]([H:16])([H:17])[H:18])([H:14])[H:15])([C:6](=[O:7])[H:19])[H:13])([H:11])[H:12])([H:8])([H:9])[H:10]>>[C:1]([C@:2]([C:3]([C:4]([C:5]([H:16])([H:17])[H:18])([H:14])[H:15])([H:11])[H:13])([C:6](=[O:7])[H:19])[H:12])([H:8])([H:9])[H:10]"
C       -2.49524106      -0.59548590       0.35812519
C       -1.17039887      -0.52299491      -0.35578297
C        0.12933352      -0.04795642       0.31427513
C        1.46466344      -0.29668118      -0.35779480
C        2.62714020       0.33829190       0.39259572
C       -0.78076918       1.24988328      -0.58175321
O       -1.35881902       2.20872508      -0.10981945
H       -2.93438045      -1.57817219       0.17796295
H       -2.44942970      -0.46627862       1.44088988
H       -3.16739700       0.17409075      -0.02401756
H       -0.37009925      -1.36538241       0.46655390
H       -1.07344163      -0.95248372      -1.35126181
H        0.07392133       0.30983165       1.34020050
H        1.47167397       0.05975590      -1.39230321
H        1.62691569      -1.37403439      -0.46128283
H        3.57534557       0.14753720      -0.11252470
H        2.71050595      -0.06711748       1.40351824
H        2.49948759       1.42059977       0.46625993
H       -0.37901109       1.35787166      -1.61384089
19
Frame=14 idx=011357 GeodesicLength=1.4741108585577756 rxn_smarts="[C:1]([C:2]([C:3]([C:4]([C:5]([H:16])([H:17])[H:18])([H:14])[H:15])([C:6](=[O:7])[H:19])[H:13])([H:11])[H:12])([H:8])([H:9])[H:10]>>[C:1]([C@:2]([C:3]([C:4]([C:5]([H:16])([H:17])[H:18])([H:14])[H:15])([H:11])[H:13])([C:6](=[O:7])[H:19])[H:12])([H:8])([H:9])[H:10]"
C       -2.48578002      -0.59790736       0.36622994
C       -1.16090905      -0.53145561      -0.35004720
C        0.12404586      -0.05080115       0.31130173
C        1.46010763      -0.27919615      -0.36771469
C        2.62660431       0.31729348       0.40730955
C       -0.79365747       1.26685145      -0.59713862
O       -1.37118413       2.22681178      -0.13743508
H       -2.89041762      -1.60575910       0.26022152
H       -2.44301486      -0.38732549       1.43618631
H       -3.18070496       0.12110361      -0.06981687
H       -0.35688514      -1.38857104       0.47433018
H       -1.07576624      -0.94753957      -1.35256540
H        0.07002868       0.32167684       1.33202563
H        1.47461223       0.11281029      -1.38915405
H        1.61359446      -1.35322691      -0.51146080
H        3.57459506       0.13697198      -0.10212067
H        2.70427805      -0.12585632       1.40277151
H        2.50926822       1.39744595       0.52028639
H       -0.39881502       1.36667335      -1.63320938
19
Frame=15 idx=011357 GeodesicLength=1.5800142244709876 rxn_smarts="[C:1]([C:2]([C:3]([C:4]([C:5]([H:16])([H:17])[H:18])([H:14])[H:15])([C:6](=[O:7])[H:19])[H:13])([H:11])[H:12])([H:8])([H:9])[H:10]>>[C:1]([C@:2]([C:3]([C:4]([C:5]([H:16])([H:17])[H:18])([H:14])[H:15])([H:11])[H:13])([C:6](=[O:7])[H:19])[H:12])([H:8])([H:9])[H:10]"
C       -2.47600769      -0.60050514       0.37433202
C       -1.15115727      -0.54009553      -0.34440189
C        0.11878727      -0.05354089       0.30886035
C        1.45552082      -0.26117566      -0.37669879
C        2.62574691       0.29578539       0.42150895
C       -0.80707527       1.28375095      -0.61307670
O       -1.38393809       2.24493101      -0.16586060
H       -2.84604689      -1.62657204       0.34308927
H       -2.43798853      -0.31107649       1.42588572
H       -3.19162057       0.06458027      -0.11103837
H       -0.34297067      -1.41177097       0.48211790
H       -1.07770726      -0.94283510      -1.35356773
H        0.06569589       0.33395701       1.32400439
H        1.47741569       0.16621595      -1.38366935
H        1.60024022      -1.33030107      -0.56065566
H        3.57355526       0.12605258      -0.09198818
H        2.69746119      -0.18460622       1.40004923
H        2.51872869       1.37222399       0.57396381
H       -0.41863970       1.37498196      -1.65285435
19
Frame=16 idx=011357 GeodesicLength=1.6860658176643721 rxn_smarts="[C:1]([C:2]([C:3]([C:4]([C:5]([H:16])([H:17])[H:18])([H:14])[H:15])([C:6](=[O:7])[H:19])[H:13])([H:11])[H:12])([H:8])([H:9])[H:10]>>[C:1]([C@:2]([C:3]([C:4]([C:5]([H:16])([H:17])[H:18])([H:14])[H:15])([H:11])[H:13])([C:6](=[O:7])[H:19])[H:12])([H:8])([H:9])[H:10]"
C       -2.46595045      -0.60324283       0.38242670
C       -1.14116670      -0.54890490      -0.33884311
C        0.11355944      -0.05625312       0.30699685
C        1.45090196      -0.24270372      -0.38469300
C        2.62455677       0.27385255       0.43513936
C       -0.82098033       1.30059197      -0.62956762
O       -1.39692890       2.26316595      -0.19507309
H       -2.80153252      -1.64069180       0.42589519
H       -2.43417371      -0.23808045       1.41045523
H       -3.20021200       0.00508552      -0.14752829
H       -0.32837537      -1.43507956       0.48986387
H       -1.07927206      -0.93831436      -1.35430771
H        0.06092457       0.34661820       1.31619444
H        1.48002047       0.21978401      -1.37582232
H        1.58687699      -1.30535374      -0.60865885
H        3.57220824       0.11486502      -0.08218554
H        2.69011176      -0.24313681       1.39535612
H        2.52777990       1.34501635       0.62711456
H       -0.43834806       1.38278172      -1.67276279
