15
Frame=0 idx=001743 GeodesicLength=0.0 rxn_smarts="[C:1]([O:2][C:3]([C@@:4]1([H:12])[C:5]([H:13])([H:14])[N:6]1[H:15])([H:10])[H:11])([H:7])([H:8])[H:9]>>[C:1]([O:2][C:3]([C:4]([N:6]([C:5][H:14])[H:15])([H:12])[H:13])([H:10])[H:11])([H:7])([H:8])[H:9]"
C        2.28291399       0.54463540      -0.06960957
O        0.87999594       0.58805068      -0.00283772
C        0.29976064      -0.67795133       0.10510382
C       -1.20889075      -0.54554127       0.14066021
C       -2.31943225       0.91698149       0.20739939
N       -1.78265053       0.25299795      -0.93706202
H        2.62417254      -0.02355671      -0.94416738
H        2.71041197       0.09153184       0.83345465
H        2.63463534       1.57126276      -0.15200854
H        0.64590407      -1.19438374       1.01129496
H        0.56623320      -1.30391674      -0.76067464
H       -1.71784427      -1.49764727       0.26106173
H       -1.38475077       0.13200235       1.10456260
H       -3.19651193       0.30973826       0.50409321
H       -1.03394719       0.83579633      -1.30127075
15
Frame=1 idx=001743 GeodesicLength=0.05267769052348875 rxn_smarts="[C:1]([O:2][C:3]([C@@:4]1([H:12])[C:5]([H:13])([H:14])[N:6]1[H:15])([H:10])[H:11])([H:7])([H:8])[H:9]>>[C:1]([O:2][C:3]([C:4]([N:6]([C:5][H:14])[H:15])([H:12])[H:13])([H:10])[H:11])([H:7])([H:8])[H:9]"
C        2.28699119       0.54100721      -0.07274731
O        0.88476042       0.58777375       0.00436365
C        0.30179143      -0.67774201       0.10905224
C       -1.20580290      -0.54085609       0.14605033
C       -2.34094280       0.90380447       0.20017058
N       -1.77540493       0.25614149      -0.93486687
H        2.62028757      -0.02292635      -0.95312817
H        2.71998004       0.08135399       0.82439267
H        2.64124415       1.56703891      -0.15203337
H        0.64782474      -1.19615118       1.01421722
H        0.56724957      -1.30305522      -0.75745757
H       -1.71389126      -1.49393530       0.26445671
H       -1.38411540       0.15553776       1.11369882
H       -3.21618309       0.29022037       0.48585433
H       -1.03378872       0.85178820      -1.29202327
15
Frame=2 idx=001743 GeodesicLength=0.10518698047641119 rxn_smarts="[C:1]([O:2][C:3]([C@@:4]1([H:12])[C:5]([H:13])([H:14])[N:6]1[H:15])([H:10])[H:11])([H:7])([H:8])[H:9]>>[C:1]([O:2][C:3]([C:4]([N:6]([C:5][H:14])[H:15])([H:12])[H:13])([H:10])[H:11])([H:7])([H:8])[H:9]"
C        2.29094122       0.53738761      -0.07585735
O        0.88946880       0.58739957       0.01145911
C        0.30378993      -0.67762524       0.11296883
C       -1.20274102      -0.53630167       0.15142095
C       -2.36175775       0.89024798       0.19306552
N       -1.76826645       0.25954949      -0.93236003
H        2.61636694      -0.02235056      -0.96185700
H        2.72927157       0.07135181       0.81539790
H        2.64770967       1.56280393      -0.15216467
H        0.64968761      -1.19795602       1.01714100
H        0.56820843      -1.30225685      -0.75429785
H       -1.70998528      -1.49035465       0.26767917
H       -1.38351042       0.17971465       1.12249276
H       -3.23525478       0.27058415       0.46744559
H       -1.03392847       0.86780579      -1.28253391
15
Frame=3 idx=001743 GeodesicLength=0.15750508146811387 rxn_smarts="[C:1]([O:2][C:3]([C@@:4]1([H:12])[C:5]([H:13])([H:14])[N:6]1[H:15])([H:10])[H:11])([H:7])([H:8])[H:9]>>[C:1]([O:2][C:3]([C:4]([N:6]([C:5][H:14])[H:15])([H:12])[H:13])([H:10])[H:11])([H:7])([H:8])[H:9]"
C        2.29473644       0.53379835      -0.07891103
O        0.89408743       0.58691615       0.01840665
C        0.30575499      -0.67762676       0.11680664
C       -1.19970396      -0.53191840       0.15675318
C       -2.38176893       0.87638913       0.18612920
N       -1.76127505       0.26318462      -0.92954032
H        2.61245272      -0.02185244      -0.97027990
H        2.73822068       0.06161182       0.80656048
H        2.65397102       1.55858751      -0.15241104
H        0.65150729      -1.19983811       1.02000622
H        0.56911385      -1.30151781      -0.75126157
H       -1.70613730      -1.48693590       0.27070703
H       -1.38292037       0.20446013       1.13094030
H       -3.25365632       0.25099591       0.44897782
H       -1.03438249       0.88374581      -1.27288366
15
Frame=4 idx=001743 GeodesicLength=0.2096629554532879 rxn_smarts="[C:1]([O:2][C:3]([C@@:4]1([H:12])[C:5]([H:13])([H:14])[N:6]1[H:15])([H:10])[H:11])([H:7])([H:8])[H:9]>>[C:1]([O:2][C:3]([C:4]([N:6]([C:5][H:14])[H:15])([H:12])[H:13])([H:10])[H:11])([H:7])([H:8])[H:9]"
C        2.29838845       0.53023584      -0.08192566
O        0.89862469       0.58633229       0.02526027
C        0.30768820      -0.67773894       0.12060595
C       -1.19669398      -0.52770985       0.16206004
C       -2.40101506       0.86223023       0.17936439
N       -1.75441739       0.26703866      -0.92641068
H        2.60850135      -0.02138162      -0.97847593
H        2.74689496       0.05206091       0.79780603
H        2.66005002       1.55439000      -0.15273961
H        0.65327994      -1.20178409       1.02285779
H        0.56997359      -1.30084330      -0.74829680
H       -1.70234244      -1.48369067       0.27353589
H       -1.38237029       0.22979838       1.13902012
H       -3.27143571       0.23143920       0.43038419
H       -1.03512634       0.89962295      -1.26304600
15
Frame=5 idx=001743 GeodesicLength=0.2617103120582173 rxn_smarts="[C:1]([O:2][C:3]([C@@:4]1([H:12])[C:5]([H:13])([H:14])[N:6]1[H:15])([H:10])[H:11])([H:7])([H:8])[H:9]>>[C:1]([O:2][C:3]([C:4]([N:6]([C:5][H:14])[H:15])([H:12])[H:13])([H:10])[H:11])([H:7])([H:8])[H:9]"
C        2.30189206       0.52670100      -0.08492828
O        0.90308264       0.58565607       0.03211687
C        0.30959355      -0.67795884       0.12443198
C       -1.19370835      -0.52368386       0.16736421
C       -2.41950967       0.84778433       0.17274771
N       -1.74765766       0.27109140      -0.92297922
H        2.60441437      -0.02083324      -0.98657668
H        2.75537541       0.04258526       0.78900725
H        2.66594939       1.55021799      -0.15308848
H        0.65499940      -1.20378534       1.02577142
H        0.57080713      -1.30023834      -0.74533172
H       -1.69859168      -1.48063214       0.27616230
H       -1.38191523       0.25573738       1.14673265
H       -3.28862423       0.21193297       0.41156824
H       -1.03610714       0.91542534      -1.25299825
15
Frame=6 idx=001743 GeodesicLength=0.31363514679198884 rxn_smarts="[C:1]([O:2][C:3]([C@@:4]1([H:12])[C:5]([H:13])([H:14])[N:6]1[H:15])([H:10])[H:11])([H:7])([H:8])[H:9]>>[C:1]([O:2][C:3]([C:4]([N:6]([C:5][H:14])[H:15])([H:12])[H:13])([H:10])[H:11])([H:7])([H:8])[H:9]"
C        2.30525146       0.52318513      -0.08793109
O        0.90746969       0.58489226       0.03900652
C        0.31147446      -0.67827418       0.12831102
C       -1.19074324      -0.51983707       0.17267497
C       -2.43728754       0.83304798       0.16628904
N       -1.74098756       0.27534005      -0.91924537
H        2.60015859      -0.02018575      -0.99462095
H        2.76369611       0.03314044       0.78011466
H        2.67168732       1.54605505      -0.15344360
H        0.65666757      -1.20582217       1.02877498
H        0.57161932      -1.29970007      -0.74232779
H       -1.69487039      -1.47776208       0.27857875
H       -1.38157376       0.28229377       1.15404404
H       -3.30524971       0.19245042       0.39248861
H       -1.03731233       0.93117624      -1.24271378
15
Frame=7 idx=001743 GeodesicLength=0.3654577331227539 rxn_smarts="[C:1]([O:2][C:3]([C@@:4]1([H:12])[C:5]([H:13])([H:14])[N:6]1[H:15])([H:10])[H:11])([H:7])([H:8])[H:9]>>[C:1]([O:2][C:3]([C:4]([N:6]([C:5][H:14])[H:15])([H:12])[H:13])([H:10])[H:11])([H:7])([H:8])[H:9]"
C        2.30844296       0.51971761      -0.09090827
O        0.91175486       0.58402557       0.04590623
C        0.31333115      -0.67871787       0.13220287
C       -1.18780069      -0.51621561       0.17797458
C       -2.45424805       0.81810504       0.16001997
N       -1.73444141       0.27973629      -0.91520612
H        2.59576617      -0.01943731      -1.00254860
H        2.77181070       0.02380420       0.77119106
H        2.67720444       1.54194354      -0.15380270
H        0.65830015      -1.20794449       1.03181221
H        0.57241790      -1.29923366      -0.73934240
H       -1.69119952      -1.47511058       0.28076977
H       -1.38133510       0.30939003       1.16097017
H       -3.32125266       0.17318206       0.37323513
H       -1.03875088       0.94675518      -1.23227389
15
Frame=8 idx=001743 GeodesicLength=0.4171847701552051 rxn_smarts="[C:1]([O:2][C:3]([C@@:4]1([H:12])[C:5]([H:13])([H:14])[N:6]1[H:15])([H:10])[H:11])([H:7])([H:8])[H:9]>>[C:1]([O:2][C:3]([C:4]([N:6]([C:5][H:14])[H:15])([H:12])[H:13])([H:10])[H:11])([H:7])([H:8])[H:9]"
C        2.31146751       0.51629405      -0.09387722
O        0.91594730       0.58306213       0.05287694
C        0.31516803      -0.67928615       0.13615346
C       -1.18487631      -0.51281868       0.18328074
C       -2.47042929       0.80296194       0.15393408
N       -1.72799382       0.28426735      -0.91087573
H        2.59116808      -0.01851399      -1.01044971
H        2.77977191       0.01448757       0.76214674
H        2.68251504       1.53788133      -0.15411636
H        0.65989620      -1.21014426       1.03493862
H        0.57321462      -1.29884873      -0.73632269
H       -1.68756708      -1.47268635       0.28274651
H       -1.38122856       0.33705486       1.16748379
H       -3.33666805       0.15410877       0.35375189
H       -1.04038558       0.96218014      -1.22167107
15
Frame=9 idx=001743 GeodesicLength=0.46885244120221453 rxn_smarts="[C:1]([O:2][C:3]([C@@:4]1([H:12])[C:5]([H:13])([H:14])[N:6]1[H:15])([H:10])[H:11])([H:7])([H:8])[H:9]>>[C:1]([O:2][C:3]([C:4]([N:6]([C:5][H:14])[H:15])([H:12])[H:13])([H:10])[H:11])([H:7])([H:8])[H:9]"
C        2.31431828       0.51291782      -0.09686147
O        0.92005250       0.58200199       0.06000760
C        0.31698999      -0.67997910       0.14022151
C       -1.18196690      -0.50965249       0.18861650
C       -2.48584686       0.78763076       0.14799801
N       -1.72160817       0.28890382      -0.90625622
H        2.58626354      -0.01729877      -1.01843686
H        2.78764461       0.00508628       0.75284626
H        2.68762547       1.53387081      -0.15431629
H        0.66145338      -1.21241574       1.03821616
H        0.57402656      -1.29855305      -0.73319826
H       -1.68396802      -1.47049367       0.28451570
H       -1.38130161       0.36529718       1.17357991
H       -3.35151781       0.13525894       0.33395430
H       -1.04216497       0.97742522      -1.21088684
15
Frame=10 idx=001743 GeodesicLength=0.5204448280463158 rxn_smarts="[C:1]([O:2][C:3]([C@@:4]1([H:12])[C:5]([H:13])([H:14])[N:6]1[H:15])([H:10])[H:11])([H:7])([H:8])[H:9]>>[C:1]([O:2][C:3]([C:4]([N:6]([C:5][H:14])[H:15])([H:12])[H:13])([H:10])[H:11])([H:7])([H:8])[H:9]"
C        2.31698281       0.50960837      -0.09981957
O        0.92404584       0.58083156       0.06722266
C        0.31879749      -0.68082285       0.14433338
C       -1.17907237      -0.50675141       0.19395264
C       -2.50043334       0.77218033       0.14227598
N       -1.71534142       0.29361306      -0.90135023
H        2.58114475      -0.01586431      -1.02637840
H        2.79534950      -0.00427018       0.74342855
H        2.69248987       1.52993869      -0.15444101
H        0.66299209      -1.21480812       1.04155146
H        0.57485175      -1.29834237      -0.73006529
H       -1.68041520      -1.46855398       0.28606831
H       -1.38151068       0.39405993       1.17924997
H       -3.36575071       0.11677158       0.31398586
H       -1.04413037       0.99240971      -1.20001432
15
Frame=11 idx=001743 GeodesicLength=0.571985785041424 rxn_smarts="[C:1]([O:2][C:3]([C@@:4]1([H:12])[C:5]([H:13])([H:14])[N:6]1[H:15])([H:10])[H:11])([H:7])([H:8])[H:9]>>[C:1]([O:2][C:3]([C:4]([N:6]([C:5][H:14])[H:15])([H:12])[H:13])([H:10])[H:11])([H:7])([H:8])[H:9]"
C        2.31945708       0.50636672      -0.10277656
O        0.92793728       0.57955272       0.07460744
C        0.32059700      -0.68181608       0.14854636
C       -1.17618801      -0.50411818       0.19930903
C       -2.51422498       0.75662024       0.13673897
N       -1.70915446       0.29836966      -0.89616686
H        2.57571709      -0.01410996      -1.03437788
H        2.80294831      -0.01367845       0.73376477
H        2.69712173       1.52608416      -0.15443042
H        0.66451048      -1.21731392       1.04500857
H        0.57570776      -1.29822580      -0.72685608
H       -1.67689970      -1.46687251       0.28741181
H       -1.38190022       0.42335633       1.18448249
H       -3.37940206       0.09865625       0.29377562
H       -1.04622728       1.00712881      -1.18903727
15
Frame=12 idx=001743 GeodesicLength=0.6234567457332356 rxn_smarts="[C:1]([O:2][C:3]([C@@:4]1([H:12])[C:5]([H:13])([H:14])[N:6]1[H:15])([H:10])[H:11])([H:7])([H:8])[H:9]>>[C:1]([O:2][C:3]([C:4]([N:6]([C:5][H:14])[H:15])([H:12])[H:13])([H:10])[H:11])([H:7])([H:8])[H:9]"
C        2.32173014       0.50321006      -0.10569671
O        0.93170543       0.57815212       0.08209992
C        0.32238994      -0.68298231       0.15279755
C       -1.17331188      -0.50178288       0.20465881
C       -2.52717519       0.74101334       0.13144065
N       -1.70309002       0.30313794      -0.89071426
H        2.57005614      -0.01208765      -1.04232950
H        2.81037435      -0.02303298       0.72396981
H        2.70148195       1.52233052      -0.15430487
H        0.66602593      -1.21997488       1.04850748
H        0.57659497      -1.29819933      -0.72365171
H       -1.67343316      -1.46546748       0.28854208
H       -1.38242785       0.45313927       1.18926637
H       -3.39244291       0.08103595       0.27346225
H       -1.04847785       1.02150830      -1.17804787
15
Frame=13 idx=001743 GeodesicLength=0.6748941824033041 rxn_smarts="[C:1]([O:2][C:3]([C@@:4]1([H:12])[C:5]([H:13])([H:14])[N:6]1[H:15])([H:10])[H:11])([H:7])([H:8])[H:9]>>[C:1]([O:2][C:3]([C:4]([N:6]([C:5][H:14])[H:15])([H:12])[H:13])([H:10])[H:11])([H:7])([H:8])[H:9]"
C        2.32379477       0.50014247      -0.10860270
O        0.93535901       0.57662749       0.08978965
C        0.32418325      -0.68432454       0.15714349
C       -1.17043927      -0.49975004       0.21002084
C       -2.53931298       0.72536893       0.12634402
N       -1.69710878       0.30788853      -0.88500297
H        2.56405912      -0.00968561      -1.05033479
H        2.81768992      -0.03243210       0.71390649
H        2.70557648       1.51868039      -0.15399631
H        0.66753670      -1.22278882       1.05211102
H        0.57753192      -1.29827585      -0.72038474
H       -1.67000791      -1.46433961       0.28947025
H       -1.38313696       0.48342551       1.19359446
H       -3.40489501       0.06393246       0.25297772
H       -1.05083026       1.03553080      -1.16703644
15
Frame=14 idx=001743 GeodesicLength=0.726280552339736 rxn_smarts="[C:1]([O:2][C:3]([C@@:4]1([H:12])[C:5]([H:13])([H:14])[N:6]1[H:15])([H:10])[H:11])([H:7])([H:8])[H:9]>>[C:1]([O:2][C:3]([C:4]([N:6]([C:5][H:14])[H:15])([H:12])[H:13])([H:10])[H:11])([H:7])([H:8])[H:9]"
C        2.32564752       0.49717930      -0.11145489
O        0.93887994       0.57496800       0.09760329
C        0.32597772      -0.68586426       0.16151344
C       -1.16756891      -0.49804749       0.21536428
C       -2.55061101       0.70974539       0.12150737
N       -1.69125626       0.31258659      -0.87904453
H        2.55782204      -0.00697338      -1.05827657
H        2.82482552      -0.04175847       0.70371099
H        2.70937635       1.51515596      -0.15353459
H        0.66905862      -1.22579902       1.05573036
H        0.57851862      -1.29844878      -0.71714675
H       -1.66663578      -1.46350820       0.29019014
H       -1.38397881       0.51417617       1.19745356
H       -3.41674560       0.04745562       0.23248122
H       -1.05330999       1.04913258      -1.15609733
15
Frame=15 idx=001743 GeodesicLength=0.7776063808334339 rxn_smarts="[C:1]([O:2][C:3]([C@@:4]1([H:12])[C:5]([H:13])([H:14])[N:6]1[H:15])([H:10])[H:11])([H:7])([H:8])[H:9]>>[C:1]([O:2][C:3]([C:4]([N:6]([C:5][H:14])[H:15])([H:12])[H:13])([H:10])[H:11])([H:7])([H:8])[H:9]"
C        2.32728423       0.49433621      -0.11421831
O        0.94225021       0.57316224       0.10548658
C        0.32777585      -0.68762203       0.16584777
C       -1.16469840      -0.49670197       0.22065912
C       -2.56105217       0.69420034       0.11697170
N       -1.68556738       0.31718940      -0.87285680
H        2.55142046      -0.00399611      -1.06606355
H        2.83173249      -0.05092094       0.69349075
H        2.71284905       1.51178051      -0.15292854
H        0.67060696      -1.22904463       1.05928950
H        0.57956000      -1.29871215      -0.71401277
H       -1.66332652      -1.46298699       0.29069616
H       -1.38491273       0.54535578       1.20083445
H       -3.42799318       0.03171798       0.21212753
H       -1.05592888       1.06224237      -1.14532358
15
Frame=16 idx=001743 GeodesicLength=0.8288925771445403 rxn_smarts="[C:1]([O:2][C:3]([C@@:4]1([H:12])[C:5]([H:13])([H:14])[N:6]1[H:15])([H:10])[H:11])([H:7])([H:8])[H:9]>>[C:1]([O:2][C:3]([C:4]([N:6]([C:5][H:14])[H:15])([H:12])[H:13])([H:10])[H:11])([H:7])([H:8])[H:9]"
C        2.32870252       0.49161255      -0.11690650
O        0.94547894       0.57120930       0.11349591
C        0.32958331      -0.68959810       0.17018331
C       -1.16182206      -0.49571508       0.22591563
C       -2.57067549       0.67873178       0.11272035
N       -1.68001589       0.32167582      -0.86645032
H        2.54478665      -0.00067549      -1.07376398
H        2.83845186      -0.05999391       0.68315061
H        2.71600922       1.50855000      -0.15211890
H        0.67217903      -1.23252033       1.06283125
H        0.58067119      -1.29907541      -0.71093600
H       -1.66006943      -1.46277779       0.29099738
H       -1.38595868       0.57700015       1.20371059
H       -3.43866671       0.01671800       0.19188493
H       -1.05865444       1.07485850      -1.13471427
