16
Frame=0 idx=004069 GeodesicLength=0.0 rxn_smarts="[C:1]([C@@:2]1([H:10])[C:3]([H:11])([H:12])[C@:4]1([C:5]([H:13])([H:14])[H:15])[O:6][H:16])([H:7])([H:8])[H:9]>>[C:1]([C@@:2]([C:3]([C:5]([H:13])([H:14])[H:15])([H:11])[H:12])([C:4][O:6][H:16])[H:10])([H:7])([H:8])[H:9]"
C        1.80128511      -0.16041710       0.96110790
C        0.98096985       0.03602672      -0.29230803
C       -0.11738342      -0.89870113      -0.53652822
C       -0.18774711       0.98205621      -0.17288289
C       -1.69079947      -0.08333320       0.26289313
O       -0.42325659       1.53391178      -1.40708502
H        2.48203182      -1.00869085       0.85364946
H        2.38932068       0.73102559       1.18349707
H        1.15162071      -0.35005240       1.81782199
H        1.56923228       0.26326046      -1.17758768
H       -0.40611300      -1.06368462      -1.56564957
H       -0.21554516      -1.75233874       0.12331210
H       -2.24405359      -0.92817570      -0.17136601
H       -2.33806975       0.77859082       0.09842974
H       -1.60047373      -0.23300007       1.33500638
H       -1.15101860       2.15352220      -1.31231031
16
Frame=1 idx=004069 GeodesicLength=0.05699328947480351 rxn_smarts="[C:1]([C@@:2]1([H:10])[C:3]([H:11])([H:12])[C@:4]1([C:5]([H:13])([H:14])[H:15])[O:6][H:16])([H:7])([H:8])[H:9]>>[C:1]([C@@:2]([C:3]([C:5]([H:13])([H:14])[H:15])([H:11])[H:12])([C:4][O:6][H:16])[H:10])([H:7])([H:8])[H:9]"
C        1.78748762      -0.15176430       0.96470245
C        0.97917548       0.03203313      -0.29863988
C       -0.12232905      -0.90255095      -0.54655858
C       -0.18935942       0.97684037      -0.19421517
C       -1.68597194      -0.09253679       0.27570433
O       -0.40977168       1.54551543      -1.42120128
H        2.46790354      -1.00184160       0.87058007
H        2.37445653       0.74150849       1.18287812
H        1.13315118      -0.33414557       1.81931803
H        1.57542101       0.25276053      -1.18034944
H       -0.40633193      -1.06847164      -1.57718309
H       -0.20593472      -1.76684961       0.10159950
H       -2.25995455      -0.92230252      -0.15978595
H       -2.33103274       0.77640647       0.14051920
H       -1.57771715      -0.25873785       1.34407749
H       -1.12919217       2.17413641      -1.32144580
16
Frame=2 idx=004069 GeodesicLength=0.11415307964171639 rxn_smarts="[C:1]([C@@:2]1([H:10])[C:3]([H:11])([H:12])[C@:4]1([C:5]([H:13])([H:14])[H:15])[O:6][H:16])([H:7])([H:8])[H:9]>>[C:1]([C@@:2]([C:3]([C:5]([H:13])([H:14])[H:15])([H:11])[H:12])([C:4][O:6][H:16])[H:10])([H:7])([H:8])[H:9]"
C        1.77316769      -0.14268645       0.96805737
C        0.97692861       0.02797119      -0.30499463
C       -0.12749306      -0.90679908      -0.55660131
C       -0.19167649       0.97115038      -0.21605547
C       -1.68102604      -0.10224000       0.28856831
O       -0.39570025       1.55720471      -1.43537286
H        2.45329405      -0.99433825       0.88744202
H        2.35889992       0.75255486       1.18180728
H        1.11430570      -0.31777486       1.82059572
H        1.58123669       0.24197162      -1.18300244
H       -0.40656451      -1.07376583      -1.58875249
H       -0.19618092      -1.78133612       0.07979296
H       -2.27600270      -0.91631280      -0.14743783
H       -2.32283983       0.77354439       0.18351543
H       -1.55510178      -0.28533160       1.35260289
H       -1.10524707       2.19618784      -1.33016494
16
Frame=3 idx=004069 GeodesicLength=0.17149301652231508 rxn_smarts="[C:1]([C@@:2]1([H:10])[C:3]([H:11])([H:12])[C@:4]1([C:5]([H:13])([H:14])[H:15])[O:6][H:16])([H:7])([H:8])[H:9]>>[C:1]([C@@:2]([C:3]([C:5]([H:13])([H:14])[H:15])([H:11])[H:12])([C:4][O:6][H:16])[H:10])([H:7])([H:8])[H:9]"
C        1.75828830      -0.13313690       0.97114179
C        0.97418596       0.02384184      -0.31139104
C       -0.13289088      -0.91148773      -0.56665060
C       -0.19475944       0.96494763      -0.23846359
C       -1.67597607      -0.11247739       0.30147222
O       -0.38105300       1.56895632      -1.44957834
H        2.43817916      -0.98611855       0.90422116
H        2.34260204       0.76422219       1.18021903
H        1.09505658      -0.30087755       1.82163567
H        1.58663357       0.23088690      -1.18556037
H       -0.40681658      -1.07963821      -1.60034668
H       -0.18626985      -1.79581166       0.05793181
H       -2.29219737      -0.91022231      -0.13428699
H       -2.31341706       0.76993574       0.22737223
H       -1.53266357      -0.31281140       1.36056197
H       -1.07890179       2.21979109      -1.33827825
16
Frame=4 idx=004069 GeodesicLength=0.22903357103600228 rxn_smarts="[C:1]([C@@:2]1([H:10])[C:3]([H:11])([H:12])[C@:4]1([C:5]([H:13])([H:14])[H:15])[O:6][H:16])([H:7])([H:8])[H:9]>>[C:1]([C@@:2]([C:3]([C:5]([H:13])([H:14])[H:15])([H:11])[H:12])([C:4][O:6][H:16])[H:10])([H:7])([H:8])[H:9]"
C        1.74280458      -0.12306125       0.97392144
C        0.97089948       0.01964536      -0.31785368
C       -0.13853877      -0.91666505      -0.57670358
C       -0.19867528       0.95818898      -0.26150999
C       -1.67083529      -0.12328485       0.31440270
O       -0.36585325       1.58074527      -1.46379530
H        2.42252978      -0.97711024       0.92090585
H        2.32550287       0.77657809       1.17804031
H        1.07536746      -0.28337963       1.82241561
H        1.59156064       0.21949928      -1.18804344
H       -0.40709526      -1.08616993      -1.61195785
H       -0.17618382      -1.81029458       0.03605597
H       -2.30853722      -0.90404555      -0.12029722
H       -2.30268300       0.76551327       0.27203905
H       -1.51043355      -0.34120866       1.36793466
H       -1.04982938       2.24504947      -1.34555452
16
Frame=5 idx=004069 GeodesicLength=0.2867961684618658 rxn_smarts="[C:1]([C@@:2]1([H:10])[C:3]([H:11])([H:12])[C@:4]1([C:5]([H:13])([H:14])[H:15])[O:6][H:16])([H:7])([H:8])[H:9]>>[C:1]([C@@:2]([C:3]([C:5]([H:13])([H:14])[H:15])([H:11])[H:12])([C:4][O:6][H:16])[H:10])([H:7])([H:8])[H:9]"
C        1.72666847      -0.11239513       0.97635843
C        0.96701966       0.01538120      -0.32441182
C       -0.14445333      -0.92238448      -0.58675821
C       -0.20349473       0.95082649      -0.28527740
C       -1.66561457      -0.13469909       0.32734622
O       -0.35014873       1.59254000      -1.47799595
H        2.40630841      -0.96723509       0.93749618
H        2.30754536       0.78969817       1.17518412
H        1.05519652      -0.26518121       1.82290781
H        1.59596380       0.20780219      -1.19047470
H       -0.40741015      -1.09345315      -1.62357610
H       -0.16590542      -1.82480696       0.01420446
H       -2.32502397      -0.89777969      -0.10545171
H       -2.29054249       0.76021448       0.31746336
H       -1.48844075      -0.37056754       1.37469650
H       -1.01766809       2.27203980      -1.35171118
16
Frame=6 idx=004069 GeodesicLength=0.34485742950188514 rxn_smarts="[C:1]([C@@:2]1([H:10])[C:3]([H:11])([H:12])[C@:4]1([C:5]([H:13])([H:14])[H:15])[O:6][H:16])([H:7])([H:8])[H:9]>>[C:1]([C@@:2]([C:3]([C:5]([H:13])([H:14])[H:15])([H:11])[H:12])([C:4][O:6][H:16])[H:10])([H:7])([H:8])[H:9]"
C        1.70978289      -0.10104654       0.97839569
C        0.96248238       0.01104235      -0.33111357
C       -0.15065747      -0.92870358      -0.59683092
C       -0.20929789       0.94278701      -0.30987500
C       -1.66031354      -0.14677078       0.34029714
O       -0.33397109       1.60429800      -1.49215266
H        2.38943698      -0.95636499       0.95399877
H        2.28859618       0.80369441       1.17153603
H        1.03444117      -0.24614968       1.82305678
H        1.59978719       0.19578193      -1.19288601
H       -0.40777942      -1.10157834      -1.63520116
H       -0.15540664      -1.83937477      -0.00761415
H       -2.34165914      -0.89143202      -0.08967541
H       -2.27685713       0.75396617       0.36364841
H       -1.46668697      -0.40096350       1.38081514
H       -0.98189751       2.30081432      -1.35639908
16
Frame=7 idx=004069 GeodesicLength=0.4032714189827325 rxn_smarts="[C:1]([C@@:2]1([H:10])[C:3]([H:11])([H:12])[C@:4]1([C:5]([H:13])([H:14])[H:15])[O:6][H:16])([H:7])([H:8])[H:9]>>[C:1]([C@@:2]([C:3]([C:5]([H:13])([H:14])[H:15])([H:11])[H:12])([C:4][O:6][H:16])[H:10])([H:7])([H:8])[H:9]"
C        1.69208928      -0.08893386       0.97999298
C        0.95722780       0.00663190      -0.33800025
C       -0.15717129      -0.93569168      -0.60693196
C       -0.21617407       0.93402387      -0.33541008
C       -1.65494159      -0.15953396       0.35323880
O       -0.31741816       1.61601151      -1.50623236
H        2.37187279      -0.94440710       0.97042314
H        2.26858517       0.81866860       1.16699979
H        1.01304840      -0.22615926       1.82283443
H        1.60296376       0.18344205      -1.19531615
H       -0.40822121      -1.11066256      -1.64684319
H       -0.14465924      -1.85403830      -0.02936205
H       -2.35844929      -0.88498895      -0.07294970
H       -2.26151020       0.74672001       0.41052273
H       -1.44518985      -0.43243800       1.38626806
H       -0.94205230       2.33135572      -1.35923418
16
Frame=8 idx=004069 GeodesicLength=0.46206938125004937 rxn_smarts="[C:1]([C@@:2]1([H:10])[C:3]([H:11])([H:12])[C@:4]1([C:5]([H:13])([H:14])[H:15])[O:6][H:16])([H:7])([H:8])[H:9]>>[C:1]([C@@:2]([C:3]([C:5]([H:13])([H:14])[H:15])([H:11])[H:12])([C:4][O:6][H:16])[H:10])([H:7])([H:8])[H:9]"
C        1.67348814      -0.07597687       0.98108971
C        0.95119339       0.00216954      -0.34510918
C       -0.16400687      -0.94337201      -0.61707347
C       -0.22419024       0.92448675      -0.36197910
C       -1.64948226      -0.17300054       0.36616645
O       -0.30053161       1.62766353      -1.52014948
H        2.35351609      -0.93124818       0.98674379
H        2.24739802       0.83469365       1.16146672
H        0.99091460      -0.20509415       1.82217753
H        1.60543647       0.17080662      -1.19778427
H       -0.40872621      -1.12075716      -1.65850015
H       -0.13363869      -1.86878244      -0.05103263
H       -2.37536932      -0.87837370      -0.05523793
H       -2.24431011       0.73844133       0.45804907
H       -1.42395727      -0.46503531       1.39101728
H       -0.89773413       2.36337894      -1.35984434
16
Frame=9 idx=004069 GeodesicLength=0.5212559765542365 rxn_smarts="[C:1]([C@@:2]1([H:10])[C:3]([H:11])([H:12])[C@:4]1([C:5]([H:13])([H:14])[H:15])[O:6][H:16])([H:7])([H:8])[H:9]>>[C:1]([C@@:2]([C:3]([C:5]([H:13])([H:14])[H:15])([H:11])[H:12])([C:4][O:6][H:16])[H:10])([H:7])([H:8])[H:9]"
C        1.65393738      -0.06213854       0.98164286
C        0.94433653      -0.00230251      -0.35245831
C       -0.17117735      -0.95175253      -0.62726569
C       -0.23339500       0.91417254      -0.38964981
C       -1.64394007      -0.18714218       0.37904298
O       -0.28336147       1.63932500      -1.53377104
H        2.33434650      -0.91682262       1.00290129
H        2.22499357       0.85180171       1.15488770
H        0.96799820      -0.18293032       1.82103718
H        1.60716763       0.15794098      -1.20028940
H       -0.40929787      -1.13189222      -1.67017978
H       -0.12233655      -1.88358557      -0.07259858
H       -2.39239457      -0.87155084      -0.03646857
H       -2.22515379       0.72912182       0.50602090
H       -1.40300307      -0.49864781       1.39503426
H       -0.84872007       2.39640309      -1.35788601
16
Frame=10 idx=004069 GeodesicLength=0.5808343224498582 rxn_smarts="[C:1]([C@@:2]1([H:10])[C:3]([H:11])([H:12])[C@:4]1([C:5]([H:13])([H:14])[H:15])[O:6][H:16])([H:7])([H:8])[H:9]>>[C:1]([C@@:2]([C:3]([C:5]([H:13])([H:14])[H:15])([H:11])[H:12])([C:4][O:6][H:16])[H:10])([H:7])([H:8])[H:9]"
C        1.63338818      -0.04740214       0.98162026
C        0.93663283      -0.00673831      -0.36005935
C       -0.17867841      -0.96080746      -0.63752617
C       -0.24379514       0.90309787      -0.41847583
C       -1.63829163      -0.20188795       0.39183834
O       -0.26594123       1.65105662      -1.54692900
H        2.31432151      -0.90109256       1.01883883
H        2.20132789       0.86998698       1.14723916
H        0.94424169      -0.15966113       1.81936985
H        1.60814360       0.14491845      -1.20281935
H       -0.40990658      -1.14405417      -1.68189856
H       -0.11074227      -1.89839735      -0.09406452
H       -2.40947525      -0.86437992      -0.01661297
H       -2.20386460       0.71881813       0.55427358
H       -1.38233127      -0.53317989       1.39828487
H       -0.79502932       2.42972285      -1.35307915
16
Frame=11 idx=004069 GeodesicLength=0.6408964935804795 rxn_smarts="[C:1]([C@@:2]1([H:10])[C:3]([H:11])([H:12])[C@:4]1([C:5]([H:13])([H:14])[H:15])[O:6][H:16])([H:7])([H:8])[H:9]>>[C:1]([C@@:2]([C:3]([C:5]([H:13])([H:14])[H:15])([H:11])[H:12])([C:4][O:6][H:16])[H:10])([H:7])([H:8])[H:9]"
C        1.61177573      -0.03170927       0.98094929
C        0.92804633      -0.01111597      -0.36797186
C       -0.18649885      -0.97057473      -0.64785782
C       -0.25541797       0.89123632      -0.44855219
C       -1.63253938      -0.21721363       0.40449610
O       -0.24848919       1.66289165      -1.55948821
H        2.29337528      -0.88398806       1.03451870
H        2.17634420       0.88930215       1.13839677
H        0.91956820      -0.13518914       1.81711179
H        1.60831282       0.13181627      -1.20544421
H       -0.41050176      -1.15733610      -1.69365648
H       -0.09883992      -1.91321446      -0.11536170
H       -2.42653888      -0.85685906       0.00441142
H       -2.18037302       0.70753163       0.60246466
H       -1.36196324      -0.56844987       1.40076434
H       -0.73626035       2.46287227      -1.34478060
16
Frame=12 idx=004069 GeodesicLength=0.7014579870730079 rxn_smarts="[C:1]([C@@:2]1([H:10])[C:3]([H:11])([H:12])[C@:4]1([C:5]([H:13])([H:14])[H:15])[O:6][H:16])([H:7])([H:8])[H:9]>>[C:1]([C@@:2]([C:3]([C:5]([H:13])([H:14])[H:15])([H:11])[H:12])([C:4][O:6][H:16])[H:10])([H:7])([H:8])[H:9]"
C        1.58906182      -0.01513250       0.97965516
C        0.91861935      -0.01535096      -0.37610897
C       -0.19464611      -0.98084463      -0.65831522
C       -0.26808785       0.87868149      -0.47982208
C       -1.62655296      -0.23289995       0.41697322
O       -0.23072101       1.67488848      -1.57107899
H        2.27142277      -0.86553157       1.04988257
H        2.15002914       0.90959101       1.12851324
H        0.89391063      -0.10965881       1.81418276
H        1.60778227       0.11872646      -1.20794086
H       -0.41108575      -1.17143550      -1.70546715
H       -0.08668047      -1.92781715      -0.13668513
H       -2.44352654      -0.84849002       0.02655784
H       -2.15416960       0.69546886       0.65067640
H       -1.34180917      -0.60445369       1.40228873
H       -0.67354651       2.49425850      -1.33331152
16
Frame=13 idx=004069 GeodesicLength=0.7627917183942162 rxn_smarts="[C:1]([C@@:2]1([H:10])[C:3]([H:11])([H:12])[C@:4]1([C:5]([H:13])([H:14])[H:15])[O:6][H:16])([H:7])([H:8])[H:9]>>[C:1]([C@@:2]([C:3]([C:5]([H:13])([H:14])[H:15])([H:11])[H:12])([C:4][O:6][H:16])[H:10])([H:7])([H:8])[H:9]"
C        1.56527032       0.00231032       0.97772040
C        0.90841689      -0.01944703      -0.38454855
C       -0.20304725      -0.99170707      -0.66891867
C       -0.28174578       0.86550393      -0.51235411
C       -1.62038476      -0.24886128       0.42922373
O       -0.21294812       1.68716479      -1.58161531
H        2.24850251      -0.84582232       1.06492137
H        2.12243744       0.93087660       1.11754869
H        0.86723059      -0.08304829       1.81062345
H        1.60662786       0.10572427      -1.21046382
H       -0.41151304      -1.18651744      -1.71740413
H       -0.07422634      -1.94232342      -0.15794675
H       -2.46037963      -0.83926393       0.04991865
H       -2.12532939       0.68276491       0.69845148
H       -1.32196532      -0.64087762       1.40296105
H       -0.60694599       2.52352359      -1.31811750
16
Frame=14 idx=004069 GeodesicLength=0.8249520223646246 rxn_smarts="[C:1]([C@@:2]1([H:10])[C:3]([H:11])([H:12])[C@:4]1([C:5]([H:13])([H:14])[H:15])[O:6][H:16])([H:7])([H:8])[H:9]>>[C:1]([C@@:2]([C:3]([C:5]([H:13])([H:14])[H:15])([H:11])[H:12])([C:4][O:6][H:16])[H:10])([H:7])([H:8])[H:9]"
C        1.54034699       0.02055186       0.97516939
C        0.89741675      -0.02339118      -0.39324739
C       -0.21169443      -1.00299187      -0.67969208
C       -0.29624548       0.85168272      -0.54614374
C       -1.61382558      -0.26491445       0.44110172
O       -0.19540774       1.69961511      -1.59081744
H        2.22447200      -0.82486456       1.07970933
H        2.09352646       0.95295673       1.10557025
H        0.83953383      -0.05538302       1.80636454
H        1.60474223       0.09288231      -1.21287903
H       -0.41179940      -1.20237198      -1.72945685
H       -0.06150907      -1.95647557      -0.17918672
H       -2.47682781      -0.82878725       0.07441734
H       -2.09342437       0.66949179       0.74547528
H       -1.30221934      -0.67750798       1.40262208
H       -0.53708505       2.54950734      -1.29900668
16
Frame=15 idx=004069 GeodesicLength=0.8883729803500652 rxn_smarts="[C:1]([C@@:2]1([H:10])[C:3]([H:11])([H:12])[C@:4]1([C:5]([H:13])([H:14])[H:15])[O:6][H:16])([H:7])([H:8])[H:9]>>[C:1]([C@@:2]([C:3]([C:5]([H:13])([H:14])[H:15])([H:11])[H:12])([C:4][O:6][H:16])[H:10])([H:7])([H:8])[H:9]"
C        1.51430289       0.03942956       0.97202991
C        0.88581853      -0.02713464      -0.40216428
C       -0.22048463      -1.01455843      -0.69067401
C       -0.31123473       0.83741841      -0.58104801
C       -1.60686473      -0.28082294       0.45262515
O       -0.17786358       1.71228583      -1.59843832
H        2.19928564      -0.80287801       1.09414505
H        2.06336500       0.97565121       1.09273711
H        0.81068744      -0.02691660       1.80141524
H        1.60246893       0.08030379      -1.21511759
H       -0.41171428      -1.21878987      -1.74166563
H       -0.04856461      -1.97020128      -0.20053677
H       -2.49282175      -0.81665315       0.10017875
H       -2.05818198       0.65589933       0.79174008
H       -1.28270104      -0.71421897       1.40123820
H       -0.46549711       2.57118576      -1.27646488
16
Frame=16 idx=004069 GeodesicLength=0.9532489632649827 rxn_smarts="[C:1]([C@@:2]1([H:10])[C:3]([H:11])([H:12])[C@:4]1([C:5]([H:13])([H:14])[H:15])[O:6][H:16])([H:7])([H:8])[H:9]>>[C:1]([C@@:2]([C:3]([C:5]([H:13])([H:14])[H:15])([H:11])[H:12])([C:4][O:6][H:16])[H:10])([H:7])([H:8])[H:9]"
C        1.48729765       0.05879658       0.96840924
C        0.87373627      -0.03068121      -0.41122613
C       -0.22938571      -1.02634448      -0.70186061
C       -0.32650526       0.82283502      -0.61693280
C       -1.59947754      -0.29641103       0.46367304
O       -0.16077192       1.72504778      -1.60438704
H        2.17306299      -0.78007771       1.10830281
H        2.03218824       0.99877915       1.07925797
H        0.78085692       0.00218807       1.79584200
H        1.59986751       0.06807808      -1.21708726
H       -0.41124128      -1.23570465      -1.75403970
H       -0.03542634      -1.98347291      -0.22199657
H       -2.50822101      -0.80261826       0.12710321
H       -2.01954212       0.64213050       0.83678439
H       -1.26337911      -0.75071192       1.39877279
H       -0.39305929       2.58816699      -1.25061534
