13
Frame=0 idx=008526 GeodesicLength=0.0 rxn_smarts="[O:1]=[C:2]1[C:3]([H:8])([H:9])[O:4][C@@:5]2([H:10])[C:6]([H:11])([H:12])[C@@:7]12[H:13]>>[O:1]=[C:2]=[C:3]([H:8])[H:9].[O:4]=[C:5]([C:7](=[C:6]([H:11])[H:12])[H:13])[H:10]"
O        0.87900666       2.15196848       0.53929068
C        0.67690173       0.98673021       0.27097676
C        1.61062936      -0.10645070       0.15353584
O        0.59476561      -1.04940763      -1.27171806
C       -0.49477759      -0.48137487      -1.25552731
C       -1.19812607      -0.34029959       0.95492308
C       -0.73652670       0.47669736      -0.14667577
H        1.53371052      -1.01214864       0.72943759
H        2.58196203       0.11660027      -0.27132311
H       -1.24938570      -0.69434994      -2.01295949
H       -0.68985597      -1.25909339       1.20792634
H       -2.10757123      -0.09421062       1.48184076
H       -1.40073269       1.30533911      -0.37972736
13
Frame=1 idx=008526 GeodesicLength=0.13993401254157162 rxn_smarts="[O:1]=[C:2]1[C:3]([H:8])([H:9])[O:4][C@@:5]2([H:10])[C:6]([H:11])([H:12])[C@@:7]12[H:13]>>[O:1]=[C:2]=[C:3]([H:8])[H:9].[O:4]=[C:5]([C:7](=[C:6]([H:11])[H:12])[H:13])[H:10]"
O        0.89036229       2.12133297       0.63495464
C        0.69870649       0.97969685       0.27956698
C        1.63326429      -0.10495625       0.12888798
O        0.58718258      -1.05145617      -1.26901681
C       -0.51821759      -0.50784175      -1.23845068
C       -1.22671595      -0.33422914       0.93165511
C       -0.75258683       0.48335006      -0.16009900
H        1.58171478      -1.01676824       0.69916984
H        2.60234262       0.13635974      -0.29148555
H       -1.26292536      -0.71999429      -2.00631915
H       -0.67510237      -1.20463651       1.25342800
H       -2.14283886      -0.08901382       1.44753245
H       -1.41518611       1.30815656      -0.40982381
13
Frame=2 idx=008526 GeodesicLength=0.2797051776184516 rxn_smarts="[O:1]=[C:2]1[C:3]([H:8])([H:9])[O:4][C@@:5]2([H:10])[C:6]([H:11])([H:12])[C@@:7]12[H:13]>>[O:1]=[C:2]=[C:3]([H:8])[H:9].[O:4]=[C:5]([C:7](=[C:6]([H:11])[H:12])[H:13])[H:10]"
O        0.90135051       2.08426636       0.72954276
C        0.72097056       0.97234088       0.28978293
C        1.65621062      -0.10270633       0.10400779
O        0.57984438      -1.05261847      -1.26559449
C       -0.54073521      -0.53371152      -1.22062729
C       -1.25444361      -0.32860903       0.90912554
C       -0.76910667       0.48955075      -0.17356867
H        1.63133992      -1.02119768       0.66659166
H        2.62265292       0.15776405      -0.31141108
H       -1.27541021      -0.74588768      -1.99865596
H       -0.66479520      -1.14495440       1.29718820
H       -2.17701654      -0.08370513       1.41386026
H       -1.43086146       1.30946821      -0.44024166
13
Frame=3 idx=008526 GeodesicLength=0.41930404411600863 rxn_smarts="[O:1]=[C:2]1[C:3]([H:8])([H:9])[O:4][C@@:5]2([H:10])[C:6]([H:11])([H:12])[C@@:7]12[H:13]>>[O:1]=[C:2]=[C:3]([H:8])[H:9].[O:4]=[C:5]([C:7](=[C:6]([H:11])[H:12])[H:13])[H:10]"
O        0.91251827       2.04130803       0.82202019
C        0.74386949       0.96458333       0.30188676
C        1.67946706      -0.09964899       0.07910052
O        0.57278615      -1.05267426      -1.26132754
C       -0.56224241      -0.55866276      -1.20201288
C       -1.28113508      -0.32314071       0.88762994
C       -0.78605864       0.49548947      -0.18694056
H        1.68248105      -1.02532483       0.63170081
H        2.64288347       0.18073885      -0.33081327
H       -1.28709212      -0.77237530      -1.98940996
H       -0.65934456      -1.08110444       1.33837951
H       -2.21032663      -0.07855409       1.38063110
H       -1.44780607       1.30936569      -0.47084461
13
Frame=4 idx=008526 GeodesicLength=0.5588862020547597 rxn_smarts="[O:1]=[C:2]1[C:3]([H:8])([H:9])[O:4][C@@:5]2([H:10])[C:6]([H:11])([H:12])[C@@:7]12[H:13]>>[O:1]=[C:2]=[C:3]([H:8])[H:9].[O:4]=[C:5]([C:7](=[C:6]([H:11])[H:12])[H:13])[H:10]"
O        0.92432741       1.99307523       0.91185765
C        0.76757809       0.95627653       0.31613956
C        1.70310321      -0.09574370       0.05428768
O        0.56603356      -1.05159420      -1.25608633
C       -0.58270995      -0.58254184      -1.18256099
C       -1.30681668      -0.31745410       0.86737520
C       -0.80345988       0.50135672      -0.20014923
H        1.73515722      -1.02904010       0.59440598
H        2.66309135       0.20526258      -0.34956669
H       -1.29816798      -0.79976880      -1.97823504
H       -0.65900641      -1.01417191       1.37643473
H       -2.24305445      -0.07361155       1.34774496
H       -1.46607550       1.30795514      -0.50164749
13
Frame=5 idx=008526 GeodesicLength=0.6984208047786034 rxn_smarts="[O:1]=[C:2]1[C:3]([H:8])([H:9])[O:4][C@@:5]2([H:10])[C:6]([H:11])([H:12])[C@@:7]12[H:13]>>[O:1]=[C:2]=[C:3]([H:8])[H:9].[O:4]=[C:5]([C:7](=[C:6]([H:11])[H:12])[H:13])[H:10]"
O        0.93706174       1.94007519       0.99880483
C        0.79221449       0.94712375       0.33281078
C        1.72714361      -0.09094929       0.02964139
O        0.55957747      -1.04941463      -1.24968354
C       -0.60213027      -0.60527238      -1.16219069
C       -1.33159859      -0.31115479       0.84846474
C       -0.82132656       0.50730310      -0.21322486
H        1.78939217      -1.03220819       0.55454919
H        2.68322414       0.23139249      -0.36762697
H       -1.30869667      -0.82825511      -1.96493150
H       -0.66388743      -0.94524912       1.41098827
H       -2.27531881      -0.06867118       1.31524060
H       -1.48565530       1.30528017      -0.53284224
13
Frame=6 idx=008526 GeodesicLength=0.8379433916757544 rxn_smarts="[O:1]=[C:2]1[C:3]([H:8])([H:9])[O:4][C@@:5]2([H:10])[C:6]([H:11])([H:12])[C@@:7]12[H:13]>>[O:1]=[C:2]=[C:3]([H:8])[H:9].[O:4]=[C:5]([C:7](=[C:6]([H:11])[H:12])[H:13])[H:10]"
O        0.95099544       1.88242752       1.08316703
C        0.81783078       0.93676731       0.35209518
C        1.75158926      -0.08522695       0.00511900
O        0.55337115      -1.04630932      -1.24188616
C       -0.62054682      -0.62692626      -1.14079415
C       -1.35571956      -0.30396155       0.83082678
C       -0.83969244       0.51341646      -0.22627005
H        1.84532042      -1.03467905       0.51179947
H        2.70313033       0.25929396      -0.38511240
H       -1.31863924      -0.85789536      -1.94944375
H       -0.67378443      -0.87473184       1.44225165
H       -2.30735897      -0.06352335       1.28296852
H       -1.50649592       1.30134844      -0.56472111
13
Frame=7 idx=008526 GeodesicLength=0.9774273988845537 rxn_smarts="[O:1]=[C:2]1[C:3]([H:8])([H:9])[O:4][C@@:5]2([H:10])[C:6]([H:11])([H:12])[C@@:7]12[H:13]>>[O:1]=[C:2]=[C:3]([H:8])[H:9].[O:4]=[C:5]([C:7](=[C:6]([H:11])[H:12])[H:13])[H:10]"
O        0.96629408       1.82014603       1.16527029
C        0.84448764       0.92474426       0.37423885
C        1.77643461      -0.07851022      -0.01933226
O        0.54737921      -1.04248855      -1.23242639
C       -0.63800523      -0.64758152      -1.11824500
C       -1.37942197      -0.29554670       0.81439395
C       -0.85857747       0.51976948      -0.23942240
H        1.90304607      -1.03623793       0.46576399
H        2.72263841       0.28921130      -0.40211469
H       -1.32791506      -0.88878154      -1.93170797
H       -0.68855086      -0.80305322       1.47029997
H       -2.33930652      -0.05779528       1.25090484
H       -1.52850291       1.29612389      -0.59762317
13
Frame=8 idx=008526 GeodesicLength=1.1169200879989234 rxn_smarts="[O:1]=[C:2]1[C:3]([H:8])([H:9])[O:4][C@@:5]2([H:10])[C:6]([H:11])([H:12])[C@@:7]12[H:13]>>[O:1]=[C:2]=[C:3]([H:8])[H:9].[O:4]=[C:5]([C:7](=[C:6]([H:11])[H:12])[H:13])[H:10]"
O        0.98310687       1.75297041       1.24562513
C        0.87225791       0.91052698       0.39946882
C        1.80167288      -0.07069981      -0.04379724
O        0.54157457      -1.03823096      -1.22101152
C       -0.65457425      -0.66735341      -1.09442087
C       -1.40297168      -0.28560235       0.79905804
C       -0.87800576       0.52640339      -0.25286384
H        1.96269410      -1.03658563       0.41595336
H        2.74155790       0.32146894      -0.41872353
H       -1.33644111      -0.92101912      -1.91168770
H       -0.70797902      -0.73034024       1.49532265
H       -2.37132011      -0.05106506       1.21900236
H       -1.55157232       1.28952685      -0.63192565
13
Frame=9 idx=008526 GeodesicLength=1.2563495953626014 rxn_smarts="[O:1]=[C:2]1[C:3]([H:8])([H:9])[O:4][C@@:5]2([H:10])[C:6]([H:11])([H:12])[C@@:7]12[H:13]>>[O:1]=[C:2]=[C:3]([H:8])[H:9].[O:4]=[C:5]([C:7](=[C:6]([H:11])[H:12])[H:13])[H:10]"
O        1.00153145       1.68041010       1.32472613
C        0.90117960       0.89345677       0.42803672
C        1.82722172      -0.06166220      -0.06837718
O        0.53591924      -1.03384351      -1.20729170
C       -0.67030927      -0.68637512      -1.06915079
C       -1.42658156      -0.27382015       0.78467592
C       -0.89797709       0.53332548      -0.26680376
H        2.02434536      -1.03534282       0.36173468
H        2.75958376       0.35648140      -0.43493505
H       -1.34406735      -0.95470835      -1.88927745
H       -0.73183753      -0.65652568       1.51749656
H       -2.40346949      -0.04283189       1.18718299
H       -1.57553884       1.28143596      -0.66801705
13
Frame=10 idx=008526 GeodesicLength=1.395713666198913 rxn_smarts="[O:1]=[C:2]1[C:3]([H:8])([H:9])[O:4][C@@:5]2([H:10])[C:6]([H:11])([H:12])[C@@:7]12[H:13]>>[O:1]=[C:2]=[C:3]([H:8])[H:9].[O:4]=[C:5]([C:7](=[C:6]([H:11])[H:12])[H:13])[H:10]"
O        1.02174146       1.60149281       1.40325354
C        0.93135316       0.87292674       0.46004560
C        1.85294697      -0.05120755      -0.09315882
O        0.53041688      -1.02964007      -1.19091362
C       -0.68527813      -0.70476019      -1.04227343
C       -1.45040533      -0.25988884       0.77111555
C       -0.91845867       0.54054146      -0.28151798
H        2.08793250      -1.03198445       0.30243787
H        2.77635575       0.39469912      -0.45067161
H       -1.35072525      -0.99004681      -1.86430030
H       -0.75977881      -0.58103901       1.53704982
H       -2.43586942      -0.03276067       1.15527114
H       -1.60023111       1.27166745      -0.70633777
13
Frame=11 idx=008526 GeodesicLength=1.535002727522858 rxn_smarts="[O:1]=[C:2]1[C:3]([H:8])([H:9])[O:4][C@@:5]2([H:10])[C:6]([H:11])([H:12])[C@@:7]12[H:13]>>[O:1]=[C:2]=[C:3]([H:8])[H:9].[O:4]=[C:5]([C:7](=[C:6]([H:11])[H:12])[H:13])[H:10]"
O        1.04389725       1.51499933       1.48165861
C        0.96290112       0.84819575       0.49558853
C        1.87862409      -0.03908552      -0.11816080
O        0.52506213      -1.02587840      -1.17153131
C       -0.69955755      -0.72261478      -1.01357513
C       -1.47447562      -0.24347618       0.75820094
C       -0.93940648       0.54799601      -0.29732127
H        2.15317870      -1.02581390       0.23727696
H        2.79146319       0.43658924      -0.46551320
H       -1.35635826      -1.02724088      -1.83644800
H       -0.79137543      -0.50310034       1.55399762
H       -2.46846745      -0.02046995       1.12311760
H       -1.62548569       1.25989961      -0.74729056
13
Frame=12 idx=008526 GeodesicLength=1.674181513497109 rxn_smarts="[O:1]=[C:2]1[C:3]([H:8])([H:9])[O:4][C@@:5]2([H:10])[C:6]([H:11])([H:12])[C@@:7]12[H:13]>>[O:1]=[C:2]=[C:3]([H:8])[H:9].[O:4]=[C:5]([C:7](=[C:6]([H:11])[H:12])[H:13])[H:10]"
O        1.06806654       1.41934698       1.56029120
C        0.99595805       0.81855183       0.53463967
C        1.90392993      -0.02501102      -0.14331958
O        0.51989398      -1.02274280      -1.14889718
C       -0.71320669      -0.74002429      -0.98289374
C       -1.49864629      -0.22423505       0.74579549
C       -0.96080666       0.55562284      -0.31463657
H        2.21954850      -1.01599500       0.16552007
H        2.80447807       0.48250655      -0.47873989
H       -1.36093840      -1.06655143      -1.80538823
H       -0.82596079      -0.42156216       1.56826096
H       -2.50103547      -0.00563428       1.09068425
H       -1.65128076       1.24572785      -0.79131645
13
Frame=13 idx=008526 GeodesicLength=1.8132143084168468 rxn_smarts="[O:1]=[C:2]1[C:3]([H:8])([H:9])[O:4][C@@:5]2([H:10])[C:6]([H:11])([H:12])[C@@:7]12[H:13]>>[O:1]=[C:2]=[C:3]([H:8])[H:9].[O:4]=[C:5]([C:7](=[C:6]([H:11])[H:12])[H:13])[H:10]"
O        1.09427616       1.31249458       1.63932437
C        1.03072533       0.78348076       0.57697363
C        1.92849164      -0.00864633      -0.16844602
O        0.51502203      -1.02014239      -1.12309940
C       -0.72624789      -0.75705405      -0.95008756
C       -1.52260357      -0.20182538       0.73382011
C       -0.98267553       0.56333921      -0.33397630
H        2.28604742      -1.00161962       0.08643057
H        2.81519062       0.53263307      -0.48916552
H       -1.36450648      -1.10843254      -1.77058803
H       -0.86269656      -0.33459406       1.57961159
H       -2.53326825       0.01178459       1.05802015
H       -1.67775492       1.22858215      -0.83881759
13
Frame=14 idx=008526 GeodesicLength=1.9520287199366548 rxn_smarts="[O:1]=[C:2]1[C:3]([H:8])([H:9])[O:4][C@@:5]2([H:10])[C:6]([H:11])([H:12])[C@@:7]12[H:13]>>[O:1]=[C:2]=[C:3]([H:8])[H:9].[O:4]=[C:5]([C:7](=[C:6]([H:11])[H:12])[H:13])[H:10]"
O        1.12219681       1.19204180       1.71826126
C        1.06739155       0.74270262       0.62205204
C        1.95176559       0.01035421      -0.19300172
O        0.51053718      -1.01747669      -1.09461439
C       -0.73868617      -0.77357896      -0.91511567
C       -1.54553327      -0.17592578       0.72216653
C       -1.00521105       0.57097139      -0.35606635
H        2.35097774      -0.98157489      -0.00007582
H        2.82353609       0.58653914      -0.49485922
H       -1.36721023      -1.15320528      -1.73138763
H       -0.89994956      -0.23998479       1.58718481
H       -2.56420671       0.03162609       1.02557715
H       -1.70560798       1.20751116      -0.89012098
13
Frame=15 idx=008526 GeodesicLength=2.090556136247942 rxn_smarts="[O:1]=[C:2]1[C:3]([H:8])([H:9])[O:4][C@@:5]2([H:10])[C:6]([H:11])([H:12])[C@@:7]12[H:13]>>[O:1]=[C:2]=[C:3]([H:8])[H:9].[O:4]=[C:5]([C:7](=[C:6]([H:11])[H:12])[H:13])[H:10]"
O        1.15094497       1.05506795       1.79611062
C        1.10615555       0.69635749       0.66923082
C        1.97335702       0.03235949      -0.21621931
O        0.50662994      -1.01360227      -1.06463967
C       -0.75043920      -0.78942212      -0.87802409
C       -1.56640368      -0.14616349       0.71086624
C       -1.02886522       0.57833121      -0.38178622
H        2.41233289      -0.95484863      -0.09376296
H        2.83012278       0.64337660      -0.49337767
H       -1.36923156      -1.20144920      -1.68684891
H       -0.93574147      -0.13477703       1.58957881
H       -2.59274594       0.05347801       0.99429982
H       -1.73611607       1.18129199      -0.94542750
13
Frame=16 idx=008526 GeodesicLength=2.228140149685502 rxn_smarts="[O:1]=[C:2]1[C:3]([H:8])([H:9])[O:4][C@@:5]2([H:10])[C:6]([H:11])([H:12])[C@@:7]12[H:13]>>[O:1]=[C:2]=[C:3]([H:8])[H:9].[O:4]=[C:5]([C:7](=[C:6]([H:11])[H:12])[H:13])[H:10]"
O        1.17808109       0.89809335       1.87058303
C        1.14691092       0.64425993       0.71798804
C        1.99247702       0.05779618      -0.23694540
O        0.50332519      -1.00698396      -1.03434566
C       -0.76121811      -0.80417191      -0.83872223
C       -1.58344931      -0.11190207       0.69988181
C       -1.05415810       0.58506050      -0.41236757
H        2.46770914      -0.92007303      -0.19360972
H        2.83507153       0.70198854      -0.48204597
H       -1.37038681      -1.25346225      -1.63551358
H       -0.96697926      -0.01641327       1.58405401
H       -2.61656119       0.07744569       0.96586803
H       -1.77082210       1.14836231      -1.00482481
