11
Frame=0 idx=006331 GeodesicLength=0.0 rxn_smarts="[O:1]=[c:2]1[o:3][c:4]([H:8])[c:5]([H:9])[c:6]([H:10])[c:7]1[H:11]>>[O:1]1[C:2]2=[C:7]([H:11])[C@@:6]1([H:10])[C:5]([H:9])=[C:4]([H:8])[O:3]2"
O        0.89219782      -0.35664836       1.44401436
C        1.11580286      -0.69779710       0.22095878
O        0.27998512      -1.66155653      -0.30161979
C       -0.95087411      -1.00201012      -0.27403123
C       -1.01827614       0.27487472       0.11558411
C        0.27501628       1.02779303       0.37477388
C        1.35514059       0.49261292      -0.45040590
H       -1.77125382      -1.64469791      -0.55140864
H       -1.96583970       0.78917899       0.18314458
H        0.18842382       2.06407872       0.71501990
H        1.59967727       0.71417159      -1.47603002
11
Frame=1 idx=006331 GeodesicLength=0.04852700594927746 rxn_smarts="[O:1]=[c:2]1[o:3][c:4]([H:8])[c:5]([H:9])[c:6]([H:10])[c:7]1[H:11]>>[O:1]1[C:2]2=[C:7]([H:11])[C@@:6]1([H:10])[C:5]([H:9])=[C:4]([H:8])[O:3]2"
O        0.91460343      -0.37340669       1.44254223
C        1.12042877      -0.70219388       0.21303128
O        0.27439508      -1.65888862      -0.30577258
C       -0.95553269      -1.00027808      -0.27614151
C       -1.02333546       0.27717175       0.11173959
C        0.26916246       1.02508601       0.37891487
C        1.34684095       0.49615193      -0.44998004
H       -1.77935270      -1.65224517      -0.52019395
H       -1.96982338       0.79602464       0.15687815
H        0.18392839       2.06271210       0.71422778
H        1.61868514       0.72986601      -1.46524583
11
Frame=2 idx=006331 GeodesicLength=0.09699323403300947 rxn_smarts="[O:1]=[c:2]1[o:3][c:4]([H:8])[c:5]([H:9])[c:6]([H:10])[c:7]1[H:11]>>[O:1]1[C:2]2=[C:7]([H:11])[C@@:6]1([H:10])[C:5]([H:9])=[C:4]([H:8])[O:3]2"
O        0.93773219      -0.38994210       1.44050818
C        1.12490256      -0.70657833       0.20488275
O        0.26849779      -1.65640967      -0.30918357
C       -0.96057876      -0.99887537      -0.27728541
C       -1.02865507       0.27951524       0.10768081
C        0.26309216       1.02230570       0.38279572
C        1.33812080       0.49942106      -0.44994867
H       -1.78683071      -1.65885697      -0.49026744
H       -1.97373762       0.80245846       0.13148519
H        0.17925832       2.06135793       0.71286107
H        1.63819834       0.74560407      -1.45352862
11
Frame=3 idx=006331 GeodesicLength=0.14539155222361116 rxn_smarts="[O:1]=[c:2]1[o:3][c:4]([H:8])[c:5]([H:9])[c:6]([H:10])[c:7]1[H:11]>>[O:1]1[C:2]2=[C:7]([H:11])[C@@:6]1([H:10])[C:5]([H:9])=[C:4]([H:8])[O:3]2"
O        0.96165057      -0.40617327       1.43788863
C        1.12924205      -0.71093580       0.19652741
O        0.26230898      -1.65413968      -0.31174676
C       -0.96597578      -0.99779161      -0.27741563
C       -1.03421612       0.28191220       0.10340819
C        0.25682502       1.01947552       0.38637397
C        1.32898869       0.50240979      -0.45035604
H       -1.79382830      -1.66457705      -0.46188440
H       -1.97766235       0.80844276       0.10712757
H        0.17444068       2.06003614       0.71087398
H        1.65822656       0.76134098      -1.44079691
11
Frame=4 idx=006331 GeodesicLength=0.19372010564072722 rxn_smarts="[O:1]=[c:2]1[o:3][c:4]([H:8])[c:5]([H:9])[c:6]([H:10])[c:7]1[H:11]>>[O:1]1[C:2]2=[C:7]([H:11])[C@@:6]1([H:10])[C:5]([H:9])=[C:4]([H:8])[O:3]2"
O        0.98639164      -0.42205604       1.43464949
C        1.13346003      -0.71525864       0.18796219
O        0.25584805      -1.65208977      -0.31341918
C       -0.97168075      -0.99699540      -0.27658235
C       -1.03999652       0.28437505       0.09888926
C        0.25038175       1.01661882       0.38961456
C        1.31947106       0.50512273      -0.45123112
H       -1.80049262      -1.66950182      -0.43509356
H       -1.98167227       0.81396704       0.08389952
H        0.16950108       2.05876324       0.70825141
H        1.67878854       0.77705479      -1.42694021
11
Frame=5 idx=006331 GeodesicLength=0.24193674958078715 rxn_smarts="[O:1]=[c:2]1[o:3][c:4]([H:8])[c:5]([H:9])[c:6]([H:10])[c:7]1[H:11]>>[O:1]1[C:2]2=[C:7]([H:11])[C@@:6]1([H:10])[C:5]([H:9])=[C:4]([H:8])[O:3]2"
O        1.01201422      -0.43744951       1.43077419
C        1.13757231      -0.71952268       0.17923619
O        0.24913414      -1.65027945      -0.31401199
C       -0.97764891      -0.99646065      -0.27473806
C       -1.04597577       0.28689938       0.09413701
C        0.24378483       1.01376487       0.39243211
C        1.30958281       0.50752046      -0.45263201
H       -1.80693661      -1.67360576      -0.41035926
H       -1.98588840       0.81893257       0.06217779
H        0.16447082       2.05756543       0.70486334
H        1.69989056       0.79263535      -1.41187932
11
Frame=6 idx=006331 GeodesicLength=0.29009206340147 rxn_smarts="[O:1]=[c:2]1[o:3][c:4]([H:8])[c:5]([H:9])[c:6]([H:10])[c:7]1[H:11]>>[O:1]1[C:2]2=[C:7]([H:11])[C@@:6]1([H:10])[C:5]([H:9])=[C:4]([H:8])[O:3]2"
O        1.03850904      -0.45257899       1.42610444
C        1.14157003      -0.72376412       0.17017019
O        0.24217104      -1.64866107      -0.31385245
C       -0.98387256      -0.99612773      -0.27213571
C       -1.05214621       0.28950249       0.08905351
C        0.23703912       1.01087500       0.39491237
C        1.29935597       0.50969170      -0.45453450
H       -1.81331910      -1.67721362      -0.38652499
H       -1.99025634       0.82356643       0.04116615
H        0.15934775       2.05635353       0.70099248
H        1.72160124       0.80835639      -1.39535149
11
Frame=7 idx=006331 GeodesicLength=0.33813771178752056 rxn_smarts="[O:1]=[c:2]1[o:3][c:4]([H:8])[c:5]([H:9])[c:6]([H:10])[c:7]1[H:11]>>[O:1]1[C:2]2=[C:7]([H:11])[C@@:6]1([H:10])[C:5]([H:9])=[C:4]([H:8])[O:3]2"
O        1.06591394      -0.46739592       1.42058576
C        1.14546485      -0.72796834       0.16076539
O        0.23497309      -1.64722534      -0.31287062
C       -0.99032046      -0.99596653      -0.26880492
C       -1.05848571       0.29217385       0.08364435
C        0.23017488       1.00795008       0.39702033
C        1.28882598       0.51162721      -0.45696344
H       -1.81969813      -1.68034445      -0.36366882
H       -1.99480474       0.82786306       0.02089272
H        0.15417236       2.05511474       0.69660810
H        1.74378394       0.82417163      -1.37720887
11
Frame=8 idx=006331 GeodesicLength=0.3861338279349398 rxn_smarts="[O:1]=[c:2]1[o:3][c:4]([H:8])[c:5]([H:9])[c:6]([H:10])[c:7]1[H:11]>>[O:1]1[C:2]2=[C:7]([H:11])[C@@:6]1([H:10])[C:5]([H:9])=[C:4]([H:8])[O:3]2"
O        1.09428644      -0.48193254       1.41410930
C        1.14925562      -0.73214409       0.15094886
O        0.22755456      -1.64596253      -0.31109863
C       -0.99698602      -0.99593869      -0.26477509
C       -1.06500372       0.29491855       0.07789196
C        0.22318029       1.00498731       0.39873428
C        1.27798146       0.51334386      -0.45997064
H       -1.82613723      -1.68304722      -0.34155305
H       -1.99956965       0.83185242       0.00121319
H        0.14892108       2.05382226       0.69176000
H        1.76651716       0.84010069      -1.35726019
11
Frame=9 idx=006331 GeodesicLength=0.4339707163045941 rxn_smarts="[O:1]=[c:2]1[o:3][c:4]([H:8])[c:5]([H:9])[c:6]([H:10])[c:7]1[H:11]>>[O:1]1[C:2]2=[C:7]([H:11])[C@@:6]1([H:10])[C:5]([H:9])=[C:4]([H:8])[O:3]2"
O        1.12361439      -0.49613104       1.40668482
C        1.15295453      -0.73627984       0.14079152
O        0.21994470      -1.64487411      -0.30842639
C       -1.00379696      -0.99601503      -0.26012131
C       -1.07163465       0.29772765       0.07181039
C        0.21612145       1.00200020       0.40005802
C        1.26691822       0.51483294      -0.46349595
H       -1.83263333      -1.68532459      -0.32037577
H       -2.00450715       0.83555158      -0.01787432
H        0.14367745       2.05248920       0.68645745
H        1.78934133       0.85602303      -1.33550846
11
Frame=10 idx=006331 GeodesicLength=0.48172744491485914 rxn_smarts="[O:1]=[c:2]1[o:3][c:4]([H:8])[c:5]([H:9])[c:6]([H:10])[c:7]1[H:11]>>[O:1]1[C:2]2=[C:7]([H:11])[C@@:6]1([H:10])[C:5]([H:9])=[C:4]([H:8])[O:3]2"
O        1.15388459      -0.51014315       1.39821708
C        1.15656556      -0.74039932       0.13020060
O        0.21216932      -1.64393932      -0.30501972
C       -1.01074846      -0.99616416      -0.25497868
C       -1.07837595       0.30061935       0.06533666
C        0.20900023       0.99898142       0.40104698
C        1.25570008       0.51617570      -0.46751433
H       -1.83920836      -1.68730030      -0.29952043
H       -2.00955889       0.83908550      -0.03683594
H        0.13842662       2.05109199       0.68088633
H        1.81214527       0.87199229      -1.31181857
11
Frame=11 idx=006331 GeodesicLength=0.5294150466307368 rxn_smarts="[O:1]=[c:2]1[o:3][c:4]([H:8])[c:5]([H:9])[c:6]([H:10])[c:7]1[H:11]>>[O:1]1[C:2]2=[C:7]([H:11])[C@@:6]1([H:10])[C:5]([H:9])=[C:4]([H:8])[O:3]2"
O        1.18515087      -0.52400416       1.38858694
C        1.16011507      -0.74447873       0.11916990
O        0.20429472      -1.64304993      -0.30085760
C       -1.01779358      -0.99627415      -0.24940037
C       -1.08521891       0.30359494       0.05845958
C        0.20181040       0.99587368       0.40170440
C        1.24436033       0.51736420      -0.47195530
H       -1.84582013      -1.68888025      -0.27882910
H       -2.01470805       0.84246718      -0.05587725
H        0.13313092       2.04950073       0.67510612
H        1.83467836       0.88788650      -1.28610732
11
Frame=12 idx=006331 GeodesicLength=0.5769032425757462 rxn_smarts="[O:1]=[c:2]1[o:3][c:4]([H:8])[c:5]([H:9])[c:6]([H:10])[c:7]1[H:11]>>[O:1]1[C:2]2=[C:7]([H:11])[C@@:6]1([H:10])[C:5]([H:9])=[C:4]([H:8])[O:3]2"
O        1.21729140      -0.53764725       1.37802956
C        1.16362681      -0.74852005       0.10795024
O        0.19639767      -1.64226405      -0.29573282
C       -1.02478665      -0.99634320      -0.24349863
C       -1.09202830       0.30666447       0.05124200
C        0.19465285       0.99275858       0.40215594
C        1.23310936       0.51843319      -0.47656222
H       -1.85238943      -1.69004426      -0.25893208
H       -2.01980213       0.84572977      -0.07492261
H        0.12791338       2.04785342       0.66923902
H        1.85601503       0.90337938      -1.25896839
11
Frame=13 idx=006331 GeodesicLength=0.6243146929383426 rxn_smarts="[O:1]=[c:2]1[o:3][c:4]([H:8])[c:5]([H:9])[c:6]([H:10])[c:7]1[H:11]>>[O:1]1[C:2]2=[C:7]([H:11])[C@@:6]1([H:10])[C:5]([H:9])=[C:4]([H:8])[O:3]2"
O        1.25027105      -0.55120896       1.36658195
C        1.16716014      -0.75251296       0.09660667
O        0.18857573      -1.64149182      -0.28970062
C       -1.03168748      -0.99628622      -0.23743270
C       -1.09879414       0.30985290       0.04362113
C        0.18752253       0.98961979       0.40250539
C        1.22209171       0.51947099      -0.48113939
H       -1.85887974      -1.69077950      -0.23958960
H       -2.02481542       0.84893419      -0.09422919
H        0.12272699       2.04609981       0.66346249
H        1.87582863       0.91830178      -1.23068613
11
Frame=14 idx=006331 GeodesicLength=0.6716417823813623 rxn_smarts="[O:1]=[c:2]1[o:3][c:4]([H:8])[c:5]([H:9])[c:6]([H:10])[c:7]1[H:11]>>[O:1]1[C:2]2=[C:7]([H:11])[C@@:6]1([H:10])[C:5]([H:9])=[C:4]([H:8])[O:3]2"
O        1.28404572      -0.56477571       1.35427040
C        1.17071999      -0.75645943       0.08521596
O        0.18087407      -1.64068059      -0.28275808
C       -1.03844586      -0.99605755      -0.23128587
C       -1.10547248       0.31316461       0.03560734
C        0.18042152       0.98643695       0.40288938
C        1.21138281       0.52051607      -0.48546621
H       -1.86524208      -1.69107330      -0.22067990
H       -2.02961552       0.85214086      -0.11412742
H        0.11756070       2.04420030       0.65798305
H        1.89377113       0.93258778      -1.20164865
11
Frame=15 idx=006331 GeodesicLength=0.7189120632598939 rxn_smarts="[O:1]=[c:2]1[o:3][c:4]([H:8])[c:5]([H:9])[c:6]([H:10])[c:7]1[H:11]>>[O:1]1[C:2]2=[C:7]([H:11])[C@@:6]1([H:10])[C:5]([H:9])=[C:4]([H:8])[O:3]2"
O        1.31851723      -0.57851827       1.34113649
C        1.17431987      -0.76036374       0.07382908
O        0.17333859      -1.63976699      -0.27502141
C       -1.04503526      -0.99562041      -0.22522621
C       -1.11203195       0.31661358       0.02714711
C        0.17333596       0.98318913       0.40347356
C        1.20109122       0.52165881      -0.48929284
H       -1.87141750      -1.69094954      -0.20179290
H       -2.03406148       0.85542858      -0.13505241
H        0.11238181       2.04211936       0.65306513
H        1.90956152       0.94620949      -1.17226559
11
Frame=16 idx=006331 GeodesicLength=0.766099089773242 rxn_smarts="[O:1]=[c:2]1[o:3][c:4]([H:8])[c:5]([H:9])[c:6]([H:10])[c:7]1[H:11]>>[O:1]1[C:2]2=[C:7]([H:11])[C@@:6]1([H:10])[C:5]([H:9])=[C:4]([H:8])[O:3]2"
O        1.35369159      -0.59227640       1.32735317
C        1.17798718      -0.76421345       0.06271134
O        0.16603866      -1.63875734      -0.26609546
C       -1.05136936      -0.99494476      -0.21918300
C       -1.11842760       0.32018688       0.01840477
C        0.16626951       0.97993141       0.40429772
C        1.19124805       0.52284132      -0.49245756
H       -1.87741850      -1.69029087      -0.18399629
H       -2.03819753       0.85870412      -0.15645709
H        0.10718901       2.03994063       0.64861963
H        1.92298898       0.95887846      -1.14319721
