12
Frame=0 idx=006755 GeodesicLength=0.0 rxn_smarts="[O:1]=[C:2]([C:3](=[O:4])[N:5]1[C:6]([H:9])([H:10])[C:7]1([H:11])[H:12])[H:8]>>[O:1]=[C:2]([C:3](=[O:4])[C:7]([N:5]=[C:6]([H:9])[H:10])([H:11])[H:12])[H:8]"
O        1.66878754       1.22525243       1.41512547
C        1.91769371       0.50620501       0.49434826
C        0.93864157      -0.53920150      -0.04343762
O        1.35514129      -1.59661928      -0.42499059
N       -0.42068027      -0.22137462      -0.02616912
C       -1.40282055      -1.05483873      -0.42336257
C       -0.98101914       1.02885216       0.02414900
H        2.91444698       0.44562184       0.02092983
H       -2.31482039      -1.05362190       0.14693039
H       -1.24609073      -1.72774778      -1.25803614
H       -1.52305185       1.35833202      -0.84571191
H       -0.90622811       1.62914035       0.92022496
12
Frame=1 idx=006755 GeodesicLength=0.09793558837890998 rxn_smarts="[O:1]=[C:2]([C:3](=[O:4])[N:5]1[C:6]([H:9])([H:10])[C:7]1([H:11])[H:12])[H:8]>>[O:1]=[C:2]([C:3](=[O:4])[C:7]([N:5]=[C:6]([H:9])[H:10])([H:11])[H:12])[H:8]"
O        1.66368337       1.20772939       1.44613518
C        1.92094947       0.50683568       0.51361054
C        0.94705431      -0.51455546      -0.07761256
O        1.37908646      -1.54017129      -0.52589696
N       -0.43680472      -0.26716650       0.05838297
C       -1.42864383      -1.05930418      -0.38878212
C       -0.96277929       1.00074828       0.01485420
H        2.91777694       0.47614336       0.03677016
H       -2.36824673      -1.02491914       0.13573579
H       -1.27663837      -1.74287596      -1.21573006
H       -1.44543855       1.32777179      -0.89059029
H       -0.90999905       1.62976404       0.89312315
12
Frame=2 idx=006755 GeodesicLength=0.19617356055839053 rxn_smarts="[O:1]=[C:2]([C:3](=[O:4])[N:5]1[C:6]([H:9])([H:10])[C:7]1([H:11])[H:12])[H:8]>>[O:1]=[C:2]([C:3](=[O:4])[C:7]([N:5]=[C:6]([H:9])[H:10])([H:11])[H:12])[H:8]"
O        1.65751067       1.19295535       1.47268219
C        1.92435008       0.50387326       0.53418211
C        0.95201464      -0.48816263      -0.10775107
O        1.39570663      -1.47845945      -0.62131147
N       -0.44757815      -0.30460350       0.11982916
C       -1.45141338      -1.05979716      -0.35841886
C       -0.94429620       0.97368089       0.00266348
H        2.92235438       0.49683236       0.05858976
H       -2.40860463      -0.99667340       0.13211137
H       -1.30669494      -1.76156564      -1.17125473
H       -1.37816219       1.29840840      -0.92836006
H       -0.91518690       1.62351151       0.86703811
12
Frame=3 idx=006755 GeodesicLength=0.2947621945532402 rxn_smarts="[O:1]=[C:2]([C:3](=[O:4])[N:5]1[C:6]([H:9])([H:10])[C:7]1([H:11])[H:12])[H:8]>>[O:1]=[C:2]([C:3](=[O:4])[C:7]([N:5]=[C:6]([H:9])[H:10])([H:11])[H:12])[H:8]"
O        1.65226523       1.18371630       1.49286619
C        1.92841740       0.50013529       0.55295900
C        0.95549349      -0.46143402      -0.13366232
O        1.40761703      -1.41474399      -0.70814420
N       -0.45553829      -0.33723462       0.16783019
C       -1.47225217      -1.05786577      -0.33275331
C       -0.92686061       0.94738950      -0.00957120
H        2.92978276       0.50750624       0.08395119
H       -2.44182585      -0.97006432       0.13067791
H       -1.33500154      -1.78086025      -1.12826076
H       -1.31992978       1.27054464      -0.95956365
H       -0.92216767       1.61291101       0.84367095
12
Frame=4 idx=006755 GeodesicLength=0.3935358751697046 rxn_smarts="[O:1]=[C:2]([C:3](=[O:4])[N:5]1[C:6]([H:9])([H:10])[C:7]1([H:11])[H:12])[H:8]>>[O:1]=[C:2]([C:3](=[O:4])[C:7]([N:5]=[C:6]([H:9])[H:10])([H:11])[H:12])[H:8]"
O        1.64797686       1.17962570       1.50730105
C        1.93276405       0.49687786       0.56917204
C        0.95826111      -0.43442372      -0.15670238
O        1.41641473      -1.34998119      -0.78681864
N       -0.46170205      -0.36691502       0.20707364
C       -1.49145519      -1.05453697      -0.31067490
C       -0.91068491       0.92153736      -0.02114302
H        2.93994876       0.50903498       0.11211113
H       -2.47024555      -0.94530527       0.13018152
H       -1.36174549      -1.79918203      -1.08755486
H       -1.26890183       1.24394572      -0.98557804
H       -0.93063048       1.59932257       0.82263248
12
Frame=5 idx=006755 GeodesicLength=0.4923690872914986 rxn_smarts="[O:1]=[C:2]([C:3](=[O:4])[N:5]1[C:6]([H:9])([H:10])[C:7]1([H:11])[H:12])[H:8]>>[O:1]=[C:2]([C:3](=[O:4])[C:7]([N:5]=[C:6]([H:9])[H:10])([H:11])[H:12])[H:8]"
O        1.64475577       1.17967754       1.51686329
C        1.93716752       0.49450799       0.58286733
C        0.96073094      -0.40713401      -0.17772727
O        1.42337796      -1.28491576      -0.85753071
N       -0.46644100      -0.39465108       0.23998314
C       -1.50913595      -1.05017268      -0.29138889
C       -0.89576016       0.89581646      -0.03197605
H        2.95191515       0.50292149       0.14218598
H       -2.49495323      -0.92204664       0.13003451
H       -1.38731070      -1.81554414      -1.04927838
H       -1.22424231       1.21829209      -1.00738130
H       -0.94010399       1.58324875       0.80334835
12
Frame=6 idx=006755 GeodesicLength=0.5912631994007553 rxn_smarts="[O:1]=[C:2]([C:3](=[O:4])[N:5]1[C:6]([H:9])([H:10])[C:7]1([H:11])[H:12])[H:8]>>[O:1]=[C:2]([C:3](=[O:4])[C:7]([N:5]=[C:6]([H:9])[H:10])([H:11])[H:12])[H:8]"
O        1.64226714       1.18368520       1.52241081
C        1.94149984       0.49330146       0.59437104
C        0.96313268      -0.37951795      -0.19743451
O        1.42918124      -1.21963018      -0.92212640
N       -0.47000531      -0.42115797       0.26818454
C       -1.52547582      -1.04560162      -0.27379839
C       -0.88185747       0.87027501      -0.04213033
H        2.96516795       0.48979509       0.17439578
H       -2.51680000      -0.90045354       0.13072802
H       -1.41227116      -1.82979070      -1.01382450
H       -1.18459341       1.19343484      -1.02610344
H       -0.95024567       1.56566035       0.78532736
12
Frame=7 idx=006755 GeodesicLength=0.690358960397749 rxn_smarts="[O:1]=[C:2]([C:3](=[O:4])[N:5]1[C:6]([H:9])([H:10])[C:7]1([H:11])[H:12])[H:8]>>[O:1]=[C:2]([C:3](=[O:4])[C:7]([N:5]=[C:6]([H:9])[H:10])([H:11])[H:12])[H:8]"
O        1.64059989       1.19116667       1.52475238
C        1.94583585       0.49324618       0.60412947
C        0.96567987      -0.35145678      -0.21627969
O        1.43455733      -1.15407142      -0.98163860
N       -0.47247621      -0.44680741       0.29258692
C       -1.54067282      -1.04100289      -0.25741070
C       -0.86888608       0.84484764      -0.05176836
H        2.97901008       0.47038147       0.20852850
H       -2.53639128      -0.88020573       0.13223616
H       -1.43698166      -1.84216908      -0.98088503
H       -1.14950032       1.16916101      -1.04247046
H       -0.96077463       1.54691034       0.76821943
12
Frame=8 idx=006755 GeodesicLength=0.7894102573753425 rxn_smarts="[O:1]=[C:2]([C:3](=[O:4])[N:5]1[C:6]([H:9])([H:10])[C:7]1([H:11])[H:12])[H:8]>>[O:1]=[C:2]([C:3](=[O:4])[C:7]([N:5]=[C:6]([H:9])[H:10])([H:11])[H:12])[H:8]"
O        1.63944825       1.20088983       1.52456452
C        1.94991314       0.49389726       0.61261956
C        0.96831322      -0.32312540      -0.23436711
O        1.43978638      -1.08833550      -1.03650478
N       -0.47392746      -0.47196050       0.31375533
C       -1.55475565      -1.03627264      -0.24198348
C       -0.85649377       0.81946033      -0.06106158
H        2.99222704       0.44654193       0.24361142
H       -2.55388462      -0.86072130       0.13431519
H       -1.46143230      -1.85295841      -0.94968800
H       -1.11807161       1.14547337      -1.05694543
H       -0.97112262       1.52711104       0.75168438
12
Frame=9 idx=006755 GeodesicLength=0.8885193654678593 rxn_smarts="[O:1]=[C:2]([C:3](=[O:4])[N:5]1[C:6]([H:9])([H:10])[C:7]1([H:11])[H:12])[H:8]>>[O:1]=[C:2]([C:3](=[O:4])[C:7]([N:5]=[C:6]([H:9])[H:10])([H:11])[H:12])[H:8]"
O        1.63897496       1.21284082       1.52225875
C        1.95378611       0.49541805       0.61993990
C        0.97117287      -0.29460848      -0.25169058
O        1.44520444      -1.02263713      -1.08706442
N       -0.47442519      -0.49688826       0.33234305
C       -1.56781990      -1.03168738      -0.22706147
C       -0.84447921       0.79400091      -0.07001449
H        3.00396663       0.41888481       0.27935503
H       -2.56959054      -0.84205357       0.13718626
H       -1.48608367      -1.86179771      -0.92082100
H       -1.08963069       1.12209982      -1.06995540
H       -0.98107583       1.50642813       0.73552438
12
Frame=10 idx=006755 GeodesicLength=0.9877780184452578 rxn_smarts="[O:1]=[C:2]([C:3](=[O:4])[N:5]1[C:6]([H:9])([H:10])[C:7]1([H:11])[H:12])[H:8]>>[O:1]=[C:2]([C:3](=[O:4])[C:7]([N:5]=[C:6]([H:9])[H:10])([H:11])[H:12])[H:8]"
O        1.63908594       1.22524218       1.51935764
C        1.95754254       0.49697795       0.62699869
C        0.97434443      -0.26660250      -0.26793109
O        1.45122400      -0.95776467      -1.13329003
N       -0.47431951      -0.52195041       0.34868557
C       -1.58037180      -1.02704219      -0.21277223
C       -0.83240625       0.76840049      -0.07880448
H        3.01347807       0.39137457       0.31339930
H       -2.58418352      -0.82335770       0.14030323
H       -1.51138661      -1.86935386      -0.89356295
H       -1.06306432       1.09896976      -1.08196448
H       -0.98994296       1.48510640       0.71958083
12
Frame=11 idx=006755 GeodesicLength=1.087332466783883 rxn_smarts="[O:1]=[C:2]([C:3](=[O:4])[N:5]1[C:6]([H:9])([H:10])[C:7]1([H:11])[H:12])[H:8]>>[O:1]=[C:2]([C:3](=[O:4])[C:7]([N:5]=[C:6]([H:9])[H:10])([H:11])[H:12])[H:8]"
O        1.63988818       1.24024536       1.51435680
C        1.96123994       0.50056934       0.63227983
C        0.97785905      -0.23746280      -0.28453098
O        1.45784208      -0.89122487      -1.17770443
N       -0.47309368      -0.54681093       0.36273541
C       -1.59197197      -1.02272581      -0.19849984
C       -0.82100933       0.74276748      -0.08756459
H        3.02192510       0.35706565       0.35095825
H       -2.59728457      -0.80555415       0.14475858
H       -1.53682148      -1.87598416      -0.86739335
H       -1.03988962       1.07593164      -1.09323245
H       -0.99868369       1.46318326       0.70383677
12
Frame=12 idx=006755 GeodesicLength=1.1868041347036322 rxn_smarts="[O:1]=[C:2]([C:3](=[O:4])[N:5]1[C:6]([H:9])([H:10])[C:7]1([H:11])[H:12])[H:8]>>[O:1]=[C:2]([C:3](=[O:4])[C:7]([N:5]=[C:6]([H:9])[H:10])([H:11])[H:12])[H:8]"
O        1.64050676       1.25369063       1.50996412
C        1.96432820       0.50329843       0.63797445
C        0.98148990      -0.20928677      -0.29982659
O        1.46492358      -0.82557358      -1.21792837
N       -0.47148709      -0.57226315       0.37487029
C       -1.60311760      -1.01814264      -0.18466943
C       -0.80884698       0.71681975      -0.09642590
H        3.02699458       0.32634529       0.38481390
H       -2.60912036      -0.78689520       0.14921031
H       -1.56327271      -1.88164309      -0.84181602
H       -1.01699574       1.05295633      -1.10389254
H       -1.00540254       1.44069402       0.68772578
12
Frame=13 idx=006755 GeodesicLength=1.2864587777222765 rxn_smarts="[O:1]=[C:2]([C:3](=[O:4])[N:5]1[C:6]([H:9])([H:10])[C:7]1([H:11])[H:12])[H:8]>>[O:1]=[C:2]([C:3](=[O:4])[C:7]([N:5]=[C:6]([H:9])[H:10])([H:11])[H:12])[H:8]"
O        1.64149912       1.26689737       1.50590738
C        1.96730266       0.50679604       0.64309129
C        0.98554342      -0.18115331      -0.31468565
O        1.47294631      -0.75975747      -1.25552525
N       -0.46927532      -0.59803578       0.38523969
C       -1.61381144      -1.01358827      -0.17089061
C       -0.79665970       0.69061122      -0.10551608
H        3.02989198       0.29507739       0.41797914
H       -2.62002030      -0.76801759       0.15443145
H       -1.59059143      -1.88641326      -0.81692530
H       -0.99575252       1.02973933      -1.11444267
H       -1.01107278       1.41784432       0.67133661
12
Frame=14 idx=006755 GeodesicLength=1.3862479055186399 rxn_smarts="[O:1]=[C:2]([C:3](=[O:4])[N:5]1[C:6]([H:9])([H:10])[C:7]1([H:11])[H:12])[H:8]>>[O:1]=[C:2]([C:3](=[O:4])[C:7]([N:5]=[C:6]([H:9])[H:10])([H:11])[H:12])[H:8]"
O        1.64243677       1.27898912       1.50277775
C        1.97003779       0.51039768       0.64815995
C        0.98994317      -0.15340525      -0.32888726
O        1.48181100      -0.69408853      -1.29030600
N       -0.46668916      -0.62437741       0.39391911
C       -1.62422491      -1.00893128      -0.15720882
C       -0.78412193       0.66401830      -0.11492237
H        3.03067579       0.26546386       0.44913492
H       -2.63003814      -0.74850249       0.16022185
H       -1.61912400      -1.89037629      -0.79238624
H       -0.97540453       1.00618087      -1.12498838
H       -1.01530185       1.39463140       0.65448550
12
Frame=15 idx=006755 GeodesicLength=1.4861083054051996 rxn_smarts="[O:1]=[C:2]([C:3](=[O:4])[N:5]1[C:6]([H:9])([H:10])[C:7]1([H:11])[H:12])[H:8]>>[O:1]=[C:2]([C:3](=[O:4])[C:7]([N:5]=[C:6]([H:9])[H:10])([H:11])[H:12])[H:8]"
O        1.64316310       1.28986301       1.50068162
C        1.97246959       0.51412310       0.65317773
C        0.99465932      -0.12592301      -0.34254659
O        1.49146819      -0.62833149      -1.32254134
N       -0.46375150      -0.65134518       0.40096025
C       -1.63431498      -1.00416862      -0.14351598
C       -0.77123704       0.63699180      -0.12473236
H        3.02951589       0.23735705       0.47844125
H       -2.63908816      -0.72831077       0.16671550
H       -1.64885809      -1.89351832      -0.76799329
H       -0.95589696       0.98215809      -1.13567595
H       -1.01812935       1.37110434       0.63702916
12
Frame=16 idx=006755 GeodesicLength=1.5860239547607748 rxn_smarts="[O:1]=[C:2]([C:3](=[O:4])[N:5]1[C:6]([H:9])([H:10])[C:7]1([H:11])[H:12])[H:8]>>[O:1]=[C:2]([C:3](=[O:4])[C:7]([N:5]=[C:6]([H:9])[H:10])([H:11])[H:12])[H:8]"
O        1.64346360       1.29907199       1.50004879
C        1.97456016       0.51765092       0.65844929
C        0.99968527      -0.09883092      -0.35557722
O        1.50189571      -0.56254835      -1.35225290
N       -0.46063081      -0.67906394       0.40644036
C       -1.64420005      -0.99923466      -0.12978835
C       -0.75794075       0.60943019      -0.13503785
H        3.02686949       0.21177058       0.50527441
H       -2.64725332      -0.70722607       0.17387979
H       -1.67999291      -1.89581616      -0.74355115
H       -0.93695897       0.95749200      -1.14668691
H       -1.01949741       1.34730442       0.61880173
