13
Frame=0 idx=007914 GeodesicLength=0.0 rxn_smarts="[C:1]([O:2]/[C:3](=[N:4]\[H:11])[N:5]([C:6](=[O:7])[H:13])[H:12])([H:8])([H:9])[H:10]>>[C:1]1([H:8])([H:10])[O:2]/[C:3](=[N:4]\[H:11])[N:5]([H:12])[C@:6]1([O:7][H:9])[H:13]"
C       -0.95950201      -0.70222724      -0.56702008
O       -0.47084737       0.49923415      -1.11044633
C        0.48182862       1.15488029      -0.38176266
N        0.87925415       2.31706380      -0.62372305
N        0.93413662       0.38921315       0.69247508
C        0.51330566      -0.94655651       0.70778950
O       -0.00438728      -1.43923294       1.80971052
H       -2.01572160      -0.57806844      -0.28238497
H       -0.79163369      -1.15534737       0.79009055
H       -0.85713339      -1.51372856      -1.28407047
H        0.34758405       2.72818148      -1.38396281
H        0.85001731       0.84570796       1.58984504
H        1.09309889      -1.59911971       0.04345970
13
Frame=1 idx=007914 GeodesicLength=0.12446121764471306 rxn_smarts="[C:1]([O:2]/[C:3](=[N:4]\[H:11])[N:5]([C:6](=[O:7])[H:13])[H:12])([H:8])([H:9])[H:10]>>[C:1]1([H:8])([H:10])[O:2]/[C:3](=[N:4]\[H:11])[N:5]([H:12])[C@:6]1([O:7][H:9])[H:13]"
C       -0.97965492      -0.69920579      -0.56018789
O       -0.54863131       0.54674621      -1.04783915
C        0.45065190       1.16935407      -0.35847373
N        0.92193649       2.29082132      -0.65519678
N        0.90729387       0.40799465       0.71500937
C        0.53149349      -0.93993044       0.70836011
O        0.03689952      -1.46454625       1.80573242
H       -2.03986836      -0.62448263      -0.27534669
H       -0.79895709      -1.20487126       0.78846096
H       -0.85617338      -1.46635522      -1.32213412
H        0.43121123       2.69158597      -1.44775849
H        0.81235597       0.85664695       1.61475706
H        1.13144259      -1.56375758       0.03461694
13
Frame=2 idx=007914 GeodesicLength=0.2488038306776179 rxn_smarts="[C:1]([O:2]/[C:3](=[N:4]\[H:11])[N:5]([C:6](=[O:7])[H:13])[H:12])([H:8])([H:9])[H:10]>>[C:1]1([H:8])([H:10])[O:2]/[C:3](=[N:4]\[H:11])[N:5]([H:12])[C@:6]1([O:7][H:9])[H:13]"
C       -0.99795588      -0.69258176      -0.55493388
O       -0.62260128       0.59383432      -0.97888605
C        0.42140562       1.18431366      -0.33325763
N        0.95665067       2.26044449      -0.68532246
N        0.88353258       0.42575773       0.73814786
C        0.55038405      -0.93186324       0.70937323
O        0.07512140      -1.48613885       1.80025102
H       -2.06085427      -0.66648433      -0.27365382
H       -0.80571327      -1.25316509       0.78268348
H       -0.85552613      -1.41033020      -1.36110844
H        0.50564092       2.63782778      -1.51185240
H        0.78027832       0.86584995       1.64066961
H        1.16963726      -1.52746446       0.02788946
13
Frame=3 idx=007914 GeodesicLength=0.37406230242764654 rxn_smarts="[C:1]([O:2]/[C:3](=[N:4]\[H:11])[N:5]([C:6](=[O:7])[H:13])[H:12])([H:8])([H:9])[H:10]>>[C:1]1([H:8])([H:10])[O:2]/[C:3](=[N:4]\[H:11])[N:5]([H:12])[C@:6]1([O:7][H:9])[H:13]"
C       -1.01424486      -0.68282798      -0.55166993
O       -0.68994065       0.63827658      -0.90670609
C        0.39461589       1.19935737      -0.30678370
N        0.98390094       2.22702113      -0.71464193
N        0.86347623       0.44230716       0.76144119
C        0.56996589      -0.92281679       0.71128112
O        0.10933464      -1.50416355       1.79400116
H       -2.07880250      -0.70227396      -0.27802621
H       -0.81260557      -1.29977032       0.77274310
H       -0.85582702      -1.34764064      -1.39970415
H        0.56745037       2.57041457      -1.57339053
H        0.75473012       0.87351754       1.66701098
H        1.20794651      -1.49140110       0.02444499
13
Frame=4 idx=007914 GeodesicLength=0.49851531955595774 rxn_smarts="[C:1]([O:2]/[C:3](=[N:4]\[H:11])[N:5]([C:6](=[O:7])[H:13])[H:12])([H:8])([H:9])[H:10]>>[C:1]1([H:8])([H:10])[O:2]/[C:3](=[N:4]\[H:11])[N:5]([H:12])[C@:6]1([O:7][H:9])[H:13]"
C       -1.02821613      -0.67056128      -0.55039377
O       -0.74911638       0.67841329      -0.83375973
C        0.37037391       1.21376908      -0.27961306
N        1.00383412       2.19075315      -0.74287229
N        0.84681832       0.45763451       0.78431749
C        0.59006150      -0.91303775       0.71399403
O        0.13944116      -1.51834631       1.78700921
H       -2.09330498      -0.73041911      -0.28790835
H       -0.81971001      -1.34387022       0.75878010
H       -0.85712240      -1.28032886      -1.43706192
H        0.61557424       2.49215842      -1.62988784
H        0.73522217       0.88037763       1.69297540
H        1.24614447      -1.45654255       0.02442074
13
Frame=5 idx=007914 GeodesicLength=0.6240895971644407 rxn_smarts="[C:1]([O:2]/[C:3](=[N:4]\[H:11])[N:5]([C:6](=[O:7])[H:13])[H:12])([H:8])([H:9])[H:10]>>[C:1]1([H:8])([H:10])[O:2]/[C:3](=[N:4]\[H:11])[N:5]([H:12])[C@:6]1([O:7][H:9])[H:13]"
C       -1.04041204      -0.65673339      -0.55092387
O       -0.79942438       0.71330318      -0.76359741
C        0.34986691       1.22647100      -0.25427464
N        1.01748230       2.15383495      -0.76966597
N        0.83364750       0.47151844       0.80610657
C        0.61107759      -0.90318902       0.71773288
O        0.16566317      -1.52956852       1.78028304
H       -2.10572891      -0.75056249      -0.30223017
H       -0.82787952      -1.38562172       0.74195167
H       -0.86024937      -1.21163443      -1.47177792
H        0.65057013       2.40943034      -1.67951871
H        0.72019539       0.88659719       1.71759231
H        1.28519124      -1.42384554       0.02832223
13
Frame=6 idx=007914 GeodesicLength=0.7501937564104859 rxn_smarts="[C:1]([O:2]/[C:3](=[N:4]\[H:11])[N:5]([C:6](=[O:7])[H:13])[H:12])([H:8])([H:9])[H:10]>>[C:1]1([H:8])([H:10])[O:2]/[C:3](=[N:4]\[H:11])[N:5]([H:12])[C@:6]1([O:7][H:9])[H:13]"
C       -1.05113909      -0.64215402      -0.55298993
O       -0.84167807       0.74300326      -0.69713916
C        0.33269688       1.23739931      -0.23081563
N        1.02672156       2.11606420      -0.79541046
N        0.82327460       0.48430676       0.82680315
C        0.63299485      -0.89335643       0.72246998
O        0.18865776      -1.53837313       1.77375438
H       -2.11652424      -0.76363956      -0.31973683
H       -0.83719501      -1.42545409       0.72266024
H       -0.86538053      -1.14293051      -1.50388661
H        0.67404447       2.32555112      -1.72231896
H        0.70841955       0.89273494       1.74068170
H        1.32510727      -1.39315184       0.03592813
13
Frame=7 idx=007914 GeodesicLength=0.8766752906381197 rxn_smarts="[C:1]([O:2]/[C:3](=[N:4]\[H:11])[N:5]([C:6](=[O:7])[H:13])[H:12])([H:8])([H:9])[H:10]>>[C:1]1([H:8])([H:10])[O:2]/[C:3](=[N:4]\[H:11])[N:5]([H:12])[C@:6]1([O:7][H:9])[H:13]"
C       -1.06083219      -0.62724730      -0.55619306
O       -0.87711906       0.76803892      -0.63471770
C        0.31828887       1.24660461      -0.20940974
N        1.03222633       2.07819332      -0.81972753
N        0.81501062       0.49626728       0.84640749
C        0.65599800      -0.88351270       0.72795495
O        0.20933688      -1.54545508       1.76711399
H       -2.12629031      -0.77060680      -0.33914160
H       -0.84772464      -1.46381220       0.70131535
H       -0.87269596      -1.07510360      -1.53326922
H        0.68905647       2.24165535      -1.75922518
H        0.69848630       0.89891003       1.76222087
H        1.36625869      -1.36393182       0.04667135
13
Frame=8 idx=007914 GeodesicLength=1.0038959986663394 rxn_smarts="[C:1]([O:2]/[C:3](=[N:4]\[H:11])[N:5]([C:6](=[O:7])[H:13])[H:12])([H:8])([H:9])[H:10]>>[C:1]1([H:8])([H:10])[O:2]/[C:3](=[N:4]\[H:11])[N:5]([H:12])[C@:6]1([O:7][H:9])[H:13]"
C       -1.06994079      -0.61239187      -0.56028709
O       -0.90694881       0.78893978      -0.57658829
C        0.30617601       1.25414275      -0.19025113
N        1.03475299       2.04088344      -0.84256213
N        0.80842812       0.50753795       0.86497287
C        0.68030635      -0.87367651       0.73408358
O        0.22845311      -1.55143882       1.76034547
H       -2.13571277      -0.77239393      -0.35952441
H       -0.85977633      -1.50105805       0.67847257
H       -0.88228391      -1.00877205      -1.56010509
H        0.69797764       2.15891346      -1.79108236
H        0.68951014       0.90510084       1.78235401
H        1.40905825      -1.33578699       0.06017201
13
Frame=9 idx=007914 GeodesicLength=1.1305253871872945 rxn_smarts="[C:1]([O:2]/[C:3](=[N:4]\[H:11])[N:5]([C:6](=[O:7])[H:13])[H:12])([H:8])([H:9])[H:10]>>[C:1]1([H:8])([H:10])[O:2]/[C:3](=[N:4]\[H:11])[N:5]([H:12])[C@:6]1([O:7][H:9])[H:13]"
C       -1.07853152      -0.59777557      -0.56490016
O       -0.93202012       0.80621206      -0.52229352
C        0.29573749       1.26009076      -0.17308896
N        1.03459071       2.00420945      -0.86356589
N        0.80290131       0.51837215       0.88240583
C        0.70585182      -0.86357203       0.74035068
O        0.24660951      -1.55640475       1.75259449
H       -2.14464355      -0.76973695      -0.38009482
H       -0.87343321      -1.53715573       0.65429464
H       -0.89392400      -0.94424955      -1.58425985
H        0.70286527       2.07663334      -1.81810112
H        0.68074216       0.91146913       1.80092179
H        1.45325414      -1.30809230       0.07573689
13
Frame=10 idx=007914 GeodesicLength=1.2576760232963196 rxn_smarts="[C:1]([O:2]/[C:3](=[N:4]\[H:11])[N:5]([C:6](=[O:7])[H:13])[H:12])([H:8])([H:9])[H:10]>>[C:1]1([H:8])([H:10])[O:2]/[C:3](=[N:4]\[H:11])[N:5]([H:12])[C@:6]1([O:7][H:9])[H:13]"
C       -1.08698756      -0.58368866      -0.57009594
O       -0.95316383       0.82026107      -0.47193962
C        0.28698413       1.26445207      -0.15808286
N        1.03299037       1.96803198      -0.88348039
N        0.79849480       0.52872477       0.89886552
C        0.73286775      -0.85339391       0.74716518
O        0.26409555      -1.56088678       1.74434018
H       -2.15381710      -0.76348983      -0.40073825
H       -0.88937732      -1.57250127       0.62933760
H       -0.90760584      -0.88178521      -1.60623001
H        0.70405960       1.99719654      -1.84106714
H        0.67212052       0.91791121       1.81816410
H        1.49933894      -1.28083198       0.09376165
13
Frame=11 idx=007914 GeodesicLength=1.38491208000672 rxn_smarts="[C:1]([O:2]/[C:3](=[N:4]\[H:11])[N:5]([C:6](=[O:7])[H:13])[H:12])([H:8])([H:9])[H:10]>>[C:1]1([H:8])([H:10])[O:2]/[C:3](=[N:4]\[H:11])[N:5]([H:12])[C@:6]1([O:7][H:9])[H:13]"
C       -1.09541022      -0.57018376      -0.57569649
O       -0.97104155       0.83150731      -0.42503507
C        0.27951441       1.26735889      -0.14495186
N        1.03015859       1.93234448      -0.90222489
N        0.79489228       0.53872685       0.91440999
C        0.76143329      -0.84295173       0.75431455
O        0.28137817      -1.56508677       1.73503924
H       -2.16324649      -0.75416823      -0.42114708
H       -0.90798250      -1.60713652       0.60379489
H       -0.92313531      -0.82132520      -1.62609057
H        0.70278961       1.91998031      -1.86050871
H        0.66329728       0.92438679       1.83416830
H        1.54735245      -1.25345243       0.11392770
13
Frame=12 idx=007914 GeodesicLength=1.512198610734656 rxn_smarts="[C:1]([O:2]/[C:3](=[N:4]\[H:11])[N:5]([C:6](=[O:7])[H:13])[H:12])([H:8])([H:9])[H:10]>>[C:1]1([H:8])([H:10])[O:2]/[C:3](=[N:4]\[H:11])[N:5]([H:12])[C@:6]1([O:7][H:9])[H:13]"
C       -1.10393135      -0.55732527      -0.58160744
O       -0.98620822       0.84027674      -0.38123400
C        0.27306315       1.26891722      -0.13351084
N        1.02636441       1.89714131      -0.91988600
N        0.79192849       0.54844348       0.92911922
C        0.79170029      -0.83212333       0.76172289
O        0.29886491      -1.56926936       1.72432657
H       -2.17306937      -0.74220654      -0.44121184
H       -0.92983251      -1.64110275       0.57798746
H       -0.94030978      -0.76281588      -1.64397154
H        0.69987364       1.84476806      -1.87691152
H        0.65408942       0.93079079       1.84906684
H        1.59746692      -1.22549446       0.13611023
13
Frame=13 idx=007914 GeodesicLength=1.639526486162679 rxn_smarts="[C:1]([O:2]/[C:3](=[N:4]\[H:11])[N:5]([C:6](=[O:7])[H:13])[H:12])([H:8])([H:9])[H:10]>>[C:1]1([H:8])([H:10])[O:2]/[C:3](=[N:4]\[H:11])[N:5]([H:12])[C@:6]1([O:7][H:9])[H:13]"
C       -1.11265780      -0.54517519      -0.58775757
O       -0.99910940       0.84680842      -0.34022221
C        0.26741721       1.26920187      -0.12358760
N        1.02180793       1.86239610      -0.93654937
N        0.78948729       0.55791323       0.94306596
C        0.82385396      -0.82077722       0.76932137
O        0.31695287      -1.57368121       1.71178813
H       -2.18339984      -0.72793739      -0.46094415
H       -0.95566410      -1.67434814       0.55231305
H       -0.95886572      -0.70621717      -1.65997769
H        0.69592352       1.77132252      -1.89066102
H        0.64437440       0.93698855       1.86298719
H        1.64987967      -1.19649437       0.16022391
13
Frame=14 idx=007914 GeodesicLength=1.7668568392075181 rxn_smarts="[C:1]([O:2]/[C:3](=[N:4]\[H:11])[N:5]([C:6](=[O:7])[H:13])[H:12])([H:8])([H:9])[H:10]>>[C:1]1([H:8])([H:10])[O:2]/[C:3](=[N:4]\[H:11])[N:5]([H:12])[C@:6]1([O:7][H:9])[H:13]"
C       -1.12166350      -0.53379637      -0.59408271
O       -1.01007047       0.85127334      -0.30172305
C        0.26243363       1.26824799      -0.11502876
N        1.01666050       1.82802224      -0.95231239
N        0.78748658       0.56714915       0.95630931
C        0.85809846      -0.80877783       0.77707349
O        0.33601810      -1.57856266       1.69692292
H       -2.19430009      -0.71158410      -0.48043068
H       -0.98633138      -1.70676621       0.52720819
H       -0.97849518      -0.65154211      -1.67416895
H        0.69131981       1.69949920      -1.90207301
H        0.63404496       0.94282194       1.87602271
H        1.70479859      -1.16598457       0.18628292
13
Frame=15 idx=007914 GeodesicLength=1.894189044810666 rxn_smarts="[C:1]([O:2]/[C:3](=[N:4]\[H:11])[N:5]([C:6](=[O:7])[H:13])[H:12])([H:8])([H:9])[H:10]>>[C:1]1([H:8])([H:10])[O:2]/[C:3](=[N:4]\[H:11])[N:5]([H:12])[C@:6]1([O:7][H:9])[H:13]"
C       -1.13102203      -0.52326361      -0.60051975
O       -1.01938168       0.85378276      -0.26548310
C        0.25796366       1.26608590      -0.10767818
N        1.01100141       1.79398952      -0.96723645
N        0.78585365       0.57615078       0.96891275
C        0.89469551      -0.79595165       0.78491564
O        0.35649562      -1.58418031       1.67908737
H       -2.20583342      -0.69330305      -0.49983097
H       -1.02286245      -1.73812894       0.50323851
H       -0.99883136      -0.59882707      -1.68659469
H        0.68644929       1.62898046      -1.91139172
H        0.62298573       0.94807299       1.88828804
H        1.76248606      -1.13340778       0.21429255
13
Frame=16 idx=007914 GeodesicLength=2.021520818250122 rxn_smarts="[C:1]([O:2]/[C:3](=[N:4]\[H:11])[N:5]([C:6](=[O:7])[H:13])[H:12])([H:8])([H:9])[H:10]>>[C:1]1([H:8])([H:10])[O:2]/[C:3](=[N:4]\[H:11])[N:5]([H:12])[C@:6]1([O:7][H:9])[H:13]"
C       -1.14079760      -0.51367258      -0.60700088
O       -1.02727093       0.85439142      -0.23128425
C        0.25389070       1.26271291      -0.10139220
N        1.00488575       1.76023512      -0.98138216
N        0.78452561       0.58489086       0.98093591
C        0.93394470      -0.78210005       0.79279732
O        0.37885291      -1.59082036       1.65746306
H       -2.21803744      -0.67317894      -0.51936113
H       -1.06643498      -1.76808393       0.48107754
H       -1.01944384      -0.54818419      -1.69728316
H        0.68158811       1.55948670      -1.91879916
H        0.61105876       0.95246524       1.89988835
H        1.82323824      -1.09814220       0.24434075
