14
Frame=0 idx=006011 GeodesicLength=0.0 rxn_smarts="[C:1]([C@@:2]1([H:10])[C@:3]([O:4][H:12])([H:11])[C@:5]1([O:6][H:14])[H:13])([H:7])([H:8])[H:9]>>[C:1]([C@@:2]1([H:10])[C@:3]([O:4][H:12])([H:11])[C:5]1)([H:7])([H:8])[H:9].[O:6]([H:13])[H:14]"
C        1.55480373      -0.20425381      -0.21370053
C        0.46409684      -0.11957317       0.82210995
C       -0.76360784       0.72511120       0.64042988
O       -1.02633993       1.35739654      -0.58112409
C       -0.87371110      -0.78069841       0.67139768
O       -1.06607711      -1.25183111      -1.00144298
H        2.06556990      -1.16621954      -0.14969050
H        1.15951040      -0.11256921      -1.22373700
H        2.29566746       0.58295549      -0.05687012
H        0.82343563      -0.17191565       1.84686051
H       -1.17832283       1.24552891       1.49948240
H       -0.33461618       1.99455750      -0.76713780
H       -1.59826302      -1.62528237      -0.12691143
H       -1.52214589      -0.47320642      -1.35966594
14
Frame=1 idx=006011 GeodesicLength=0.054020450380821136 rxn_smarts="[C:1]([C@@:2]1([H:10])[C@:3]([O:4][H:12])([H:11])[C@:5]1([O:6][H:14])[H:13])([H:7])([H:8])[H:9]>>[C:1]([C@@:2]1([H:10])[C@:3]([O:4][H:12])([H:11])[C:5]1)([H:7])([H:8])[H:9].[O:6]([H:13])[H:14]"
C        1.55587307      -0.20163127      -0.21493867
C        0.46419265      -0.12107174       0.82016562
C       -0.76392128       0.72330642       0.63953956
O       -1.02460951       1.35631270      -0.58266870
C       -0.87293309      -0.78284365       0.66395768
O       -1.06771423      -1.25136844      -0.99221394
H        2.07004774      -1.16179642      -0.15095024
H        1.16152151      -0.11112539      -1.22555093
H        2.29429648       0.58783127      -0.05760954
H        0.82192454      -0.17705293       1.84517674
H       -1.18070780       1.24264124       1.49807723
H       -0.33195269       1.99279540      -0.76765102
H       -1.61836030      -1.62881060      -0.11600306
H       -1.50765709      -0.46718660      -1.35933072
14
Frame=2 idx=006011 GeodesicLength=0.10803125943361037 rxn_smarts="[C:1]([C@@:2]1([H:10])[C@:3]([O:4][H:12])([H:11])[C@:5]1([O:6][H:14])[H:13])([H:7])([H:8])[H:9]>>[C:1]([C@@:2]1([H:10])[C@:3]([O:4][H:12])([H:11])[C:5]1)([H:7])([H:8])[H:9].[O:6]([H:13])[H:14]"
C        1.55690596      -0.19903888      -0.21616661
C        0.46425385      -0.12260498       0.81821626
C       -0.76425977       0.72147769       0.63864822
O       -1.02291366       1.35520919      -0.58420880
C       -0.87219873      -0.78499220       0.65655001
O       -1.06941821      -1.25078410      -0.98325465
H        2.07445293      -1.15740809      -0.15221088
H        1.16351744      -0.10967487      -1.22735706
H        2.29289900       0.59264730      -0.05831029
H        0.82039134      -0.18221522       1.84346962
H       -1.18308037       1.23976036       1.49666524
H       -0.32932731       1.99101271      -0.76816101
H       -1.63805123      -1.63205292      -0.10490995
H       -1.49317124      -0.46133600      -1.35897011
14
Frame=3 idx=006011 GeodesicLength=0.16202771132971985 rxn_smarts="[C:1]([C@@:2]1([H:10])[C@:3]([O:4][H:12])([H:11])[C@:5]1([O:6][H:14])[H:13])([H:7])([H:8])[H:9]>>[C:1]([C@@:2]1([H:10])[C@:3]([O:4][H:12])([H:11])[C:5]1)([H:7])([H:8])[H:9].[O:6]([H:13])[H:14]"
C        1.55791010      -0.19647724      -0.21738295
C        0.46428070      -0.12417254       0.81626037
C       -0.76462794       0.71962693       0.63775141
O       -1.02125732       1.35409356      -0.58574986
C       -0.87151275      -0.78714194       0.64917015
O       -1.07118793      -1.25006439      -0.97457326
H        2.07878847      -1.15306034      -0.15347016
H        1.16550764      -0.10820784      -1.22915582
H        2.29149312       0.59739382      -0.05896180
H        0.81883710      -0.18740068       1.84173944
H       -1.18544431       1.23688774       1.49524291
H       -0.32674056       1.98921607      -0.76867443
H       -1.65732781      -1.63505787      -0.09361415
H       -1.47871850      -0.45563526      -1.35858184
14
Frame=4 idx=006011 GeodesicLength=0.21602778228690983 rxn_smarts="[C:1]([C@@:2]1([H:10])[C@:3]([O:4][H:12])([H:11])[C@:5]1([O:6][H:14])[H:13])([H:7])([H:8])[H:9]>>[C:1]([C@@:2]1([H:10])[C@:3]([O:4][H:12])([H:11])[C:5]1)([H:7])([H:8])[H:9].[O:6]([H:13])[H:14]"
C        1.55887456      -0.19394467      -0.21858846
C        0.46426789      -0.12577305       0.81429215
C       -0.76501866       0.71775786       0.63684715
O       -1.01962511       1.35296470      -0.58728753
C       -0.87086987      -0.78928781       0.64180719
O       -1.07300392      -1.24920624      -0.96617562
H        2.08304198      -1.14874947      -0.15473606
H        1.16748999      -0.10672358      -1.23094481
H        2.29005705       0.60207627      -0.05956163
H        0.81724809      -0.19261129       1.83997814
H       -1.18779377       1.23402868       1.49380749
H       -0.32418145       1.98740204      -0.76918141
H       -1.67619812      -1.63785113      -0.08209452
H       -1.46428865      -0.45008231      -1.35816210
14
Frame=5 idx=006011 GeodesicLength=0.2699785012587027 rxn_smarts="[C:1]([C@@:2]1([H:10])[C@:3]([O:4][H:12])([H:11])[C@:5]1([O:6][H:14])[H:13])([H:7])([H:8])[H:9]>>[C:1]([C@@:2]1([H:10])[C@:3]([O:4][H:12])([H:11])[C:5]1)([H:7])([H:8])[H:9].[O:6]([H:13])[H:14]"
C        1.55980157      -0.19144335      -0.21978035
C        0.46421639      -0.12740121       0.81231206
C       -0.76543331       0.71587175       0.63593182
O       -1.01801840       1.35182698      -0.58882585
C       -0.87027295      -0.79142807       0.63445711
O       -1.07488172      -1.24820412      -0.95805577
H        2.08720344      -1.14448359      -0.15600997
H        1.16946645      -0.10520757      -1.23272377
H        2.28861052       0.60668087      -0.06009959
H        0.81562856      -0.19783694       1.83818633
H       -1.19013433       1.23118087       1.49235236
H       -0.32165072       1.98557838      -0.76968226
H       -1.69464150      -1.64048180      -0.07033455
H       -1.44989399      -0.44465220      -1.35772758
14
Frame=6 idx=006011 GeodesicLength=0.32393957726131567 rxn_smarts="[C:1]([C@@:2]1([H:10])[C@:3]([O:4][H:12])([H:11])[C@:5]1([O:6][H:14])[H:13])([H:7])([H:8])[H:9]>>[C:1]([C@@:2]1([H:10])[C@:3]([O:4][H:12])([H:11])[C:5]1)([H:7])([H:8])[H:9].[O:6]([H:13])[H:14]"
C        1.56070312      -0.18897282      -0.22096286
C        0.46412736      -0.12906470       0.81032031
C       -0.76587878       0.71396934       0.63500487
O       -1.01643862       1.35069126      -0.59037221
C       -0.86972514      -0.79356653       0.62711775
O       -1.07681072      -1.24705341      -0.95022581
H        2.09130243      -1.14026068      -0.15728670
H        1.17145159      -0.10366380      -1.23450139
H        2.28715538       0.61121838      -0.06058396
H        0.81397616      -0.20309617       1.83637110
H       -1.19248266       1.22834188       1.49088153
H       -0.31914525       1.98375679      -0.77018459
H       -1.71269814      -1.64296421      -0.05830028
H       -1.43553672      -0.43933534      -1.35727774
14
Frame=7 idx=006011 GeodesicLength=0.37790324099338596 rxn_smarts="[C:1]([C@@:2]1([H:10])[C@:3]([O:4][H:12])([H:11])[C@:5]1([O:6][H:14])[H:13])([H:7])([H:8])[H:9]>>[C:1]([C@@:2]1([H:10])[C@:3]([O:4][H:12])([H:11])[C:5]1)([H:7])([H:8])[H:9].[O:6]([H:13])[H:14]"
C        1.56157030      -0.18652824      -0.22213424
C        0.46399774      -0.13076453       0.80831103
C       -0.76634832       0.71204842       0.63406231
O       -1.01487907       1.34955154      -0.59192245
C       -0.86922816      -0.79569932       0.61978051
O       -1.07879632      -1.24575926      -0.94267528
H        2.09533286      -1.13606734      -0.15856918
H        1.17343742      -0.10209134      -1.23627272
H        2.28567598       0.61569870      -0.06101134
H        0.81228659      -0.20839628       1.83452078
H       -1.19482384       1.22550801       1.48938981
H       -0.31665983       1.98192880      -0.77068042
H       -1.73038859      -1.64530823      -0.04596635
H       -1.42117676      -0.43412092      -1.35683246
14
Frame=8 idx=006011 GeodesicLength=0.4318653531806691 rxn_smarts="[C:1]([C@@:2]1([H:10])[C@:3]([O:4][H:12])([H:11])[C@:5]1([O:6][H:14])[H:13])([H:7])([H:8])[H:9]>>[C:1]([C@@:2]1([H:10])[C@:3]([O:4][H:12])([H:11])[C:5]1)([H:7])([H:8])[H:9].[O:6]([H:13])[H:14]"
C        1.56240454      -0.18410803      -0.22329677
C        0.46382617      -0.13250632       0.80628291
C       -0.76684268       0.71010903       0.63310417
O       -1.01333867       1.34841127      -0.59347749
C       -0.86878540      -0.79782766       0.61244260
O       -1.08083792      -1.24432629      -0.93540321
H        2.09930595      -1.13189867      -0.15985839
H        1.17542790      -0.10048993      -1.23804166
H        2.28416734       0.62013030      -0.06138624
H        0.81055601      -0.21374942       1.83263582
H       -1.19716235       1.22267736       1.48787803
H       -0.31419249       1.98009831      -0.77117090
H       -1.74773818      -1.64751645      -0.03330970
H       -1.40679022      -0.42900351      -1.35639918
14
Frame=9 idx=006011 GeodesicLength=0.4858407352547966 rxn_smarts="[C:1]([C@@:2]1([H:10])[C@:3]([O:4][H:12])([H:11])[C@:5]1([O:6][H:14])[H:13])([H:7])([H:8])[H:9]>>[C:1]([C@@:2]1([H:10])[C@:3]([O:4][H:12])([H:11])[C:5]1)([H:7])([H:8])[H:9].[O:6]([H:13])[H:14]"
C        1.56320663      -0.18171137      -0.22445196
C        0.46361033      -0.13429518       0.80423329
C       -0.76736340       0.70815102       0.63212886
O       -1.01181651       1.34727545      -0.59503905
C       -0.86840003      -0.79995349       0.60509861
O       -1.08293933      -1.24275338      -0.92841084
H        2.10322982      -1.12775174      -0.16115275
H        1.17742626      -0.09886125      -1.23981220
H        2.28262290       0.62452071      -0.06171026
H        0.80878030      -0.21916579       1.83071489
H       -1.19949944       1.21984994       1.48634747
H       -0.31174124       1.97826994      -0.77165505
H       -1.76476157      -1.64960381      -0.02029754
H       -1.39235470      -0.42397106      -1.35599347
14
Frame=10 idx=006011 GeodesicLength=0.5398306715321415 rxn_smarts="[C:1]([C@@:2]1([H:10])[C@:3]([O:4][H:12])([H:11])[C@:5]1([O:6][H:14])[H:13])([H:7])([H:8])[H:9]>>[C:1]([C@@:2]1([H:10])[C@:3]([O:4][H:12])([H:11])[C:5]1)([H:7])([H:8])[H:9].[O:6]([H:13])[H:14]"
C        1.56397488      -0.17933500      -0.22560088
C        0.46334906      -0.13613534       0.80215801
C       -0.76790813       0.70617168       0.63113400
O       -1.01030631       1.34614241      -0.59660716
C       -0.86807376      -0.80207734       0.59774089
O       -1.08511222      -1.24103959      -0.92169648
H        2.10711495      -1.12361391      -0.16244706
H        1.17943185      -0.09720978      -1.24158550
H        2.28103311       0.62888127      -0.06198882
H        0.80695666      -0.22465835       1.82875191
H       -1.20183901       1.21701697       1.48479452
H       -0.30930059       1.97644370      -0.77212695
H       -1.78148144      -1.65156778      -0.00689923
H       -1.37783907      -0.41901893      -1.35562724
14
Frame=11 idx=006011 GeodesicLength=0.5938408607359693 rxn_smarts="[C:1]([C@@:2]1([H:10])[C@:3]([O:4][H:12])([H:11])[C@:5]1([O:6][H:14])[H:13])([H:7])([H:8])[H:9]>>[C:1]([C@@:2]1([H:10])[C@:3]([O:4][H:12])([H:11])[C:5]1)([H:7])([H:8])[H:9].[O:6]([H:13])[H:14]"
C        1.56471021      -0.17697551      -0.22674498
C        0.46304030      -0.13803236       0.80005425
C       -0.76847780       0.70416960       0.63011795
O       -1.00880858       1.34501324      -0.59818420
C       -0.86781094      -0.80420111       0.59036371
O       -1.08735772      -1.23919098      -0.91526101
H        2.11096882      -1.11947862      -0.16374373
H        1.18144898      -0.09553013      -1.24336493
H        2.27939445       0.63321925      -0.06221830
H        0.80508165      -0.23024143       1.82674424
H       -1.20418002       1.21417684       1.48321894
H       -0.30686931       1.97462035      -0.77258786
H       -1.79792060      -1.65340500       0.00691463
H       -1.36321943      -0.41414415      -1.35530871
14
Frame=12 idx=006011 GeodesicLength=0.6478527665407594 rxn_smarts="[C:1]([C@@:2]1([H:10])[C@:3]([O:4][H:12])([H:11])[C@:5]1([O:6][H:14])[H:13])([H:7])([H:8])[H:9]>>[C:1]([C@@:2]1([H:10])[C@:3]([O:4][H:12])([H:11])[C:5]1)([H:7])([H:8])[H:9].[O:6]([H:13])[H:14]"
C        1.56541056      -0.17463373      -0.22788543
C        0.46268424      -0.13998550       0.79792010
C       -0.76907242       0.70214533       0.62907981
O       -1.00732178       1.34388779      -0.59976939
C       -0.86761110      -0.80632360       0.58297093
O       -1.08967466      -1.23720095      -0.90909538
H        2.11479490      -1.11534311      -0.16504332
H        1.18347642      -0.09382393      -1.24514854
H        2.27770205       0.63753353      -0.06240254
H        0.80315597      -0.23591371       1.82468896
H       -1.20652595       1.21132966       1.48161925
H       -0.30444641       1.97279812      -0.77303620
H       -1.81409424      -1.65513466       0.02114315
H       -1.34847758      -0.40933523      -1.35504141
14
Frame=13 idx=006011 GeodesicLength=0.7018815761274122 rxn_smarts="[C:1]([C@@:2]1([H:10])[C@:3]([O:4][H:12])([H:11])[C@:5]1([O:6][H:14])[H:13])([H:7])([H:8])[H:9]>>[C:1]([C@@:2]1([H:10])[C@:3]([O:4][H:12])([H:11])[C:5]1)([H:7])([H:8])[H:9].[O:6]([H:13])[H:14]"
C        1.56607860      -0.17230883      -0.22901932
C        0.46227608      -0.14199773       0.79575194
C       -0.76969379       0.70009957       0.62801350
O       -1.00584395       1.34277203      -0.60136884
C       -0.86747889      -0.80844406       0.57554000
O       -1.09206924      -1.23505902      -0.90322248
H        2.11858657      -1.11121190      -0.16634538
H        1.18552295      -0.09208079      -1.24693842
H        2.27596343       0.64182098      -0.06252608
H        0.80116817      -0.24168533       1.82258392
H       -1.20887771       1.20847325       1.47999043
H       -0.30202742       1.97098339      -0.77347385
H       -1.82997067      -1.65677213       0.03583956
H       -1.33363414      -0.40458944      -1.35482497
14
Frame=14 idx=006011 GeodesicLength=0.7559319402818474 rxn_smarts="[C:1]([C@@:2]1([H:10])[C@:3]([O:4][H:12])([H:11])[C@:5]1([O:6][H:14])[H:13])([H:7])([H:8])[H:9]>>[C:1]([C@@:2]1([H:10])[C@:3]([O:4][H:12])([H:11])[C:5]1)([H:7])([H:8])[H:9].[O:6]([H:13])[H:14]"
C        1.56671449      -0.17000327      -0.23014482
C        0.46181284      -0.14406669       0.79354669
C       -0.77034449       0.69803485       0.62691408
O       -1.00437396       1.34167123      -0.60298595
C       -0.86741599      -0.81055990       0.56806042
O       -1.09453759      -1.23274902      -0.89765165
H        2.12233274      -1.10709477      -0.16765233
H        1.18759244      -0.09029229      -1.24873204
H        2.27418661       0.64606935      -0.06257892
H        0.79911168      -0.24755148       1.82042679
H       -1.21123866       1.20560993       1.47832833
H       -0.29961032       1.96918042      -0.77390079
H       -1.84552362      -1.65835323       0.05102886
H       -1.31870617      -0.39989513      -1.35465868
14
Frame=15 idx=006011 GeodesicLength=0.8099961660859559 rxn_smarts="[C:1]([C@@:2]1([H:10])[C@:3]([O:4][H:12])([H:11])[C@:5]1([O:6][H:14])[H:13])([H:7])([H:8])[H:9]>>[C:1]([C@@:2]1([H:10])[C@:3]([O:4][H:12])([H:11])[C:5]1)([H:7])([H:8])[H:9].[O:6]([H:13])[H:14]"
C        1.56731842      -0.16771936      -0.23125958
C        0.46129126      -0.14618985       0.79130204
C       -0.77102686       0.69595423       0.62577693
O       -1.00290978       1.34059134      -0.60462438
C       -0.86742455      -0.81266735       0.56052126
O       -1.09707488      -1.23025940      -0.89239379
H        2.12602167      -1.10300134      -0.16896598
H        1.18968899      -0.08845055      -1.25052749
H        2.27237985       0.65026711      -0.06255031
H        0.79697963      -0.25350777       1.81821616
H       -1.21361135       1.20274203       1.47662846
H       -0.29719147       1.96739393      -0.77431733
H       -1.86072354      -1.65991193       0.06673354
H       -1.30371740      -0.39524109      -1.35453953
14
Frame=16 idx=006011 GeodesicLength=0.8640683682591951 rxn_smarts="[C:1]([C@@:2]1([H:10])[C@:3]([O:4][H:12])([H:11])[C@:5]1([O:6][H:14])[H:13])([H:7])([H:8])[H:9]>>[C:1]([C@@:2]1([H:10])[C@:3]([O:4][H:12])([H:11])[C:5]1)([H:7])([H:8])[H:9].[O:6]([H:13])[H:14]"
C        1.56789067      -0.16545967      -0.23236134
C        0.46070777      -0.14836483       0.78901559
C       -0.77174374       0.69386083       0.62459725
O       -1.00144923       1.33953899      -0.60628798
C       -0.86750719      -0.81476280       0.55291111
O       -1.09967680      -1.22757863      -0.88745990
H        2.12964169      -1.09894215      -0.17028827
H        1.19181667      -0.08654762      -1.25232292
H        2.27055197       0.65440242      -0.06242967
H        0.79476453      -0.25954989       1.81595067
H       -1.21599953       1.19987193       1.47488619
H       -0.29476689       1.96562951      -0.77472337
H       -1.87553899      -1.66148253       0.08297865
H       -1.28869094      -0.39061555      -1.35446600
