10
Frame=0 idx=002217 GeodesicLength=0.0 rxn_smarts="[C:1](#[C:2][C@@:3]1([H:7])[C:4]([H:8])([H:9])[N:5]1[H:10])[H:6]>>[C:1](=[C:2]=[C:3]1[C:4]([H:8])([H:9])[N:5]1[H:10])([H:6])[H:7]"
C        1.63802537      -0.32749459       0.51589617
C        1.52049783       0.27874338      -0.65593600
C        0.17289289       0.00725465      -0.13490568
C       -1.13055587       0.64811409       0.02800162
N       -0.94595203      -0.66167971      -0.65249172
H        2.22361570      -1.02331483       1.10168278
H        0.48503364      -0.43302226       1.08582184
H       -1.30565601       1.53174202      -0.57631221
H       -1.69006663       0.59239367       0.95376055
H       -0.96783489      -0.61273642      -1.66551735
10
Frame=1 idx=002217 GeodesicLength=0.11786059006583219 rxn_smarts="[C:1](#[C:2][C@@:3]1([H:7])[C:4]([H:8])([H:9])[N:5]1[H:10])[H:6]>>[C:1](=[C:2]=[C:3]1[C:4]([H:8])([H:9])[N:5]1[H:10])([H:6])[H:7]"
C        1.66052386      -0.32983703       0.52920270
C        1.50192974       0.27362480      -0.63406589
C        0.15823790       0.00119357      -0.12277061
C       -1.14209692       0.65345012       0.01864651
N       -0.96099599      -0.65858664      -0.65583630
H        2.27621944      -1.02904352       1.07806111
H        0.49187371      -0.44547275       1.10836935
H       -1.30198530       1.53723541      -0.58972134
H       -1.71419076       0.60599518       0.93711313
H       -0.96951569      -0.60855915      -1.66899866
10
Frame=2 idx=002217 GeodesicLength=0.2357070092960375 rxn_smarts="[C:1](#[C:2][C@@:3]1([H:7])[C:4]([H:8])([H:9])[N:5]1[H:10])[H:6]>>[C:1](=[C:2]=[C:3]1[C:4]([H:8])([H:9])[N:5]1[H:10])([H:6])[H:7]"
C        1.68339837      -0.33311764       0.54256243
C        1.48286563       0.26692405      -0.61089668
C        0.14257928      -0.00553529      -0.10995976
C       -1.15383263       0.65902941       0.00911462
N       -0.97683960      -0.65516369      -0.65959504
H        2.33067831      -1.03184930       1.05348661
H        0.49865187      -0.45959174       1.13124548
H       -1.29738093       1.54308711      -0.60299649
H       -1.73890362       0.62014964       0.91974391
H       -0.97121669      -0.60393256      -1.67270508
10
Frame=3 idx=002217 GeodesicLength=0.3535307445751947 rxn_smarts="[C:1](#[C:2][C@@:3]1([H:7])[C:4]([H:8])([H:9])[N:5]1[H:10])[H:6]>>[C:1](=[C:2]=[C:3]1[C:4]([H:8])([H:9])[N:5]1[H:10])([H:6])[H:7]"
C        1.70666432      -0.33737005       0.55597078
C        1.46325409       0.25853255      -0.58633163
C        0.12584134      -0.01296296      -0.09641679
C       -1.16573715       0.66488328      -0.00060200
N       -0.99349450      -0.65139181      -0.66375717
H        2.38696436      -1.03152044       1.02782726
H        0.50535909      -0.47552626       1.15444814
H       -1.29175117       1.54928566      -0.61613775
H       -1.76420008       0.63495838       0.90159396
H       -0.97290029      -0.59888835      -1.67659479
10
Frame=4 idx=002217 GeodesicLength=0.4713405484063081 rxn_smarts="[C:1](#[C:2][C@@:3]1([H:7])[C:4]([H:8])([H:9])[N:5]1[H:10])[H:6]>>[C:1](=[C:2]=[C:3]1[C:4]([H:8])([H:9])[N:5]1[H:10])([H:6])[H:7]"
C        1.73027316      -0.34275182       0.56933456
C        1.44301787       0.24805235      -0.56038859
C        0.10790730      -0.02122063      -0.08214738
C       -1.17774407       0.67105986      -0.01048401
N       -1.01108135      -0.64719747      -0.66839661
H        2.44526939      -1.02729572       1.00132719
H        0.51193005      -0.49374199       1.17785666
H       -1.28488888       1.55589377      -0.62903393
H       -1.79001683       0.65052672       0.88263521
H       -0.97466665      -0.59332507      -1.68070311
10
Frame=5 idx=002217 GeodesicLength=0.5890757410642513 rxn_smarts="[C:1](#[C:2][C@@:3]1([H:7])[C:4]([H:8])([H:9])[N:5]1[H:10])[H:6]>>[C:1](=[C:2]=[C:3]1[C:4]([H:8])([H:9])[N:5]1[H:10])([H:6])[H:7]"
C        1.75438522      -0.34904769       0.58281540
C        1.42215740       0.23602083      -0.53261535
C        0.08878110      -0.03009433      -0.06691707
C       -1.18987980       0.67754852      -0.02059722
N       -1.02931075      -0.64268070      -0.67328202
H        2.50481347      -1.02007393       0.97283878
H        0.51847683      -0.51370761       1.20174157
H       -1.27690127       1.56268010      -0.64192881
H       -1.81644256       0.66697367       0.86270429
H       -0.97607964      -0.58761885      -1.68475957
10
Frame=6 idx=002217 GeodesicLength=0.7067711483025552 rxn_smarts="[C:1](#[C:2][C@@:3]1([H:7])[C:4]([H:8])([H:9])[N:5]1[H:10])[H:6]>>[C:1](=[C:2]=[C:3]1[C:4]([H:8])([H:9])[N:5]1[H:10])([H:6])[H:7]"
C        1.77883124      -0.35664698       0.59616142
C        1.40053358       0.22142389      -0.50329553
C        0.06826234      -0.03992983      -0.05086459
C       -1.20197474       0.68444576      -0.03086590
N       -1.04853991      -0.63766704      -0.67863066
H        2.56620279      -1.00795184       0.94336902
H        0.52482115      -0.53655836       1.22571461
H       -1.26732509       1.56985717      -0.65450464
H       -1.84325568       0.68446817       0.84184924
H       -0.97755568      -0.58144095      -1.68893297
10
Frame=7 idx=002217 GeodesicLength=0.8243963714248508 rxn_smarts="[C:1](#[C:2][C@@:3]1([H:7])[C:4]([H:8])([H:9])[N:5]1[H:10])[H:6]>>[C:1](=[C:2]=[C:3]1[C:4]([H:8])([H:9])[N:5]1[H:10])([H:6])[H:7]"
C        1.80364235      -0.36561334       0.60936623
C        1.37807313       0.20412069      -0.47227188
C        0.04626394      -0.05074991      -0.03390331
C       -1.21393824       0.69178935      -0.04128734
N       -1.06873017      -0.63213933      -0.68438304
H        2.62910523      -0.99053545       0.91263590
H        0.53093900      -0.56251521       1.24972952
H       -1.25598724       1.57735589      -0.66676285
H       -1.87037417       0.70318069       0.81999148
H       -0.97899382      -0.57489338      -1.69311472
10
Frame=8 idx=002217 GeodesicLength=0.9420297510696836 rxn_smarts="[C:1](#[C:2][C@@:3]1([H:7])[C:4]([H:8])([H:9])[N:5]1[H:10])[H:6]>>[C:1](=[C:2]=[C:3]1[C:4]([H:8])([H:9])[N:5]1[H:10])([H:6])[H:7]"
C        1.82854448      -0.37636584       0.62214504
C        1.35461700       0.18268773      -0.43989317
C        0.02253445      -0.06304167      -0.01620914
C       -1.22550195       0.69974379      -0.05176964
N       -1.09037326      -0.62588067      -0.69074128
H        2.69412840      -0.96519968       0.88179352
H        0.53663305      -0.59318405       1.27328046
H       -1.24220459       1.58539862      -0.67837633
H       -1.89739339       0.72352941       0.79723728
H       -0.98098418      -0.56768765      -1.69746673
10
Frame=9 idx=002217 GeodesicLength=1.0594008097142762 rxn_smarts="[C:1](#[C:2][C@@:3]1([H:7])[C:4]([H:8])([H:9])[N:5]1[H:10])[H:6]>>[C:1](=[C:2]=[C:3]1[C:4]([H:8])([H:9])[N:5]1[H:10])([H:6])[H:7]"
C        1.85449275      -0.38754230       0.63501284
C        1.33044512       0.16119199      -0.40409016
C       -0.00243116      -0.07523947       0.00322767
C       -1.23705647       0.70785288      -0.06258888
N       -1.11149591      -0.61951288      -0.69683340
H        2.75682035      -0.93874850       0.84570897
H        0.54262274      -0.62439063       1.29799920
H       -1.22732601       1.59282994      -0.69030336
H       -1.92514645       0.74474877       0.77284581
H       -0.98092497      -0.56118980      -1.70097870
10
Frame=10 idx=002217 GeodesicLength=1.1767294068222416 rxn_smarts="[C:1](#[C:2][C@@:3]1([H:7])[C:4]([H:8])([H:9])[N:5]1[H:10])[H:6]>>[C:1](=[C:2]=[C:3]1[C:4]([H:8])([H:9])[N:5]1[H:10])([H:6])[H:7]"
C        1.88075052      -0.40044492       0.64721858
C        1.30520220       0.13605773      -0.36619285
C       -0.02916735      -0.08859200       0.02374627
C       -1.24802018       0.71655248      -0.07350738
N       -1.13354889      -0.61253334      -0.70322421
H        2.81965832      -0.90481226       0.80811164
H        0.54835415      -0.65985155       1.32255850
H       -1.20988238       1.60040347      -0.70175495
H       -1.95263222       0.76780674       0.74725829
H       -0.98071417      -0.55458636      -1.70421387
10
Frame=11 idx=002217 GeodesicLength=1.2937935677257908 rxn_smarts="[C:1](#[C:2][C@@:3]1([H:7])[C:4]([H:8])([H:9])[N:5]1[H:10])[H:6]>>[C:1](=[C:2]=[C:3]1[C:4]([H:8])([H:9])[N:5]1[H:10])([H:6])[H:7]"
C        1.90703412      -0.41600988       0.65829631
C        1.27872930       0.10633045      -0.32625506
C       -0.05784132      -0.10339801       0.04532279
C       -1.25798514       0.72593582      -0.08443474
N       -1.15670736      -0.60479298      -0.70986574
H        2.88218714      -0.86093589       0.76941730
H        0.55358839      -0.70044635       1.34661508
H       -1.18913756       1.60804485      -0.71254044
H       -1.97933021       0.79313807       0.72048332
H       -0.98053737      -0.54786609      -1.70703882
10
Frame=12 idx=002217 GeodesicLength=1.410711328874347 rxn_smarts="[C:1](#[C:2][C@@:3]1([H:7])[C:4]([H:8])([H:9])[N:5]1[H:10])[H:6]>>[C:1](=[C:2]=[C:3]1[C:4]([H:8])([H:9])[N:5]1[H:10])([H:6])[H:7]"
C        1.93336751      -0.43452610       0.66763090
C        1.25099854       0.07175394      -0.28410451
C       -0.08842356      -0.11965904       0.06801314
C       -1.26661946       0.73600271      -0.09530942
N       -1.18076077      -0.59629062      -0.71666651
H        2.94268900      -0.80611908       0.72957418
H        0.55843655      -0.74641099       1.37022487
H       -1.16472219       1.61553111      -0.72259528
H       -2.00473837       0.82096460       0.69255217
H       -0.98022725      -0.54124652      -1.70931954
10
Frame=13 idx=002217 GeodesicLength=1.5275002371053246 rxn_smarts="[C:1](#[C:2][C@@:3]1([H:7])[C:4]([H:8])([H:9])[N:5]1[H:10])[H:6]>>[C:1](=[C:2]=[C:3]1[C:4]([H:8])([H:9])[N:5]1[H:10])([H:6])[H:7]"
C        1.96082653      -0.45392020       0.67559797
C        1.22233683       0.03790602      -0.23696004
C       -0.12034546      -0.13544378       0.09292980
C       -1.27466428       0.74594495      -0.10638907
N       -1.20307420      -0.58772209      -0.72334106
H        2.99658779      -0.74990974       0.68285851
H        0.56359948      -0.79247617       1.39568432
H       -1.13859241       1.62185420      -0.73223990
H       -2.03048488       0.84925458       0.66227483
H       -0.97618940      -0.53548775      -1.71041537
10
Frame=14 idx=002217 GeodesicLength=1.6436113412186188 rxn_smarts="[C:1](#[C:2][C@@:3]1([H:7])[C:4]([H:8])([H:9])[N:5]1[H:10])[H:6]>>[C:1](=[C:2]=[C:3]1[C:4]([H:8])([H:9])[N:5]1[H:10])([H:6])[H:7]"
C        1.98795676      -0.47778115       0.67937903
C        1.19236449      -0.00222193      -0.18831655
C       -0.15401279      -0.15298696       0.11847925
C       -1.28035480       0.75653812      -0.11716374
N       -1.22621711      -0.57833347      -0.73000043
H        3.04509335      -0.67916058       0.63726172
H        0.56856620      -0.84412590       1.42046576
H       -1.10766004       1.62766395      -0.74065740
H       -2.05320532       0.88047999       0.63123397
H       -0.97253074      -0.53007206      -1.71068160
10
Frame=15 idx=002217 GeodesicLength=1.7595810022789378 rxn_smarts="[C:1](#[C:2][C@@:3]1([H:7])[C:4]([H:8])([H:9])[N:5]1[H:10])[H:6]>>[C:1](=[C:2]=[C:3]1[C:4]([H:8])([H:9])[N:5]1[H:10])([H:6])[H:7]"
C        2.01569329      -0.50307839       0.67908353
C        1.16138369      -0.04453426      -0.13629636
C       -0.18888992      -0.17086271       0.14529408
C       -1.28419270       0.76714566      -0.12773299
N       -1.24817526      -0.56861134      -0.73662646
H        3.08422325      -0.60174414       0.58920610
H        0.57396081      -0.89817839       1.44605764
H       -1.07344846       1.63226141      -0.74788145
H       -2.07394491       0.91300321       0.59876212
H       -0.96660979      -0.52540105      -1.70986621
10
Frame=16 idx=002217 GeodesicLength=1.8754432809134554 rxn_smarts="[C:1](#[C:2][C@@:3]1([H:7])[C:4]([H:8])([H:9])[N:5]1[H:10])[H:6]>>[C:1](=[C:2]=[C:3]1[C:4]([H:8])([H:9])[N:5]1[H:10])([H:6])[H:7]"
C        2.04395963      -0.52544658       0.67554943
C        1.12959007      -0.08707629      -0.07975953
C       -0.22465506      -0.18832850       0.17364067
C       -1.28638782       0.77737531      -0.13813570
N       -1.26762269      -0.55884760      -0.74336703
H        3.11163852      -0.52363654       0.53608848
H        0.58024177      -0.95363253       1.47317480
H       -1.03676781       1.63540152      -0.75367944
H       -2.09323252       0.94567888       0.56434146
H       -0.95676410      -0.52148765      -1.70785316
