13
Frame=0 idx=001001 GeodesicLength=0.0 rxn_smarts="[O:1]([C:2]([C:3]([O:4]/[C:5](=[N:6]/[H:13])[H:12])([H:10])[H:11])([H:8])[H:9])[H:7]>>[O:1]([C:2]([O:4][C:3]([N:6]([C:5][H:12])[H:13])([H:10])[H:11])([H:8])[H:9])[H:7]"
O       -2.27886816      -0.53112082       0.84870853
C       -1.17484756      -1.24420892       0.51072441
C        0.13087602      -0.22159634      -0.56979113
O        0.14843013       0.10202977       0.72672867
C        1.57169543       1.53706422       0.25830837
N        1.45392944       1.10226430      -0.89801479
H       -2.03817488       0.06544080       1.56304825
H       -0.69518282      -1.81358273       1.30260235
H       -1.41363172      -1.86359072      -0.35336875
H        0.70553928      -1.07210990      -0.93433211
H       -0.62850170       0.19084770      -1.23151592
H        2.27115976       2.34141136       0.50431895
H        1.94757674       1.40715132      -1.72741681
13
Frame=1 idx=001001 GeodesicLength=0.089594430870772 rxn_smarts="[O:1]([C:2]([C:3]([O:4]/[C:5](=[N:6]/[H:13])[H:12])([H:10])[H:11])([H:8])[H:9])[H:7]>>[O:1]([C:2]([O:4][C:3]([N:6]([C:5][H:12])[H:13])([H:10])[H:11])([H:8])[H:9])[H:7]"
O       -2.25082848      -0.48810236       0.83881858
C       -1.16761277      -1.24308994       0.51676325
C        0.14128962      -0.25121987      -0.57954767
O        0.23515289       0.00817426       0.73104931
C        1.51070925       1.55362873       0.26762853
N        1.40433737       1.13709170      -0.89862816
H       -1.97901962       0.15112931       1.50466938
H       -0.72812111      -1.81690235       1.32963258
H       -1.42770479      -1.88357954      -0.32557769
H        0.70816882      -1.09004372      -0.98137171
H       -0.62302490       0.16053510      -1.23552980
H        2.24698968       2.31597092       0.53877285
H        1.92966405       1.44640775      -1.70667947
13
Frame=2 idx=001001 GeodesicLength=0.18150614099649276 rxn_smarts="[O:1]([C:2]([C:3]([O:4]/[C:5](=[N:6]/[H:13])[H:12])([H:10])[H:11])([H:8])[H:9])[H:7]>>[O:1]([C:2]([O:4][C:3]([N:6]([C:5][H:12])[H:13])([H:10])[H:11])([H:8])[H:9])[H:7]"
O       -2.21787289      -0.44177657       0.82864609
C       -1.15685767      -1.23829903       0.52444305
C        0.15112987      -0.28138449      -0.59466123
O        0.31717289      -0.08092190       0.72226011
C        1.44902243       1.55974656       0.28253248
N        1.34908774       1.17186038      -0.89631726
H       -1.91326520       0.23526855       1.44220019
H       -0.75412223      -1.80719525       1.36062253
H       -1.44056940      -1.90285175      -0.29123968
H        0.71085183      -1.10818355      -1.03004563
H       -0.61760502       0.12535855      -1.24821162
H        2.21729300       2.27965620       0.58009068
H        1.90573466       1.48872230      -1.68031972
13
Frame=3 idx=001001 GeodesicLength=0.2759678763644964 rxn_smarts="[O:1]([C:2]([C:3]([O:4]/[C:5](=[N:6]/[H:13])[H:12])([H:10])[H:11])([H:8])[H:9])[H:7]>>[O:1]([C:2]([O:4][C:3]([N:6]([C:5][H:12])[H:13])([H:10])[H:11])([H:8])[H:9])[H:7]"
O       -2.18181702      -0.39372409       0.81662018
C       -1.14331590      -1.23017425       0.53291975
C        0.16045828      -0.31158503      -0.61363779
O        0.39360216      -0.16474572       0.70351244
C        1.39241676       1.55326474       0.30333921
N        1.29086072       1.20414446      -0.88965112
H       -1.84464163       0.31534511       1.37608880
H       -0.77346606      -1.78556700       1.39417192
H       -1.45190179      -1.92070148      -0.25161935
H        0.71303680      -1.12670409      -1.07928047
H       -0.61201894       0.08844414      -1.26665288
H        2.18286226       2.23887190       0.62347614
H        1.87392436       1.53313130      -1.64928683
13
Frame=4 idx=001001 GeodesicLength=0.37261389758207925 rxn_smarts="[O:1]([C:2]([C:3]([O:4]/[C:5](=[N:6]/[H:13])[H:12])([H:10])[H:11])([H:8])[H:9])[H:7]>>[O:1]([C:2]([O:4][C:3]([N:6]([C:5][H:12])[H:13])([H:10])[H:11])([H:8])[H:9])[H:7]"
O       -2.14518952      -0.34648469       0.80063036
C       -1.12743854      -1.21932953       0.54178907
C        0.16920259      -0.34094595      -0.63476004
O        0.46300029      -0.24169012       0.67815648
C        1.34247403       1.53645012       0.32870589
N        1.23077925       1.23331211      -0.87811948
H       -1.77830889       0.38937684       1.30587265
H       -0.78635391      -1.75247457       1.42974626
H       -1.45991633      -1.93772957      -0.20725134
H        0.71527902      -1.14493059      -1.12694935
H       -0.60627795       0.05149111      -1.28864339
H        2.15102230       2.19210195       0.66640410
H        1.83172766       1.58085290      -1.61558124
13
Frame=5 idx=001001 GeodesicLength=0.471034422850102 rxn_smarts="[O:1]([C:2]([C:3]([O:4]/[C:5](=[N:6]/[H:13])[H:12])([H:10])[H:11])([H:8])[H:9])[H:7]>>[O:1]([C:2]([O:4][C:3]([N:6]([C:5][H:12])[H:13])([H:10])[H:11])([H:8])[H:9])[H:7]"
O       -2.10965809      -0.30186843       0.78036055
C       -1.10969970      -1.20633488       0.55060735
C        0.17717280      -0.36869652      -0.65684302
O        0.52523377      -0.31150690       0.64881529
C        1.29951360       1.51170827       0.35712657
N        1.16998340       1.25884889      -0.86166803
H       -1.71706636       0.45635455       1.23223808
H       -0.79311457      -1.70946053       1.46589299
H       -1.46403635      -1.95379840      -0.15901146
H        0.71738211      -1.16215135      -1.17235528
H       -0.60060627       0.01631130      -1.31219223
H        2.12440907       2.14037777       0.70679425
H        1.78048658       1.63021620      -1.57976507
13
Frame=6 idx=001001 GeodesicLength=0.5707879494772112 rxn_smarts="[O:1]([C:2]([C:3]([O:4]/[C:5](=[N:6]/[H:13])[H:12])([H:10])[H:11])([H:8])[H:9])[H:7]>>[O:1]([C:2]([O:4][C:3]([N:6]([C:5][H:12])[H:13])([H:10])[H:11])([H:8])[H:9])[H:7]"
O       -2.07637158      -0.26103029       0.75614090
C       -1.09055656      -1.19176122       0.55911771
C        0.18415980      -0.39434204      -0.67912450
O        0.58078174      -0.37446745       0.61734699
C        1.26299639       1.48144952       0.38717915
N        1.10934712       1.28075371      -0.84069693
H       -1.66247268       0.51602847       1.15608209
H       -0.79419413      -1.65821760       1.50135505
H       -1.46417933      -1.96885449      -0.10759473
H        0.71904045      -1.17789353      -1.21529475
H       -0.59533570      -0.01591633      -1.33605592
H        2.10406533       2.08469938       0.74335818
H        1.72271916       1.67955185      -1.54181323
13
Frame=7 idx=001001 GeodesicLength=0.6716298510194625 rxn_smarts="[O:1]([C:2]([C:3]([O:4]/[C:5](=[N:6]/[H:13])[H:12])([H:10])[H:11])([H:8])[H:9])[H:7]>>[O:1]([C:2]([O:4][C:3]([N:6]([C:5][H:12])[H:13])([H:10])[H:11])([H:8])[H:9])[H:7]"
O       -2.04573073      -0.22440019       0.72897880
C       -1.07035387      -1.17599932       0.56713387
C        0.19000364      -0.41767910      -0.70127710
O        0.63048258      -0.43130903       0.58472932
C        1.23169607       1.44753259       0.41772692
N        1.04988064       1.29887672      -0.81588756
H       -1.61467483       0.56862444       1.07861401
H       -0.79001556      -1.60048393       1.53491568
H       -1.46074681      -1.98250953      -0.05359688
H        0.71975642      -1.19196401      -1.25608502
H       -0.59071344      -0.04441059      -1.35948340
H        2.08876893       2.02689330       0.77565364
H        1.66164695       1.72682866      -1.50142228
13
Frame=8 idx=001001 GeodesicLength=0.7733940583477552 rxn_smarts="[O:1]([C:2]([C:3]([O:4]/[C:5](=[N:6]/[H:13])[H:12])([H:10])[H:11])([H:8])[H:9])[H:7]>>[O:1]([C:2]([O:4][C:3]([N:6]([C:5][H:12])[H:13])([H:10])[H:11])([H:8])[H:9])[H:7]"
O       -2.01778030      -0.19200671       0.69996751
C       -1.04935503      -1.15936811       0.57456483
C        0.19457681      -0.43869148      -0.72317252
O        0.67513786      -0.48272894       0.55147256
C        1.20414679       1.41142537       0.44791976
N        0.99253669       1.31318291      -0.78818193
H       -1.57326986       0.61458210       1.00103562
H       -0.78096748      -1.53783653       1.56567108
H       -1.45421962      -1.99440531       0.00251501
H        0.71910466      -1.20439123      -1.29505663
H       -0.58694233      -0.06881740      -1.38211110
H        2.07674357       1.96849883       0.80392757
H        1.60028824       1.77055650      -1.45855176
13
Frame=9 idx=001001 GeodesicLength=0.8759647494210658 rxn_smarts="[O:1]([C:2]([C:3]([O:4]/[C:5](=[N:6]/[H:13])[H:12])([H:10])[H:11])([H:8])[H:9])[H:7]>>[O:1]([C:2]([O:4][C:3]([N:6]([C:5][H:12])[H:13])([H:10])[H:11])([H:8])[H:9])[H:7]"
O       -1.99224922      -0.16366922       0.67033801
C       -1.02773053      -1.14212584       0.58135477
C        0.19776266      -0.45742526      -0.74483027
O        0.71542506      -0.52931335       0.51773897
C        1.17886886       1.37420426       0.47712305
N        0.93828469       1.32362350      -0.75873301
H       -1.53739840       0.65436060       0.92450982
H       -0.76740069      -1.47181673       1.59293005
H       -1.44512940      -2.00410548       0.06034939
H        0.71662704      -1.21525736      -1.33259947
H       -0.58418429      -0.08896825      -1.40375966
H        2.06565731       1.91118036       0.82906033
H        1.54146691       1.80931275      -1.41348198
13
Frame=10 idx=001001 GeodesicLength=0.9791408654829721 rxn_smarts="[O:1]([C:2]([C:3]([O:4]/[C:5](=[N:6]/[H:13])[H:12])([H:10])[H:11])([H:8])[H:9])[H:7]>>[O:1]([C:2]([O:4][C:3]([N:6]([C:5][H:12])[H:13])([H:10])[H:11])([H:8])[H:9])[H:7]"
O       -1.96893623      -0.13908527       0.64094579
C       -1.00568969      -1.12458076       0.58748531
C        0.19952773      -0.47401698      -0.76615459
O        0.75181094      -0.57136443       0.48382884
C        1.15472366       1.33677877       0.50496408
N        0.88761940       1.33058910      -0.72867125
H       -1.50637116       0.68849110       0.84997988
H       -0.74981946      -1.40384686       1.61631379
H       -1.43388116      -2.01143896       0.11941855
H        0.71228063      -1.22476687      -1.36868423
H       -0.58252467      -0.10511766      -1.42439708
H        2.05424352       1.85563077       0.85190631
H        1.48701648       1.84272804      -1.36693540
13
Frame=11 idx=001001 GeodesicLength=1.082751641458285 rxn_smarts="[O:1]([C:2]([C:3]([O:4]/[C:5](=[N:6]/[H:13])[H:12])([H:10])[H:11])([H:8])[H:9])[H:7]>>[O:1]([C:2]([O:4][C:3]([N:6]([C:5][H:12])[H:13])([H:10])[H:11])([H:8])[H:9])[H:7]"
O       -1.94751554      -0.11784451       0.61253047
C       -0.98343136      -1.10700940       0.59292213
C        0.19993248      -0.48863288      -0.78703615
O        0.78465788      -0.60910183       0.45004337
C        1.13089905       1.29978933       0.53121008
N        0.84078323       1.33452270      -0.69898293
H       -1.47933187       0.71750042       0.77822763
H       -0.72889020      -1.33533902       1.63561893
H       -1.42090103      -2.01622153       0.17916702
H        0.70618774      -1.23310893      -1.40320537
H       -0.58190770      -0.11767046      -1.44402968
H        2.04149857       1.80243082       0.87326181
H        1.43801875       1.87068530      -1.31972732
13
Frame=12 idx=001001 GeodesicLength=1.1866270422022533 rxn_smarts="[O:1]([C:2]([C:3]([O:4]/[C:5](=[N:6]/[H:13])[H:12])([H:10])[H:11])([H:8])[H:9])[H:7]>>[O:1]([C:2]([O:4][C:3]([N:6]([C:5][H:12])[H:13])([H:10])[H:11])([H:8])[H:9])[H:7]"
O       -1.92765929      -0.09945858       0.58556305
C       -0.96118537      -1.08968358       0.59762562
C        0.19913445      -0.50148018      -0.80730384
O        0.81425638      -0.64268671       0.41678963
C        1.10696053       1.26371257       0.55574013
N        0.79768842       1.33598842      -0.67040343
H       -1.45543780       0.74194017       0.70987596
H       -0.70545967      -1.26763034       1.65084426
H       -1.40662505      -2.01837236       0.23894044
H        0.69870931      -1.24048821      -1.43591280
H       -0.58216143      -0.12718865      -1.46269195
H        2.02705371       1.75182194       0.89360729
H        1.39472582       1.89352551      -1.27267437
13
Frame=13 idx=001001 GeodesicLength=1.2906227302223567 rxn_smarts="[O:1]([C:2]([C:3]([O:4]/[C:5](=[N:6]/[H:13])[H:12])([H:10])[H:11])([H:8])[H:9])[H:7]>>[O:1]([C:2]([O:4][C:3]([N:6]([C:5][H:12])[H:13])([H:10])[H:11])([H:8])[H:9])[H:7]"
O       -1.90903511      -0.08342276       0.56026823
C       -0.93918928      -1.07284887       0.60155790
C        0.19734589      -0.51278422      -0.82675681
O        0.84086165      -0.67228964       0.38450420
C        1.08277863       1.22888188       0.57849598
N        0.75804227       1.33555123      -0.64339769
H       -1.43386708       0.76236655       0.64538460
H       -0.68046587      -1.20189698       1.66215546
H       -1.39149840      -2.01790638       0.29805414
H        0.69031062      -1.24709541      -1.46650913
H       -0.58304036      -0.13428092      -1.48040466
H        2.01098280       1.70385356       0.91309952
H        1.35677424       1.91187196      -1.22645174
13
Frame=14 idx=001001 GeodesicLength=1.394583043770323 rxn_smarts="[O:1]([C:2]([C:3]([O:4]/[C:5](=[N:6]/[H:13])[H:12])([H:10])[H:11])([H:8])[H:9])[H:7]>>[O:1]([C:2]([O:4][C:3]([N:6]([C:5][H:12])[H:13])([H:10])[H:11])([H:8])[H:9])[H:7]"
O       -1.89142086      -0.06927249       0.53673969
C       -0.91764214      -1.05671281       0.60472981
C        0.19478982      -0.52274394      -0.84526835
O        0.86478548      -0.69814553       0.35355253
C        1.05837479       1.19552031       0.59947065
N        0.72148024       1.33373792      -0.61823750
H       -1.41398393       0.77933917       0.58505620
H       -0.65478888      -1.13906946       1.66996738
H       -1.37588190      -2.01496160       0.35591390
H        0.68145242      -1.25306672      -1.49486671
H       -0.58432928      -0.13945050      -1.49722696
H        1.99353342       1.65848442       0.93174073
H        1.32363080       1.92634123      -1.18157137
13
Frame=15 idx=001001 GeodesicLength=1.498390415879845 rxn_smarts="[O:1]([C:2]([C:3]([O:4]/[C:5](=[N:6]/[H:13])[H:12])([H:10])[H:11])([H:8])[H:9])[H:7]>>[O:1]([C:2]([O:4][C:3]([N:6]([C:5][H:12])[H:13])([H:10])[H:11])([H:8])[H:9])[H:7]"
O       -1.87460644      -0.05662309       0.51492119
C       -0.89669689      -1.04142965       0.60717343
C        0.19165290      -0.53154913      -0.86273573
O        0.88631977      -0.72053272       0.32419109
C        1.03387525       1.16374614       0.61869835
N        0.68762783       1.33098048      -0.59502215
H       -1.39524648       0.79338527       0.52900127
H       -0.62917239      -1.07978201       1.67474846
H       -1.36008254      -2.00974975       0.41204397
H        0.67249511      -1.25851651      -1.52091163
H       -0.58584228      -0.14313027      -1.51318322
H        1.97505679       1.61561460       0.94943975
H        1.29461937       1.93758663      -1.13836479
13
Frame=16 idx=001001 GeodesicLength=1.6019392515809163 rxn_smarts="[O:1]([C:2]([C:3]([O:4]/[C:5](=[N:6]/[H:13])[H:12])([H:10])[H:11])([H:8])[H:9])[H:7]>>[O:1]([C:2]([O:4][C:3]([N:6]([C:5][H:12])[H:13])([H:10])[H:11])([H:8])[H:9])[H:7]"
O       -1.85845073      -0.04518250       0.49469472
C       -0.87644907      -1.02709702       0.60895433
C        0.18807954      -0.53936293      -0.87911977
O        0.90576612      -0.73976741       0.29654745
C        1.00942533       1.13359479       0.63624450
N        0.65615563       1.32762065      -0.57374806
H       -1.37727595       0.80498215       0.47716343
H       -0.60417318      -1.02437545       1.67702355
H       -1.34431517      -2.00253397       0.46612915
H        0.66368674      -1.26352521      -1.54469143
H       -0.58745411      -0.14564546      -1.52830380
H        1.95588137       1.57511367       0.96611521
H        1.26912348       1.94617868      -1.09700928
