13
Frame=0 idx=003876 GeodesicLength=0.0 rxn_smarts="[O:1]([C:2]([C:3]([N:4]([C:5](=[O:6])[H:13])[H:12])([H:10])[H:11])([H:8])[H:9])[H:7]>>[O:1]([C:2]([C:3]([N:4]([C:5][O:6][H:13])[H:12])([H:10])[H:11])([H:8])[H:9])[H:7]"
O       -1.19231973      -0.59969500       1.44751341
C       -1.25818234      -0.64515050       0.04784740
C       -0.52451435       0.50043553      -0.64599859
N        0.90854189       0.27062988      -0.87507911
C        1.83443530       0.24305625       0.05989704
O        1.47475610       0.34836519       1.32492027
H       -0.28341478      -0.39137174       1.70308977
H       -2.31789462      -0.57754720      -0.21092607
H       -0.88224148      -1.59953480      -0.34757902
H       -0.65133758       1.41279039      -0.05842259
H       -0.96217409       0.67228196      -1.62976307
H        1.22896922       0.17468606      -1.82224156
H        2.62537640       0.19105395       1.00674209
13
Frame=1 idx=003876 GeodesicLength=0.030696036317865057 rxn_smarts="[O:1]([C:2]([C:3]([N:4]([C:5](=[O:6])[H:13])[H:12])([H:10])[H:11])([H:8])[H:9])[H:7]>>[O:1]([C:2]([C:3]([N:4]([C:5][O:6][H:13])[H:12])([H:10])[H:11])([H:8])[H:9])[H:7]"
O       -1.19336732      -0.60460542       1.44575450
C       -1.26287196      -0.64408525       0.04602201
C       -0.52374766       0.49984751      -0.64466988
N        0.90825325       0.26522282      -0.87305352
C        1.83360831       0.21557776       0.06231972
O        1.47592806       0.34283617       1.32326260
H       -0.28360580      -0.39901511       1.70032625
H       -2.32266379      -0.56979816      -0.21059626
H       -0.89240996      -1.59889952      -0.35364972
H       -0.64692497       1.41151176      -0.05519437
H       -0.96046222       0.67558143      -1.62822541
H        1.22884546       0.17080860      -1.82031481
H        2.63941861       0.23501741       1.00801891
13
Frame=2 idx=003876 GeodesicLength=0.061232761049205484 rxn_smarts="[O:1]([C:2]([C:3]([N:4]([C:5](=[O:6])[H:13])[H:12])([H:10])[H:11])([H:8])[H:9])[H:7]>>[O:1]([C:2]([C:3]([N:4]([C:5][O:6][H:13])[H:12])([H:10])[H:11])([H:8])[H:9])[H:7]"
O       -1.19438608      -0.60940114       1.44413513
C       -1.26724272      -0.64305510       0.04436684
C       -0.52280146       0.49932378      -0.64331388
N        0.90828254       0.26013854      -0.87068775
C        1.83275430       0.18920235       0.06514866
O        1.47728359       0.33729677       1.32189504
H       -0.28385026      -0.40627444       1.69781234
H       -2.32708271      -0.56236836      -0.21025908
H       -0.90194934      -1.59825156      -0.35928210
H       -0.64263371       1.41033339      -0.05211100
H       -0.95841027       0.67873298      -1.62676317
H        1.22925951       0.16716816      -1.81795678
H        2.65077662       0.27715462       1.00701575
13
Frame=3 idx=003876 GeodesicLength=0.09141081312071858 rxn_smarts="[O:1]([C:2]([C:3]([N:4]([C:5](=[O:6])[H:13])[H:12])([H:10])[H:11])([H:8])[H:9])[H:7]>>[O:1]([C:2]([C:3]([N:4]([C:5][O:6][H:13])[H:12])([H:10])[H:11])([H:8])[H:9])[H:7]"
O       -1.19444667      -0.61331432       1.44275363
C       -1.27037959      -0.64229305       0.04298218
C       -0.52225788       0.49893027      -0.64230093
N        0.90810441       0.25705359      -0.86825320
C        1.83109954       0.16710600       0.06817030
O        1.47832053       0.33552821       1.32043502
H       -0.28360532      -0.41106665       1.69560503
H       -2.33018533      -0.55694659      -0.20988290
H       -0.90889486      -1.59754087      -0.36395528
H       -0.64005581       1.40945244      -0.04993655
H       -0.95683008       0.68062373      -1.62582867
H        1.22972118       0.16521464      -1.81539583
H        2.65940989       0.30725260       1.00560718
13
Frame=4 idx=003876 GeodesicLength=0.12162753382567672 rxn_smarts="[O:1]([C:2]([C:3]([N:4]([C:5](=[O:6])[H:13])[H:12])([H:10])[H:11])([H:8])[H:9])[H:7]>>[O:1]([C:2]([C:3]([N:4]([C:5][O:6][H:13])[H:12])([H:10])[H:11])([H:8])[H:9])[H:7]"
O       -1.19483108      -0.61731869       1.44136330
C       -1.27366265      -0.64146666       0.04163095
C       -0.52148375       0.49851487      -0.64114707
N        0.90823339       0.25355587      -0.86550441
C        1.82965577       0.14537568       0.07153474
O        1.47957265       0.33258568       1.31919769
H       -0.28356476      -0.41632902       1.69344968
H       -2.33344542      -0.55118352      -0.20953847
H       -0.91615707      -1.59682157      -0.36859463
H       -0.63715648       1.40853644      -0.04760252
H       -0.95485510       0.68267158      -1.62477391
H        1.23063133       0.16284548      -1.81246696
H        2.66706318       0.33903386       1.00245163
13
Frame=5 idx=003876 GeodesicLength=0.15210884601891053 rxn_smarts="[O:1]([C:2]([C:3]([N:4]([C:5](=[O:6])[H:13])[H:12])([H:10])[H:11])([H:8])[H:9])[H:7]>>[O:1]([C:2]([C:3]([N:4]([C:5][O:6][H:13])[H:12])([H:10])[H:11])([H:8])[H:9])[H:7]"
O       -1.19496725      -0.62100547       1.44010639
C       -1.27653631      -0.64077118       0.04040418
C       -0.52088161       0.49818091      -0.64015154
N        0.90833680       0.25080207      -0.86270264
C        1.82800256       0.12569730       0.07499804
O        1.48072510       0.33092448       1.31799311
H       -0.28340788      -0.42071907       1.69146911
H       -2.33630422      -0.54621540      -0.20919608
H       -0.92245259      -1.59615959      -0.37279716
H       -0.63498428       1.40781774      -0.04567622
H       -0.95305907       0.68427288      -1.62398914
H        1.23165710       0.16106972      -1.80943210
H        2.67387166       0.36610563       0.99897406
13
Frame=6 idx=003876 GeodesicLength=0.1826233419340248 rxn_smarts="[O:1]([C:2]([C:3]([N:4]([C:5](=[O:6])[H:13])[H:12])([H:10])[H:11])([H:8])[H:9])[H:7]>>[O:1]([C:2]([C:3]([N:4]([C:5][O:6][H:13])[H:12])([H:10])[H:11])([H:8])[H:9])[H:7]"
O       -1.19493829      -0.62446806       1.43891905
C       -1.27912417      -0.64015356       0.03928237
C       -0.52039094       0.49788306      -0.63925957
N        0.90842270       0.24855445      -0.85986518
C        1.82617396       0.10760654       0.07851990
O        1.48179250       0.33012414       1.31670711
H       -0.28318187      -0.42451989       1.68955541
H       -2.33887298      -0.54179225      -0.20880339
H       -0.92808628      -1.59548714      -0.37667068
H       -0.63332360       1.40718488      -0.04405580
H       -0.95135833       0.68552595      -1.62335724
H        1.23278786       0.15971759      -1.80630216
H        2.68009946       0.38982429       0.99533020
13
Frame=7 idx=003876 GeodesicLength=0.21185513123245125 rxn_smarts="[O:1]([C:2]([C:3]([N:4]([C:5](=[O:6])[H:13])[H:12])([H:10])[H:11])([H:8])[H:9])[H:7]>>[O:1]([C:2]([C:3]([N:4]([C:5][O:6][H:13])[H:12])([H:10])[H:11])([H:8])[H:9])[H:7]"
O       -1.19474924      -0.62775438       1.43780946
C       -1.28148369      -0.63961177       0.03822080
C       -0.51999062       0.49763958      -0.63845953
N        0.90850974       0.24670016      -0.85696185
C        1.82424359       0.09086183       0.08212792
O        1.48286970       0.33000756       1.31550862
H       -0.28284911      -0.42787444       1.68775882
H       -2.34122938      -0.53779990      -0.20843277
H       -0.93320116      -1.59487146      -0.38031488
H       -0.63206468       1.40669678      -0.04266575
H       -0.94975840       0.68653348      -1.62290212
H        1.23400080       0.15863200      -1.80306983
H        2.68570245       0.41084057       0.99138111
13
Frame=8 idx=003876 GeodesicLength=0.24197665833896242 rxn_smarts="[O:1]([C:2]([C:3]([N:4]([C:5](=[O:6])[H:13])[H:12])([H:10])[H:11])([H:8])[H:9])[H:7]>>[O:1]([C:2]([C:3]([N:4]([C:5][O:6][H:13])[H:12])([H:10])[H:11])([H:8])[H:9])[H:7]"
O       -1.19454959      -0.63088291       1.43671032
C       -1.28369612      -0.63911748       0.03721280
C       -0.51968411       0.49741536      -0.63771155
N        0.90856586       0.24516815      -0.85401953
C        1.82214496       0.07515105       0.08581420
O        1.48384617       0.33026449       1.31420262
H       -0.28257705      -0.43083645       1.68599408
H       -2.34342843      -0.53417972      -0.20807896
H       -0.93789131      -1.59423434      -0.38373286
H       -0.63116157       1.40623979      -0.04145470
H       -0.94822990       0.68732866      -1.62251282
H        1.23526736       0.15778261      -1.79975145
H        2.69139374       0.42990080       0.98732788
13
Frame=9 idx=003876 GeodesicLength=0.27207523277149326 rxn_smarts="[O:1]([C:2]([C:3]([N:4]([C:5](=[O:6])[H:13])[H:12])([H:10])[H:11])([H:8])[H:9])[H:7]>>[O:1]([C:2]([C:3]([N:4]([C:5][O:6][H:13])[H:12])([H:10])[H:11])([H:8])[H:9])[H:7]"
O       -1.19429979      -0.63388129       1.43565404
C       -1.28577389      -0.63867928       0.03623825
C       -0.51946635       0.49723272      -0.63703010
N        0.90859516       0.24392449      -0.85105045
C        1.81992411       0.06035875       0.08953686
O        1.48479996       0.33087199       1.31290890
H       -0.28230388      -0.43346465       1.68431341
H       -2.34549805      -0.53088798      -0.20777195
H       -0.94221134      -1.59363303      -0.38697873
H       -0.63056188       1.40587601      -0.04040087
H       -0.94680054       0.68797193      -1.62223805
H        1.23655535       0.15709595      -1.79637873
H        2.69704115       0.44721439       0.98319740
13
Frame=10 idx=003876 GeodesicLength=0.3020707717704755 rxn_smarts="[O:1]([C:2]([C:3]([N:4]([C:5](=[O:6])[H:13])[H:12])([H:10])[H:11])([H:8])[H:9])[H:7]>>[O:1]([C:2]([C:3]([N:4]([C:5][O:6][H:13])[H:12])([H:10])[H:11])([H:8])[H:9])[H:7]"
O       -1.19402368      -0.63679200       1.43461718
C       -1.28775795      -0.63827182       0.03528977
C       -0.51929866       0.49707372      -0.63638544
N        0.90861326       0.24286215      -0.84804703
C        1.81761146       0.04631342       0.09330281
O        1.48574106       0.33166633       1.31160967
H       -0.28203709      -0.43588621       1.68267782
H       -2.34747296      -0.52780733      -0.20748790
H       -0.94628562      -1.59303871      -0.39010722
H       -0.63016458       1.40556265      -0.03945048
H       -0.94541499       0.68850452      -1.62202758
H        1.23787210       0.15648050      -1.79294493
H        2.70261765       0.46333280       0.97895332
13
Frame=11 idx=003876 GeodesicLength=0.33224013014213727 rxn_smarts="[O:1]([C:2]([C:3]([N:4]([C:5](=[O:6])[H:13])[H:12])([H:10])[H:11])([H:8])[H:9])[H:7]>>[O:1]([C:2]([C:3]([N:4]([C:5][O:6][H:13])[H:12])([H:10])[H:11])([H:8])[H:9])[H:7]"
O       -1.19374175      -0.63967010       1.43358975
C       -1.28969725      -0.63788029       0.03435300
C       -0.51915509       0.49693011      -0.63576227
N        0.90862662       0.24188213      -0.84500868
C        1.81524123       0.03286545       0.09712679
O        1.48668667       0.33251041       1.31032513
H       -0.28177892      -0.43822675       1.68107081
H       -2.34940052      -0.52482876      -0.20721697
H       -0.95025131      -1.59244641      -0.39318526
H       -0.62987994       1.40528127      -0.03855828
H       -0.94403763       0.68897837      -1.62186369
H        1.23920525       0.15582839      -1.78946038
H        2.70818265       0.47877618       0.97459005
13
Frame=12 idx=003876 GeodesicLength=0.36183147150030054 rxn_smarts="[O:1]([C:2]([C:3]([N:4]([C:5](=[O:6])[H:13])[H:12])([H:10])[H:11])([H:8])[H:9])[H:7]>>[O:1]([C:2]([C:3]([N:4]([C:5][O:6][H:13])[H:12])([H:10])[H:11])([H:8])[H:9])[H:7]"
O       -1.19345314      -0.64252908       1.43256163
C       -1.29158409      -0.63749275       0.03342518
C       -0.51900630       0.49680485      -0.63513598
N        0.90866608       0.24095866      -0.84190673
C        1.81282942       0.01995578       0.10099219
O        1.48766776       0.33332855       1.30909062
H       -0.28152618      -0.44051045       1.67949147
H       -2.35127184      -0.52191095      -0.20696220
H       -0.95411456      -1.59184504      -0.39622839
H       -0.62966482       1.40502943      -0.03768979
H       -0.94263458       0.68941545      -1.62171463
H        1.24058512       0.15508625      -1.78588160
H        2.71350713       0.49370929       0.96995821
13
Frame=13 idx=003876 GeodesicLength=0.3917309111244954 rxn_smarts="[O:1]([C:2]([C:3]([N:4]([C:5](=[O:6])[H:13])[H:12])([H:10])[H:11])([H:8])[H:9])[H:7]>>[O:1]([C:2]([C:3]([N:4]([C:5][O:6][H:13])[H:12])([H:10])[H:11])([H:8])[H:9])[H:7]"
O       -1.19317742      -0.64527259       1.43153691
C       -1.29337923      -0.63712827       0.03252201
C       -0.51891607       0.49669025      -0.63453345
N        0.90866861       0.24021988      -0.83879683
C        1.81029980       0.00756879       0.10487626
O        1.48856288       0.33427555       1.30778246
H       -0.28134201      -0.44255020       1.67794367
H       -2.35303900      -0.51921916      -0.20674047
H       -0.95769801      -1.59123068      -0.39913455
H       -0.62965033       1.40478900      -0.03689941
H       -0.94127994       0.68973672      -1.62159193
H        1.24196674       0.15449682      -1.78227536
H        2.71898399       0.50762387       0.96531068
13
Frame=14 idx=003876 GeodesicLength=0.4216614430960984 rxn_smarts="[O:1]([C:2]([C:3]([N:4]([C:5](=[O:6])[H:13])[H:12])([H:10])[H:11])([H:8])[H:9])[H:7]>>[O:1]([C:2]([C:3]([N:4]([C:5][O:6][H:13])[H:12])([H:10])[H:11])([H:8])[H:9])[H:7]"
O       -1.19291066      -0.64794564       1.43053451
C       -1.29512056      -0.63679992       0.03163141
C       -0.51888074       0.49660436      -0.63396916
N        0.90865244       0.23963917      -0.83567984
C        1.80769333      -0.00435494       0.10877235
O        1.48947519       0.33529766       1.30647512
H       -0.28119384      -0.44439669       1.67645881
H       -2.35475925      -0.51672516      -0.20657065
H       -0.96108764      -1.59064626      -0.40193528
H       -0.62978564       1.40460719      -0.03619153
H       -0.93999551       0.68999052      -1.62153443
H        1.24334454       0.15400077      -1.77865112
H        2.72456834       0.52072896       0.96065980
13
Frame=15 idx=003876 GeodesicLength=0.45158134202828065 rxn_smarts="[O:1]([C:2]([C:3]([N:4]([C:5](=[O:6])[H:13])[H:12])([H:10])[H:11])([H:8])[H:9])[H:7]>>[O:1]([C:2]([C:3]([N:4]([C:5][O:6][H:13])[H:12])([H:10])[H:11])([H:8])[H:9])[H:7]"
O       -1.19265449      -0.65057406       1.42953608
C       -1.29681694      -0.63648804       0.03074960
C       -0.51887352       0.49653400      -0.63341949
N        0.90862615       0.23915463      -0.83254289
C        1.80502030      -0.01588202       0.11268822
O        1.49038573       0.33632955       1.30516234
H       -0.28108433      -0.44611612       1.67500926
H       -2.35643198      -0.51435229      -0.20643170
H       -0.96433975      -1.59006481      -0.40467116
H       -0.63002363       1.40445048      -0.03552626
H       -0.93873532       0.69019297      -1.62150431
H        1.24472739       0.15353079      -1.77499255
H        2.73020040       0.53328492       0.95594285
13
Frame=16 idx=003876 GeodesicLength=0.4814938188842254 rxn_smarts="[O:1]([C:2]([C:3]([N:4]([C:5](=[O:6])[H:13])[H:12])([H:10])[H:11])([H:8])[H:9])[H:7]>>[O:1]([C:2]([C:3]([N:4]([C:5][O:6][H:13])[H:12])([H:10])[H:11])([H:8])[H:9])[H:7]"
O       -1.19241425      -0.65316627       1.42853972
C       -1.29847926      -0.63618789       0.02987405
C       -0.51888510       0.49647576      -0.63287870
N        0.90859373       0.23873772      -0.82938352
C        1.80228923      -0.02706357       0.11662575
O        1.49129924       0.33733922       1.30385057
H       -0.28101175      -0.44774451       1.67359004
H       -2.35806744      -0.51207144      -0.20632152
H       -0.96748515      -1.58948413      -0.40735635
H       -0.63033878       1.40431318      -0.03489153
H       -0.93748708       0.69035720      -1.62149393
H        1.24611771       0.15306811      -1.77129856
H        2.73586890       0.54542661       0.95114398
