9
Frame=0 idx=005588 GeodesicLength=0.0 rxn_smarts="[N:1](=[C:2](/[N:3]([C:4](=[O:5])[H:9])[H:8])[H:7])\[H:6]>>[N:1](=[C:2](/[N:3]=[C:4](/[O:5][H:8])[H:9])[H:7])\[H:6]"
N       -1.09075180       0.85602044       1.58148543
C       -0.73945628       0.54747544       0.41003420
N        0.36926854      -0.24616362       0.18051356
C        0.84650244      -0.65361168      -0.96505022
O        1.87204143      -1.36435518      -0.73842193
H       -1.92113287       1.43917702       1.55850965
H       -1.26065990       0.86835295      -0.50041241
H        1.45499533      -0.99803333       0.43903839
H        0.46919315      -0.44886206      -1.96569663
9
Frame=1 idx=005588 GeodesicLength=0.03167116618268995 rxn_smarts="[N:1](=[C:2](/[N:3]([C:4](=[O:5])[H:9])[H:8])[H:7])\[H:6]>>[N:1](=[C:2](/[N:3]=[C:4](/[O:5][H:8])[H:9])[H:7])\[H:6]"
N       -1.09315912       0.85365501       1.57907076
C       -0.74465569       0.53579663       0.40926903
N        0.38429506      -0.23030326       0.18375489
C        0.87000588      -0.61639244      -0.96713716
O        1.86275797      -1.37379841      -0.74337160
H       -1.91895256       1.44326215       1.55329289
H       -1.25992055       0.85938246      -0.50367027
H        1.45113654      -1.01542923       0.44738657
H        0.44849248      -0.45617291      -1.95859511
9
Frame=2 idx=005588 GeodesicLength=0.06350931267668265 rxn_smarts="[N:1](=[C:2](/[N:3]([C:4](=[O:5])[H:9])[H:8])[H:7])\[H:6]>>[N:1](=[C:2](/[N:3]=[C:4](/[O:5][H:8])[H:9])[H:7])\[H:6]"
N       -1.09796869       0.84695221       1.57666266
C       -0.74359522       0.53180137       0.40787823
N        0.40422829      -0.20720425       0.18624979
C        0.88662801      -0.58957801      -0.96886001
O        1.85199289      -1.38328620      -0.74821377
H       -1.91793713       1.44453022       1.54793463
H       -1.25982181       0.84849648      -0.50700649
H        1.44639753      -1.03130607       0.45524965
H        0.43007613      -0.46040574      -1.94989468
9
Frame=3 idx=005588 GeodesicLength=0.09534125087091688 rxn_smarts="[N:1](=[C:2](/[N:3]([C:4](=[O:5])[H:9])[H:8])[H:7])\[H:6]>>[N:1](=[C:2](/[N:3]=[C:4](/[O:5][H:8])[H:9])[H:7])\[H:6]"
N       -1.10170208       0.84050191       1.57391482
C       -0.73953810       0.53178600       0.40594720
N        0.42246594      -0.18618027       0.18824466
C        0.89888854      -0.56914222      -0.97064362
O        1.84161216      -1.39111848      -0.75268634
H       -1.91983696       1.44040860       1.54310953
H       -1.25613009       0.84253447      -0.51072996
H        1.44272418      -1.04331786       0.46301966
H        0.41151641      -0.46547215      -1.94017596
9
Frame=4 idx=005588 GeodesicLength=0.127413423927405 rxn_smarts="[N:1](=[C:2](/[N:3]([C:4](=[O:5])[H:9])[H:8])[H:7])\[H:6]>>[N:1](=[C:2](/[N:3]=[C:4](/[O:5][H:8])[H:9])[H:7])\[H:6]"
N       -1.10378128       0.83633129       1.57117951
C       -0.73505681       0.53240787       0.40405426
N        0.43771587      -0.16944718       0.19040527
C        0.90915033      -0.55164288      -0.97236933
O        1.83329878      -1.39595794      -0.75724762
H       -1.92103643       1.43733989       1.53836501
H       -1.25396579       0.83417618      -0.51431454
H        1.43828515      -1.05565782       0.47075217
H        0.39539018      -0.46754939      -1.93082475
9
Frame=5 idx=005588 GeodesicLength=0.1594894247350153 rxn_smarts="[N:1](=[C:2](/[N:3]([C:4](=[O:5])[H:9])[H:8])[H:7])\[H:6]>>[N:1](=[C:2](/[N:3]=[C:4](/[O:5][H:8])[H:9])[H:7])\[H:6]"
N       -1.10595552       0.83137124       1.56829150
C       -0.72905289       0.53542207       0.40185415
N        0.45218204      -0.15373324       0.19223429
C        0.91761385      -0.53672574      -0.97430195
O        1.82546062      -1.39993927      -0.76157242
H       -1.92325563       1.43220743       1.53403258
H       -1.25018110       0.82831926      -0.51812778
H        1.43429134      -1.06628913       0.47848697
H        0.37889729      -0.47063261      -1.92089735
9
Frame=6 idx=005588 GeodesicLength=0.19170435658748264 rxn_smarts="[N:1](=[C:2](/[N:3]([C:4](=[O:5])[H:9])[H:8])[H:7])\[H:6]>>[N:1](=[C:2](/[N:3]=[C:4](/[O:5][H:8])[H:9])[H:7])\[H:6]"
N       -1.10672532       0.82789095       1.56538933
C       -0.72141123       0.54096156       0.39951940
N        0.46637056      -0.13852132       0.19380181
C        0.92496307      -0.52352061      -0.97644777
O        1.81725062      -1.40408898      -0.76564847
H       -1.92739948       1.42414577       1.52998831
H       -1.24609711       0.82279722      -0.52194460
H        1.43008007      -1.07629195       0.48635622
H        0.36296883      -0.47337263      -1.91101423
9
Frame=7 idx=005588 GeodesicLength=0.22391883112875188 rxn_smarts="[N:1](=[C:2](/[N:3]([C:4](=[O:5])[H:9])[H:8])[H:7])\[H:6]>>[N:1](=[C:2](/[N:3]=[C:4](/[O:5][H:8])[H:9])[H:7])\[H:6]"
N       -1.10780056       0.82390292       1.56239693
C       -0.71509835       0.54463422       0.39720222
N        0.47876003      -0.12569605       0.19541189
C        0.93154132      -0.51106638      -0.97859681
O        1.81075537      -1.40598601      -0.76977442
H       -1.92930262       1.41888208       1.52583468
H       -1.24241626       0.81674825      -0.52566699
H        1.42569186      -1.08618825       0.49414005
H        0.34786922      -0.47523078      -1.90094755
9
Frame=8 idx=005588 GeodesicLength=0.2561843866310024 rxn_smarts="[N:1](=[C:2](/[N:3]([C:4](=[O:5])[H:9])[H:8])[H:7])\[H:6]>>[N:1](=[C:2](/[N:3]=[C:4](/[O:5][H:8])[H:9])[H:7])\[H:6]"
N       -1.10881045       0.82008450       1.55946101
C       -0.71003458       0.54653690       0.39503661
N        0.48978073      -0.11469095       0.19709500
C        0.93753250      -0.49922474      -0.98077364
O        1.80528890      -1.40656934      -0.77399803
H       -1.92994054       1.41547948       1.52164630
H       -1.23897978       0.81048974      -0.52928006
H        1.42145252      -1.09577830       0.50187953
H        0.33371069      -0.47632730      -1.89106673
9
Frame=9 idx=005588 GeodesicLength=0.2884645163843851 rxn_smarts="[N:1](=[C:2](/[N:3]([C:4](=[O:5])[H:9])[H:8])[H:7])\[H:6]>>[N:1](=[C:2](/[N:3]=[C:4](/[O:5][H:8])[H:9])[H:7])\[H:6]"
N       -1.10978333       0.81634054       1.55654815
C       -0.70573851       0.54733447       0.39295132
N        0.49982078      -0.10496931       0.19879654
C        0.94302767      -0.48787482      -0.98298865
O        1.80053718      -1.40621290      -0.77825580
H       -1.92967316       1.41336047       1.51747019
H       -1.23576745       0.80400825      -0.53281161
H        1.41728378      -1.10513102       0.50959006
H        0.32029305      -0.47685568      -1.88130019
9
Frame=10 idx=005588 GeodesicLength=0.3207735326448088 rxn_smarts="[N:1](=[C:2](/[N:3]([C:4](=[O:5])[H:9])[H:8])[H:7])\[H:6]>>[N:1](=[C:2](/[N:3]=[C:4](/[O:5][H:8])[H:9])[H:7])\[H:6]"
N       -1.11064761       0.81270586       1.55364532
C       -0.70176867       0.54769177       0.39088588
N        0.50921173      -0.09608968       0.20045768
C        0.94807406      -0.47699140      -0.98527672
O        1.79622346      -1.40526187      -0.78249869
H       -1.92899702       1.41176152       1.51335788
H       -1.23262689       0.79752413      -0.53629173
H        1.41314182      -1.11424780       0.51730675
H        0.30738912      -0.47709252      -1.87158637
9
Frame=11 idx=005588 GeodesicLength=0.35310979437904727 rxn_smarts="[N:1](=[C:2](/[N:3]([C:4](=[O:5])[H:9])[H:8])[H:7])\[H:6]>>[N:1](=[C:2](/[N:3]=[C:4](/[O:5][H:8])[H:9])[H:7])\[H:6]"
N       -1.11113856       0.80952931       1.55075042
C       -0.69775391       0.54815362       0.38882634
N        0.51819173      -0.08777814       0.20206008
C        0.95277367      -0.46648625      -0.98764430
O        1.79210207      -1.40399619      -0.78670695
H       -1.92834226       1.41007551       1.50929635
H       -1.22965500       0.79077294      -0.53969099
H        1.40884016      -1.12329537       0.52504014
H        0.29498210      -0.47697544      -1.86193109
9
Frame=12 idx=005588 GeodesicLength=0.38548375497598597 rxn_smarts="[N:1](=[C:2](/[N:3]([C:4](=[O:5])[H:9])[H:8])[H:7])\[H:6]>>[N:1](=[C:2](/[N:3]=[C:4](/[O:5][H:8])[H:9])[H:7])\[H:6]"
N       -1.11136980       0.80657975       1.54784914
C       -0.69354091       0.54897812       0.38673455
N        0.52690625      -0.07983212       0.20356320
C        0.95713545      -0.45636194      -0.99011918
O        1.78806810      -1.40254110      -0.79084769
H       -1.92781579       1.40808986       1.50531947
H       -1.22670372       0.78399588      -0.54303731
H        1.40441897      -1.13218082       0.53282534
H        0.28290143      -0.47672762      -1.85228752
9
Frame=13 idx=005588 GeodesicLength=0.41790637405767095 rxn_smarts="[N:1](=[C:2](/[N:3]([C:4](=[O:5])[H:9])[H:8])[H:7])\[H:6]>>[N:1](=[C:2](/[N:3]=[C:4](/[O:5][H:8])[H:9])[H:7])\[H:6]"
N       -1.11127920       0.80396664       1.54495456
C       -0.68910964       0.55019117       0.38462276
N        0.53541647      -0.07218682       0.20497314
C        0.96123447      -0.44653844      -0.99270256
O        1.78405439      -1.40096963      -0.79493182
H       -1.92746379       1.40576717       1.50140956
H       -1.22384830       0.77701592      -0.54630836
H        1.39981091      -1.14097482       0.54066673
H        0.27118471      -0.47627119      -1.84268401
9
Frame=14 idx=005588 GeodesicLength=0.45040177932901215 rxn_smarts="[N:1](=[C:2](/[N:3]([C:4](=[O:5])[H:9])[H:8])[H:7])\[H:6]>>[N:1](=[C:2](/[N:3]=[C:4](/[O:5][H:8])[H:9])[H:7])\[H:6]"
N       -1.11090422       0.80158839       1.54204070
C       -0.68430749       0.55204699       0.38245389
N        0.54379913      -0.06475163       0.20629296
C        0.96512955      -0.43690837      -0.99539332
O        1.78015404      -1.39916743      -0.79895916
H       -1.92722482       1.40314672       1.49757008
H       -1.22118961       0.76959572      -0.54948597
H        1.39476877      -1.14987457       0.54853582
H        0.25977464      -0.47567582      -1.83305500
9
Frame=15 idx=005588 GeodesicLength=0.48287906760848476 rxn_smarts="[N:1](=[C:2](/[N:3]([C:4](=[O:5])[H:9])[H:8])[H:7])\[H:6]>>[N:1](=[C:2](/[N:3]=[C:4](/[O:5][H:8])[H:9])[H:7])\[H:6]"
N       -1.11014683       0.79964040       1.53911885
C       -0.67939630       0.55409986       0.38028025
N        0.55200767      -0.05759106       0.20752683
C        0.96884261      -0.42746798      -0.99815975
O        1.77616517      -1.39733645      -0.80292226
H       -1.92710094       1.40028148       1.49373684
H       -1.21871465       0.76176543      -0.55253227
H        1.38954550      -1.15870219       0.55645369
H        0.24879777      -0.47468949      -1.82350218
9
Frame=16 idx=005588 GeodesicLength=0.5154027152808792 rxn_smarts="[N:1](=[C:2](/[N:3]([C:4](=[O:5])[H:9])[H:8])[H:7])\[H:6]>>[N:1](=[C:2](/[N:3]=[C:4](/[O:5][H:8])[H:9])[H:7])\[H:6]"
N       -1.10923484       0.79786537       1.53622091
C       -0.67457731       0.55607074       0.37810838
N        0.55993600      -0.05080138       0.20870232
C        0.97236356      -0.41818162      -1.00101327
O        1.77233004      -1.39525097      -0.80686471
H       -1.92682986       1.39757486       1.48994943
H       -1.21636307       0.75370994      -0.55548192
H        1.38417627      -1.16747210       0.56441940
H        0.23819920      -0.47351483      -1.81404054
