14
Frame=0 idx=009395 GeodesicLength=0.0 rxn_smarts="[O:1]([C@@:2]1([H:9])[C:3]([H:10])([H:11])[O:4][C:5]([H:12])=[N:6][C:7]1([H:13])[H:14])[H:8]>>[H:8][H:9].[O:1]=[C:2]1[C:3]([H:10])([H:11])[O:4][C:5]([H:12])=[N:6][C:7]1([H:13])[H:14]"
O       -0.98213283      -0.73993977       1.54878541
C       -0.71450751      -0.20239393       0.37719264
C       -0.11239978       1.19967448       0.34741994
O        1.29066866       1.07479285       0.54422751
C        1.88324814       0.05676406      -0.11508925
N        1.35283236      -0.90806180      -0.72116493
C       -0.09340580      -1.05941479      -0.71536403
H       -1.97468620      -0.28911099       0.67104027
H       -1.99191556       0.12090991      -0.21249436
H       -0.30346622       1.69696568      -0.60972887
H       -0.49791252       1.79611261       1.17076376
H        2.96392401       0.15240412      -0.06335435
H       -0.48295883      -0.79522331      -1.70285647
H       -0.33728786      -2.10347916      -0.51937727
14
Frame=1 idx=009395 GeodesicLength=0.11359600041702708 rxn_smarts="[O:1]([C@@:2]1([H:9])[C:3]([H:10])([H:11])[O:4][C:5]([H:12])=[N:6][C:7]1([H:13])[H:14])[H:8]>>[H:8][H:9].[O:1]=[C:2]1[C:3]([H:10])([H:11])[O:4][C:5]([H:12])=[N:6][C:7]1([H:13])[H:14]"
O       -0.98156679      -0.75230542       1.53326132
C       -0.71524514      -0.20309016       0.36754574
C       -0.11052624       1.19754766       0.34277814
O        1.29326874       1.07807853       0.53800747
C        1.88839056       0.05516806      -0.11116345
N        1.36054047      -0.90495555      -0.72689935
C       -0.08518554      -1.06128475      -0.71885635
H       -2.00060976      -0.27379086       0.70438776
H       -2.01854810       0.13525071      -0.19880668
H       -0.30404387       1.69815977      -0.61212035
H       -0.49643833       1.79426577       1.16579256
H        2.96882256       0.14992078      -0.05203293
H       -0.47674599      -0.80553025      -1.70772224
H       -0.32211257      -2.10743429      -0.52417164
14
Frame=2 idx=009395 GeodesicLength=0.2270466910566885 rxn_smarts="[O:1]([C@@:2]1([H:9])[C:3]([H:10])([H:11])[O:4][C:5]([H:12])=[N:6][C:7]1([H:13])[H:14])[H:8]>>[H:8][H:9].[O:1]=[C:2]1[C:3]([H:10])([H:11])[O:4][C:5]([H:12])=[N:6][C:7]1([H:13])[H:14]"
O       -0.98199992      -0.76477646       1.51663029
C       -0.71605415      -0.20402446       0.35706135
C       -0.10879786       1.19520868       0.33772229
O        1.29568534       1.08124322       0.53171832
C        1.89357314       0.05352710      -0.10703975
N        1.36866217      -0.90189324      -0.73258270
C       -0.07653540      -1.06332347      -0.72287419
H       -2.02621391      -0.25733471       0.74032804
H       -2.04579817       0.15002393      -0.18354850
H       -0.30465174       1.69916976      -0.61492963
H       -0.49524133       1.79219946       1.16037058
H        2.97368793       0.14750450      -0.04014682
H       -0.46980968      -0.81600618      -1.71317440
H       -0.30650642      -2.11151814      -0.52953486
14
Frame=3 idx=009395 GeodesicLength=0.3406253823075882 rxn_smarts="[O:1]([C@@:2]1([H:9])[C:3]([H:10])([H:11])[O:4][C:5]([H:12])=[N:6][C:7]1([H:13])[H:14])[H:8]>>[H:8][H:9].[O:1]=[C:2]1[C:3]([H:10])([H:11])[O:4][C:5]([H:12])=[N:6][C:7]1([H:13])[H:14]"
O       -0.98372025      -0.77732234       1.49873195
C       -0.71694059      -0.20519772       0.34562694
C       -0.10721563       1.19263776       0.33221922
O        1.29790399       1.08424312       0.52541735
C        1.89881088       0.05182794      -0.10266815
N        1.37725167      -0.89893916      -0.73810312
C       -0.06741115      -1.06555335      -0.72745482
H       -2.05144208      -0.23972613       0.77908876
H       -2.07369368       0.16528362      -0.16650448
H       -0.30523649       1.69999441      -0.61819065
H       -0.49434974       1.78988269       1.15445275
H        2.97851612       0.14528048      -0.02783046
H       -0.46200082      -0.82666977      -1.71928870
H       -0.29047221      -2.11574155      -0.53549657
14
Frame=4 idx=009395 GeodesicLength=0.45447946874440537 rxn_smarts="[O:1]([C@@:2]1([H:9])[C:3]([H:10])([H:11])[O:4][C:5]([H:12])=[N:6][C:7]1([H:13])[H:14])[H:8]>>[H:8][H:9].[O:1]=[C:2]1[C:3]([H:10])([H:11])[O:4][C:5]([H:12])=[N:6][C:7]1([H:13])[H:14]"
O       -0.98703494      -0.78991778       1.47937979
C       -0.71794792      -0.20660464       0.33309497
C       -0.10579393       1.18980860       0.32621686
O        1.29989838       1.08701796       0.51917896
C        1.90411246       0.05003228      -0.09794732
N        1.38637210      -0.89617031      -0.74332408
C       -0.05777236      -1.06799878      -0.73264230
H       -2.07614808      -0.22096967       0.82095764
H       -2.10226276       0.18112579      -0.14741790
H       -0.30573322       1.70063892      -0.62196755
H       -0.49381604       1.78727787       1.14796617
H        2.98330342       0.14340988      -0.01523669
H       -0.45314392      -0.83752800      -1.72616936
H       -0.27403319      -2.12012213      -0.54208920
14
Frame=5 idx=009395 GeodesicLength=0.5676856100543266 rxn_smarts="[O:1]([C@@:2]1([H:9])[C:3]([H:10])([H:11])[O:4][C:5]([H:12])=[N:6][C:7]1([H:13])[H:14])[H:8]>>[H:8][H:9].[O:1]=[C:2]1[C:3]([H:10])([H:11])[O:4][C:5]([H:12])=[N:6][C:7]1([H:13])[H:14]"
O       -0.99151604      -0.80264217       1.45848324
C       -0.71934892      -0.20824711       0.31931003
C       -0.10464864       1.18670468       0.31967090
O        1.30148751       1.08954825       0.51306583
C        1.90928800       0.04792143      -0.09248826
N        1.39590048      -0.89368304      -0.74811884
C       -0.04767075      -1.07065535      -0.73848470
H       -2.09985172      -0.20087460       0.86614107
H       -2.13127526       0.19762432      -0.12628004
H       -0.30613438       1.70106797      -0.62628881
H       -0.49377668       1.78446632       1.14081165
H        2.98790855       0.14203327      -0.00243342
H       -0.44307230      -0.84861497      -1.73391568
H       -0.25728987      -2.12464898      -0.54947296
14
Frame=6 idx=009395 GeodesicLength=0.6810776884714835 rxn_smarts="[O:1]([C@@:2]1([H:9])[C:3]([H:10])([H:11])[O:4][C:5]([H:12])=[N:6][C:7]1([H:13])[H:14])[H:8]>>[H:8][H:9].[O:1]=[C:2]1[C:3]([H:10])([H:11])[O:4][C:5]([H:12])=[N:6][C:7]1([H:13])[H:14]"
O       -0.99783882      -0.81532118       1.43577596
C       -0.72101513      -0.21007407       0.30407201
C       -0.10376853       1.18335844       0.31244355
O        1.30271812       1.09185688       0.50699542
C        1.91443388       0.04567816      -0.08654686
N        1.40598393      -0.89146223      -0.75248491
C       -0.03702735      -1.07352794      -0.74508026
H       -2.12239996      -0.17981347       0.91507424
H       -2.16088451       0.21486011      -0.10251125
H       -0.30645083       1.70135792      -0.63131024
H       -0.49424792       1.78139877       1.13287611
H        2.99237065       0.14092956       0.01098367
H       -0.43169116      -0.85991811      -1.74267021
H       -0.24018237      -2.12932284      -0.55761724
14
Frame=7 idx=009395 GeodesicLength=0.7948010616172458 rxn_smarts="[O:1]([C@@:2]1([H:9])[C:3]([H:10])([H:11])[O:4][C:5]([H:12])=[N:6][C:7]1([H:13])[H:14])[H:8]>>[H:8][H:9].[O:1]=[C:2]1[C:3]([H:10])([H:11])[O:4][C:5]([H:12])=[N:6][C:7]1([H:13])[H:14]"
O       -1.00622428      -0.82783801       1.41101415
C       -0.72299730      -0.21203971       0.28717279
C       -0.10318473       1.17979143       0.30442676
O        1.30352357       1.09395465       0.50095776
C        1.91950081       0.04329359      -0.08005618
N        1.41662746      -0.88956543      -0.75631966
C       -0.02581937      -1.07661810      -0.75249799
H       -2.14349925      -0.15807443       0.96808207
H       -2.19104391       0.23297792      -0.07572752
H       -0.30664257       1.70153877      -0.63713061
H       -0.49529151       1.77810305       1.12402584
H        2.99663216       0.14007013       0.02516559
H       -0.41883737      -0.87146769      -1.75254252
H       -0.22274371      -2.13412617      -0.56657050
14
Frame=8 idx=009395 GeodesicLength=0.908835857680423 rxn_smarts="[O:1]([C@@:2]1([H:9])[C:3]([H:10])([H:11])[O:4][C:5]([H:12])=[N:6][C:7]1([H:13])[H:14])[H:8]>>[H:8][H:9].[O:1]=[C:2]1[C:3]([H:10])([H:11])[O:4][C:5]([H:12])=[N:6][C:7]1([H:13])[H:14]"
O       -1.01700526      -0.84003603       1.38392774
C       -0.72539677      -0.21405699       0.26834796
C       -0.10294926       1.17601878       0.29546308
O        1.30383455       1.09581308       0.49494460
C        1.92443516       0.04072963      -0.07289683
N        1.42786838      -0.88805123      -0.75947629
C       -0.01403089      -1.07991474      -0.76080059
H       -2.16266182      -0.13611532       1.02554013
H       -2.22170073       0.25220142      -0.04544346
H       -0.30665331       1.70168158      -0.64392488
H       -0.49700572       1.77456859       1.11406453
H        3.00061703       0.13944438       0.04026161
H       -0.40430358      -0.88324021      -1.76367091
H       -0.20504778      -2.13904293      -0.57633669
14
Frame=9 idx=009395 GeodesicLength=1.021883931410383 rxn_smarts="[O:1]([C@@:2]1([H:9])[C:3]([H:10])([H:11])[O:4][C:5]([H:12])=[N:6][C:7]1([H:13])[H:14])[H:8]>>[H:8][H:9].[O:1]=[C:2]1[C:3]([H:10])([H:11])[O:4][C:5]([H:12])=[N:6][C:7]1([H:13])[H:14]"
O       -1.02931529      -0.85204807       1.35449168
C       -0.72852341      -0.21614707       0.24752723
C       -0.10324064       1.17207065       0.28554348
O        1.30341184       1.09754623       0.48893148
C        1.92888033       0.03782455      -0.06470424
N        1.43936907      -0.88690583      -0.76192021
C       -0.00185317      -1.08337183      -0.76999827
H       -2.17895471      -0.11366987       1.08746585
H       -2.25223587       0.27238612      -0.01209716
H       -0.30661767       1.70172802      -0.65166208
H       -0.49954361       1.77097667       1.10295866
H        3.00403478       0.13894109       0.05659476
H       -0.38814218      -0.89531773      -1.77602873
H       -0.18726949      -2.14401294      -0.58710244
14
Frame=10 idx=009395 GeodesicLength=1.1350316756091678 rxn_smarts="[O:1]([C@@:2]1([H:9])[C:3]([H:10])([H:11])[O:4][C:5]([H:12])=[N:6][C:7]1([H:13])[H:14])[H:8]>>[H:8][H:9].[O:1]=[C:2]1[C:3]([H:10])([H:11])[O:4][C:5]([H:12])=[N:6][C:7]1([H:13])[H:14]"
O       -1.04435029      -0.86329650       1.32223326
C       -0.73230743      -0.21805834       0.22419656
C       -0.10403239       1.16807438       0.27432645
O        1.30228889       1.09914119       0.48281029
C        1.93293949       0.03467599      -0.05559989
N        1.45137242      -0.88624830      -0.76346876
C        0.01084096      -1.08699027      -0.78022268
H       -2.19195563      -0.09228964       1.15446438
H       -2.28285113       0.29407797       0.02564421
H       -0.30637831       1.70191178      -0.66074534
H       -0.50298000       1.76734268       1.09034357
H        3.00687277       0.13835080       0.07462181
H       -0.37002446      -0.90767261      -1.78989562
H       -0.16943488      -2.14901912      -0.59870824
14
Frame=11 idx=009395 GeodesicLength=1.2484174663695125 rxn_smarts="[O:1]([C@@:2]1([H:9])[C:3]([H:10])([H:11])[O:4][C:5]([H:12])=[N:6][C:7]1([H:13])[H:14])[H:8]>>[H:8][H:9].[O:1]=[C:2]1[C:3]([H:10])([H:11])[O:4][C:5]([H:12])=[N:6][C:7]1([H:13])[H:14]"
O       -1.06221681      -0.87344883       1.28687660
C       -0.73685328      -0.21964403       0.19805171
C       -0.10535708       1.16412403       0.26161177
O        1.30035283       1.10068966       0.47648512
C        1.93641779       0.03127997      -0.04543586
N        1.46374802      -0.88611592      -0.76396015
C        0.02399156      -1.09074024      -0.79149021
H       -2.20105003      -0.07300265       1.22673973
H       -2.31320206       0.31761392       0.06819526
H       -0.30584720       1.70231630      -0.67134792
H       -0.50737137       1.76377340       1.07597166
H        3.00891414       0.13752216       0.09471901
H       -0.34982261      -0.92037792      -1.80531513
H       -0.15170391      -2.15398984      -0.61110160
14
Frame=12 idx=009395 GeodesicLength=1.3618083615720624 rxn_smarts="[O:1]([C@@:2]1([H:9])[C:3]([H:10])([H:11])[O:4][C:5]([H:12])=[N:6][C:7]1([H:13])[H:14])[H:8]>>[H:8][H:9].[O:1]=[C:2]1[C:3]([H:10])([H:11])[O:4][C:5]([H:12])=[N:6][C:7]1([H:13])[H:14]"
O       -1.08308550      -0.88210787       1.24820819
C       -0.74235177      -0.22070002       0.16877920
C       -0.10728368       1.16031254       0.24718856
O        1.29748099       1.10221775       0.46987878
C        1.93906833       0.02755145      -0.03396542
N        1.47634595      -0.88656465      -0.76315705
C        0.03748128      -1.09456031      -0.80376215
H       -2.20523164      -0.05702977       1.30436196
H       -2.34280996       0.34333679       0.11584081
H       -0.30492540       1.70307355      -0.68368919
H       -0.51282718       1.76034470       1.05957892
H        3.00987621       0.13640126       0.11715680
H       -0.32739779      -0.93343839      -1.82228222
H       -0.13433984      -2.15883702      -0.62413717
14
Frame=13 idx=009395 GeodesicLength=1.4738635857111213 rxn_smarts="[O:1]([C@@:2]1([H:9])[C:3]([H:10])([H:11])[O:4][C:5]([H:12])=[N:6][C:7]1([H:13])[H:14])[H:8]>>[H:8][H:9].[O:1]=[C:2]1[C:3]([H:10])([H:11])[O:4][C:5]([H:12])=[N:6][C:7]1([H:13])[H:14]"
O       -1.10637458      -0.88919658       1.20624070
C       -0.74900035      -0.22113861       0.13634868
C       -0.10998054       1.15677408       0.23102798
O        1.29353880       1.10390305       0.46284312
C        1.94049942       0.02344801      -0.02097812
N        1.48876311      -0.88753132      -0.76096215
C        0.05100929      -1.09834874      -0.81691561
H       -2.20307711      -0.04477781       1.38671995
H       -2.37075009       0.37096147       0.16814769
H       -0.30383454       1.70424709      -0.69781006
H       -0.51946215       1.75728125       1.04117270
H        3.00932480       0.13469177       0.14249071
H       -0.30297061      -0.94687920      -1.84057505
H       -0.11768545      -2.16343447      -0.63775054
14
Frame=14 idx=009395 GeodesicLength=1.586056095944721 rxn_smarts="[O:1]([C@@:2]1([H:9])[C:3]([H:10])([H:11])[O:4][C:5]([H:12])=[N:6][C:7]1([H:13])[H:14])[H:8]>>[H:8][H:9].[O:1]=[C:2]1[C:3]([H:10])([H:11])[O:4][C:5]([H:12])=[N:6][C:7]1([H:13])[H:14]"
O       -1.13298321      -0.89366365       1.16061593
C       -0.75689376      -0.22047991       0.10013114
C       -0.11343006       1.15379879       0.21266737
O        1.28845790       1.10583790       0.45519259
C        1.94056064       0.01895617      -0.00633815
N        1.50101003      -0.88924459      -0.75702419
C        0.06456241      -1.10208899      -0.83094208
H       -2.19370690      -0.03915510       1.47418350
H       -2.39670231       0.40140202       0.22615788
H       -0.30227581       1.70618260      -0.71422115
H       -0.52737279       1.75481015       1.02023843
H        3.00699721       0.13219462       0.17123108
H       -0.27622879      -0.96083665      -1.86035867
H       -0.10199456      -2.16771336      -0.65153367
14
Frame=15 idx=009395 GeodesicLength=1.6983716213146591 rxn_smarts="[O:1]([C@@:2]1([H:9])[C:3]([H:10])([H:11])[O:4][C:5]([H:12])=[N:6][C:7]1([H:13])[H:14])[H:8]>>[H:8][H:9].[O:1]=[C:2]1[C:3]([H:10])([H:11])[O:4][C:5]([H:12])=[N:6][C:7]1([H:13])[H:14]"
O       -1.16293030      -0.89491547       1.11129735
C       -0.76613399      -0.21843362       0.05997653
C       -0.11765122       1.15160363       0.19198631
O        1.28218937       1.10817001       0.44682043
C        1.93892091       0.01409750       0.01014827
N        1.51274519      -0.89177071      -0.75103239
C        0.07787058      -1.10571463      -0.84559796
H       -2.17603617      -0.04193191       1.56599208
H       -2.41976043       0.43483500       0.28966786
H       -0.30017268       1.70905035      -0.73304011
H       -0.53655523       1.75314630       0.99665547
H        3.00252282       0.12885609       0.20354186
H       -0.24730519      -0.97545208      -1.88133992
H       -0.08770366      -2.17154048      -0.66507577
14
Frame=16 idx=009395 GeodesicLength=1.8104417625563132 rxn_smarts="[O:1]([C@@:2]1([H:9])[C:3]([H:10])([H:11])[O:4][C:5]([H:12])=[N:6][C:7]1([H:13])[H:14])[H:8]>>[H:8][H:9].[O:1]=[C:2]1[C:3]([H:10])([H:11])[O:4][C:5]([H:12])=[N:6][C:7]1([H:13])[H:14]"
O       -1.19627297      -0.89216060       1.05845351
C       -0.77679659      -0.21459486       0.01586930
C       -0.12268226       1.15051942       0.16891441
O        1.27475618       1.11104108       0.43758379
C        1.93530676       0.00882571       0.02859874
N        1.52363079      -0.89526089      -0.74267729
C        0.09061571      -1.10915411      -0.86052085
H       -2.14882909      -0.05529403       1.66068566
H       -2.43897781       0.47132611       0.35842949
H       -0.29753400       1.71315663      -0.75440987
H       -0.54702230       1.75264432       0.97042325
H        2.99555590       0.12460512       0.23952835
H       -0.21643128      -0.99086097      -1.90312565
H       -0.07531904      -2.17479292      -0.67775286
