8
Frame=0 idx=005204 GeodesicLength=0.0 rxn_smarts="[O:1]=[C:2]([C:3](=[O:4])[C:5](=[O:6])[H:8])[H:7]>>[O+:1]#[C:2][C:3]([O-:4])=[C:5]([O:6][H:7])[H:8]"
O       -1.58889877       1.41094172       1.03867816
C       -0.82370558       0.58636220       0.84726972
C       -0.27158331      -0.16933434      -0.97232439
O       -1.08797468      -0.19499999      -1.81033686
C        0.96748853      -0.49019493      -0.40493325
O        0.98381712      -1.00826787       0.76152065
H        0.02114153      -0.26843565       1.30116943
H        1.79971517       0.13392889      -0.76104346
8
Frame=1 idx=005204 GeodesicLength=0.09567993812245983 rxn_smarts="[O:1]=[C:2]([C:3](=[O:4])[C:5](=[O:6])[H:8])[H:7]>>[O+:1]#[C:2][C:3]([O-:4])=[C:5]([O:6][H:7])[H:8]"
O       -1.63172182       1.37523202       1.04001996
C       -0.83154993       0.58871752       0.82528945
C       -0.28041388      -0.15852460      -0.94540178
O       -1.07164130      -0.14966586      -1.81201862
C        0.96736795      -0.50184942      -0.40363277
O        1.00229475      -0.99537008       0.77309248
H        0.03606049      -0.24107440       1.32241486
H        1.80960375       0.08253483      -0.79976359
8
Frame=2 idx=005204 GeodesicLength=0.1912720463522724 rxn_smarts="[O:1]=[C:2]([C:3](=[O:4])[C:5](=[O:6])[H:8])[H:7]>>[O+:1]#[C:2][C:3]([O-:4])=[C:5]([O:6][H:7])[H:8]"
O       -1.67692971       1.33347747       1.04249139
C       -0.83729359       0.59464242       0.80359569
C       -0.28813851      -0.14727128      -0.91960421
O       -1.05328494      -0.10221910      -1.81271455
C        0.96666414      -0.51392356      -0.40212448
O        1.02066442      -0.98079098       0.78479256
H        0.05101447      -0.21051812       1.34258756
H        1.81730370       0.02660314      -0.83902396
8
Frame=3 idx=005204 GeodesicLength=0.2866493005765555 rxn_smarts="[O:1]=[C:2]([C:3](=[O:4])[C:5](=[O:6])[H:8])[H:7]>>[O+:1]#[C:2][C:3]([O-:4])=[C:5]([O:6][H:7])[H:8]"
O       -1.72103687       1.28814171       1.04434250
C       -0.84373193       0.60032351       0.78297311
C       -0.29583615      -0.13704347      -0.89455073
O       -1.03232402      -0.05214678      -1.81311442
C        0.96505312      -0.52605880      -0.40035056
O        1.03926213      -0.96479620       0.79626828
H        0.06718463      -0.17654717       1.36217974
H        1.82142909      -0.03187280      -0.87774791
8
Frame=4 idx=005204 GeodesicLength=0.3819124389851014 rxn_smarts="[O:1]=[C:2]([C:3](=[O:4])[C:5](=[O:6])[H:8])[H:7]>>[O+:1]#[C:2][C:3]([O-:4])=[C:5]([O:6][H:7])[H:8]"
O       -1.76640800       1.23484280       1.04764202
C       -0.84860712       0.60997858       0.76207916
C       -0.30217678      -0.12496060      -0.87101394
O       -1.00946621      -0.00050653      -1.81235306
C        0.96259597      -0.53873758      -0.39836933
O        1.05689268      -0.94763449       0.80746656
H        0.08426063      -0.13776471       1.38014939
H        1.82290883      -0.09521748      -0.91560080
8
Frame=5 idx=005204 GeodesicLength=0.4771200911458534 rxn_smarts="[O:1]=[C:2]([C:3](=[O:4])[C:5](=[O:6])[H:8])[H:7]>>[O+:1]#[C:2][C:3]([O-:4])=[C:5]([O:6][H:7])[H:8]"
O       -1.81007332       1.17601672       1.05119920
C       -0.85507913       0.61919750       0.74161271
C       -0.30814915      -0.11263759      -0.84872210
O       -0.98388919       0.05388144      -1.81117987
C        0.95897436      -0.55187578      -0.39606494
O        1.07399584      -0.92928520       0.81836645
H        0.10359331      -0.09326677       1.39664961
H        1.82062729      -0.16203034      -0.95186106
8
Frame=6 idx=005204 GeodesicLength=0.5722259066459409 rxn_smarts="[O:1]=[C:2]([C:3](=[O:4])[C:5](=[O:6])[H:8])[H:7]>>[O+:1]#[C:2][C:3]([O-:4])=[C:5]([O:6][H:7])[H:8]"
O       -1.85170857       1.11186969       1.05433182
C       -0.86435196       0.62569357       0.72221187
C       -0.31421718      -0.10036900      -0.82752418
O       -0.95474165       0.11229009      -1.80950704
C        0.95376795      -0.56585655      -0.39346563
O        1.09059891      -0.90966432       0.82884980
H        0.12660115      -0.04138862       1.41114890
H        1.81405136      -0.23257486      -0.98604556
8
Frame=7 idx=005204 GeodesicLength=0.6674517509781066 rxn_smarts="[O:1]=[C:2]([C:3](=[O:4])[C:5](=[O:6])[H:8])[H:7]>>[O+:1]#[C:2][C:3]([O-:4])=[C:5]([O:6][H:7])[H:8]"
O       -1.89146660       1.04009689       1.05884951
C       -0.87571007       0.63152308       0.70282178
C       -0.31894184      -0.08592994      -0.80806680
O       -0.92245225       0.17422653      -1.80669667
C        0.94726762      -0.58051406      -0.39016445
O        1.10700012      -0.88730104       0.83944951
H        0.15101429       0.01707866       1.42246652
H        1.80328872      -0.30918012      -1.01865941
8
Frame=8 idx=005204 GeodesicLength=0.7624568649895468 rxn_smarts="[O:1]=[C:2]([C:3](=[O:4])[C:5](=[O:6])[H:8])[H:7]>>[O+:1]#[C:2][C:3]([O-:4])=[C:5]([O:6][H:7])[H:8]"
O       -1.92818746       0.96392658       1.06205436
C       -0.89010456       0.63300243       0.68525132
C       -0.32285748      -0.06953971      -0.78969627
O       -0.88671500       0.23975859      -1.80210471
C        0.93924178      -0.59548396      -0.38637870
O        1.12446274      -0.86141739       0.84934817
H        0.17674690       0.08066418       1.43059411
H        1.78741308      -0.39091072      -1.04906827
8
Frame=9 idx=005204 GeodesicLength=0.8576711863483211 rxn_smarts="[O:1]=[C:2]([C:3](=[O:4])[C:5](=[O:6])[H:8])[H:7]>>[O+:1]#[C:2][C:3]([O-:4])=[C:5]([O:6][H:7])[H:8]"
O       -1.96183850       0.88126334       1.06564779
C       -0.90714602       0.63157410       0.66806158
C       -0.32530861      -0.05119910      -0.77282240
O       -0.84654440       0.31053141      -1.79532953
C        0.92976382      -0.61141973      -0.38165477
O        1.14455288      -0.82939305       0.85893669
H        0.20146674       0.14873835       1.43488528
H        1.76505409      -0.48009533      -1.07772465
8
Frame=10 idx=005204 GeodesicLength=0.9530176146599048 rxn_smarts="[O:1]=[C:2]([C:3](=[O:4])[C:5](=[O:6])[H:8])[H:7]>>[O+:1]#[C:2][C:3]([O-:4])=[C:5]([O:6][H:7])[H:8]"
O       -1.99215461       0.79287292       1.06789224
C       -0.92613650       0.62757999       0.65188353
C       -0.32667059      -0.03098545      -0.75701242
O       -0.80155638       0.38649763      -1.78569927
C        0.91895206      -0.62759927      -0.37600413
O        1.16943485      -0.78924714       0.86693356
H        0.22326268       0.21845917       1.43641333
H        1.73486849      -0.57757785      -1.10440684
8
Frame=11 idx=005204 GeodesicLength=1.0486208870840648 rxn_smarts="[O:1]=[C:2]([C:3](=[O:4])[C:5](=[O:6])[H:8])[H:7]>>[O+:1]#[C:2][C:3]([O-:4])=[C:5]([O:6][H:7])[H:8]"
O       -2.01678468       0.70155792       1.06872862
C       -0.94625026       0.62172702       0.63498258
C       -0.32721173      -0.01094875      -0.74240104
O       -0.75171095       0.46593107      -1.77207030
C        0.90744655      -0.64307787      -0.36902677
O        1.20006612      -0.74026734       0.87177283
H        0.23917948       0.28562769       1.43592863
H        1.69526547      -0.68054974      -1.12791455
8
Frame=12 idx=005204 GeodesicLength=1.1441712121818348 rxn_smarts="[O:1]=[C:2]([C:3](=[O:4])[C:5](=[O:6])[H:8])[H:7]>>[O+:1]#[C:2][C:3]([O-:4])=[C:5]([O:6][H:7])[H:8]"
O       -2.03579420       0.61327965       1.06538303
C       -0.96605727       0.61334433       0.61873691
C       -0.32755911       0.00868295      -0.72831698
O       -0.69956914       0.54378154      -1.75424420
C        0.89553662      -0.65757607      -0.36189827
O        1.23554595      -0.68501094       0.87055170
H        0.24976947       0.34643874       1.43562030
H        1.64812768      -0.78294020      -1.14583250
8
Frame=13 idx=005204 GeodesicLength=1.239870966941839 rxn_smarts="[O:1]=[C:2]([C:3](=[O:4])[C:5](=[O:6])[H:8])[H:7]>>[O+:1]#[C:2][C:3]([O-:4])=[C:5]([O:6][H:7])[H:8]"
O       -2.04803256       0.53353077       1.05972074
C       -0.98391626       0.60648338       0.60154346
C       -0.32903960       0.02501961      -0.71512813
O       -0.64946296       0.61337130      -1.73410126
C        0.88464654      -0.67022304      -0.35508419
O        1.27141566      -0.63132428       0.86374014
H        0.25541617       0.39766631       1.43665982
H        1.59897302      -0.87452406      -1.15735057
8
Frame=14 idx=005204 GeodesicLength=1.3360037379072158 rxn_smarts="[O:1]=[C:2]([C:3](=[O:4])[C:5](=[O:6])[H:8])[H:7]>>[O+:1]#[C:2][C:3]([O-:4])=[C:5]([O:6][H:7])[H:8]"
O       -2.05408821       0.45997647       1.05282362
C       -1.00024839       0.60165938       0.58308621
C       -0.33125151       0.03901802      -0.70283669
O       -0.60140521       0.67542097      -1.71230456
C        0.87418011      -0.68181448      -0.34830730
O        1.30578114      -0.58061903       0.85233486
H        0.25794072       0.44206236       1.43833855
H        1.54909136      -0.95570369      -1.16313468
8
Frame=15 idx=005204 GeodesicLength=1.4323966413762408 rxn_smarts="[O:1]=[C:2]([C:3](=[O:4])[C:5](=[O:6])[H:8])[H:7]>>[O+:1]#[C:2][C:3]([O-:4])=[C:5]([O:6][H:7])[H:8]"
O       -2.05530667       0.39440929       1.04540729
C       -1.01527483       0.59840663       0.56383689
C       -0.33461057       0.05023135      -0.69121296
O       -0.55703480       0.72873114      -1.68981961
C        0.86461611      -0.69211154      -0.34204652
O        1.33640224      -0.53673486       0.83819064
H        0.25916635       0.48125346       1.44030753
H        1.50204217      -1.02418548      -1.16466326
8
Frame=16 idx=005204 GeodesicLength=1.5288497721171797 rxn_smarts="[O:1]=[C:2]([C:3](=[O:4])[C:5](=[O:6])[H:8])[H:7]>>[O+:1]#[C:2][C:3]([O-:4])=[C:5]([O:6][H:7])[H:8]"
O       -2.05301023       0.33614772       1.03804212
C       -1.02944402       0.59594548       0.54416756
C       -0.33896912       0.05908259      -0.68005909
O       -0.51633601       0.77437809      -1.66700440
C        0.85571835      -0.70166553      -0.33642614
O        1.36277799      -0.50038105       0.82278815
H        0.26011143       0.51747817       1.44199937
H        1.45915162      -1.08098547      -1.16350757
