18
Frame=0 idx=008116 GeodesicLength=0.0 rxn_smarts="[C:1]([N:2]([C:3](=[O:4])[C:5]([C:6]([H:13])([H:14])[H:15])([C:7]([H:16])([H:17])[H:18])[H:12])[H:11])([H:8])([H:9])[H:10]>>[C:1]([N:2](/[C:3]([O:4][C:6]([H:13])([H:14])[H:15])=[C:5](/[C:7]([H:16])([H:17])[H:18])[H:12])[H:11])([H:8])([H:9])[H:10]"
C        2.81991237       0.16071538      -0.11474535
N        1.51359364       0.52934351      -0.60911109
C        0.36550544       0.06128026      -0.08794896
O        0.43179764      -0.63159986       0.97542816
C       -0.89587050       0.25327281      -0.70353695
C       -1.26064614      -1.58450206       0.70490932
C       -1.96143845       1.04846939       0.00943829
H        3.17787091       0.84997359       0.65385271
H        3.53514775       0.14367206      -0.93806719
H        2.75439860      -0.83155229       0.32898695
H        1.44606287       1.22930998      -1.32373113
H       -0.86901203       0.42209220      -1.78072201
H       -1.11068803      -1.81765465       1.75200003
H       -0.90531264      -2.34564187       0.02546700
H       -2.27283817      -1.25358364       0.50234447
H       -2.95857140       0.61410477      -0.14720679
H       -1.79275253       1.06561384       1.08844401
H       -2.01715929       2.08668656      -0.33580139
18
Frame=1 idx=008116 GeodesicLength=0.03898119351246312 rxn_smarts="[C:1]([N:2]([C:3](=[O:4])[C:5]([C:6]([H:13])([H:14])[H:15])([C:7]([H:16])([H:17])[H:18])[H:12])[H:11])([H:8])([H:9])[H:10]>>[C:1]([N:2](/[C:3]([O:4][C:6]([H:13])([H:14])[H:15])=[C:5](/[C:7]([H:16])([H:17])[H:18])[H:12])[H:11])([H:8])([H:9])[H:10]"
C        2.82056238       0.15476718      -0.11859297
N        1.51313479       0.53920154      -0.59623461
C        0.36357912       0.08516384      -0.06370134
O        0.42653623      -0.61153672       0.99857567
C       -0.89624154       0.25798453      -0.68938950
C       -1.24908762      -1.58137840       0.68793816
C       -1.97004802       1.05020670       0.01492892
H        3.21252708       0.86585191       0.61253364
H        3.51612087       0.08710053      -0.95646441
H        2.74688369      -0.81758830       0.36567899
H        1.44454249       1.21903559      -1.32998642
H       -0.86206907       0.42369840      -1.76668038
H       -1.12299761      -1.82100024       1.73719339
H       -0.87589013      -2.34117719       0.01537270
H       -2.26857878      -1.27798790       0.47617043
H       -2.96476391       0.61701426      -0.15731093
H       -1.81454089       1.06071308       1.09591873
H       -2.01966908       2.08993118      -0.32595007
18
Frame=2 idx=008116 GeodesicLength=0.07781211774087156 rxn_smarts="[C:1]([N:2]([C:3](=[O:4])[C:5]([C:6]([H:13])([H:14])[H:15])([C:7]([H:16])([H:17])[H:18])[H:12])[H:11])([H:8])([H:9])[H:10]>>[C:1]([N:2](/[C:3]([O:4][C:6]([H:13])([H:14])[H:15])=[C:5](/[C:7]([H:16])([H:17])[H:18])[H:12])[H:11])([H:8])([H:9])[H:10]"
C        2.82045134       0.14901700      -0.12189188
N        1.51247529       0.54884514      -0.58382674
C        0.36154794       0.10821997      -0.04062665
O        0.42113473      -0.59212749       1.02069633
C       -0.89670154       0.26257885      -0.67565098
C       -1.23714625      -1.57799151       0.67106358
C       -1.97811351       1.05204414       0.02053990
H        3.24568093       0.88041388       0.56945945
H        3.49483224       0.03014019      -0.97170662
H        2.74022373      -0.80119606       0.40323887
H        1.44242894       1.20806660      -1.33610498
H       -0.85557568       0.42546098      -1.75296788
H       -1.13432000      -1.82458155       1.72173134
H       -0.84671440      -2.33632724       0.00539585
H       -2.26302145      -1.30205097       0.44993352
H       -2.97042827       0.62045184      -0.16685090
H       -1.83520421       1.05570852       1.10323585
H       -2.02154982       2.09332769      -0.31566805
18
Frame=3 idx=008116 GeodesicLength=0.116464841599112 rxn_smarts="[C:1]([N:2]([C:3](=[O:4])[C:5]([C:6]([H:13])([H:14])[H:15])([C:7]([H:16])([H:17])[H:18])[H:12])[H:11])([H:8])([H:9])[H:10]>>[C:1]([N:2](/[C:3]([O:4][C:6]([H:13])([H:14])[H:15])=[C:5](/[C:7]([H:16])([H:17])[H:18])[H:12])[H:11])([H:8])([H:9])[H:10]"
C        2.81950063       0.14256822      -0.12534654
N        1.51162735       0.55992218      -0.57055334
C        0.35940499       0.13124791      -0.01800000
O        0.41564246      -0.57231012       1.04266583
C       -0.89702302       0.26690121      -0.66231706
C       -1.22437514      -1.57401889       0.65501501
C       -1.98611651       1.05364065       0.02540402
H        3.27834974       0.89021157       0.52584556
H        3.47056251      -0.02618132      -0.98523019
H        2.73357821      -0.78465189       0.43824739
H        1.43969177       1.19946567      -1.33954227
H       -0.84871482       0.42691562      -1.73960284
H       -1.14445168      -1.82756674       1.70651005
H       -0.81680633      -2.33089727      -0.00329421
H       -2.25576082      -1.32594590       0.42394186
H       -2.97576462       0.62351308      -0.17695915
H       -1.85569668       1.05085481       1.10959715
H       -2.02364804       2.09633122      -0.30638127
18
Frame=4 idx=008116 GeodesicLength=0.1551542846179221 rxn_smarts="[C:1]([N:2]([C:3](=[O:4])[C:5]([C:6]([H:13])([H:14])[H:15])([C:7]([H:16])([H:17])[H:18])[H:12])[H:11])([H:8])([H:9])[H:10]>>[C:1]([N:2](/[C:3]([O:4][C:6]([H:13])([H:14])[H:15])=[C:5](/[C:7]([H:16])([H:17])[H:18])[H:12])[H:11])([H:8])([H:9])[H:10]"
C        2.81788304       0.13640358      -0.12819115
N        1.51064742       0.57053444      -0.55793681
C        0.35716683       0.15342499       0.00350878
O        0.41002168      -0.55327512       1.06358974
C       -0.89745417       0.27118085      -0.64934668
C       -1.21135053      -1.56988750       0.63888479
C       -1.99359314       1.05536755       0.03053731
H        3.30948981       0.89915603       0.48005846
H        3.44413629      -0.08321616      -0.99536556
H        2.72798631      -0.76521022       0.47469054
H        1.43652154       1.18988696      -1.34319641
H       -0.84234781       0.42869462      -1.72651812
H       -1.15372490      -1.83092689       1.69050628
H       -0.78722490      -2.32513901      -0.01212905
H       -2.24732365      -1.34953398       0.39773874
H       -2.98062917       0.62719139      -0.18642751
H       -1.87511523       1.04579163       1.11598358
H       -2.02508942       2.09955683      -0.29638694
18
Frame=5 idx=008116 GeodesicLength=0.19420359799570167 rxn_smarts="[C:1]([N:2]([C:3](=[O:4])[C:5]([C:6]([H:13])([H:14])[H:15])([C:7]([H:16])([H:17])[H:18])[H:12])[H:11])([H:8])([H:9])[H:10]>>[C:1]([N:2](/[C:3]([O:4][C:6]([H:13])([H:14])[H:15])=[C:5](/[C:7]([H:16])([H:17])[H:18])[H:12])[H:11])([H:8])([H:9])[H:10]"
C        2.81558128       0.13008766      -0.13052751
N        1.50959270       0.58083414      -0.54586142
C        0.35478869       0.17565868       0.02439576
O        0.40416115      -0.53416683       1.08393720
C       -0.89796575       0.27590896      -0.63654345
C       -1.19760389      -1.56545994       0.62245182
C       -2.00100920       1.05714613       0.03601481
H        3.33967197       0.90658140       0.43133898
H        3.41514018      -0.14239103      -1.00193311
H        2.72310828      -0.74263461       0.51288772
H        1.43317127       1.17908158      -1.34724618
H       -0.83636898       0.43136259      -1.71350785
H       -1.16191073      -1.83460524       1.67351075
H       -0.75689992      -2.31863349      -0.02128842
H       -2.23725532      -1.37306928       0.37077767
H       -2.98527338       0.63105534      -0.19551029
H       -1.89424426       1.04027561       1.12250920
H       -2.02668409       2.10296833      -0.28540566
18
Frame=6 idx=008116 GeodesicLength=0.23391117462140817 rxn_smarts="[C:1]([N:2]([C:3](=[O:4])[C:5]([C:6]([H:13])([H:14])[H:15])([C:7]([H:16])([H:17])[H:18])[H:12])[H:11])([H:8])([H:9])[H:10]>>[C:1]([N:2](/[C:3]([O:4][C:6]([H:13])([H:14])[H:15])=[C:5](/[C:7]([H:16])([H:17])[H:18])[H:12])[H:11])([H:8])([H:9])[H:10]"
C        2.81222403       0.12213953      -0.13319090
N        1.50851468       0.59296870      -0.53247490
C        0.35219486       0.19948212       0.04585373
O        0.39796804      -0.51316726       1.10508544
C       -0.89818793       0.28120012      -0.62376656
C       -1.18217038      -1.56022551       0.60650878
C       -2.00913433       1.05851215       0.04076034
H        3.37037088       0.90809643       0.38053358
H        3.38163485      -0.20323582      -1.00702582
H        2.71778350      -0.72001156       0.54928566
H        1.42967648       1.17084261      -1.34860505
H       -0.82961018       0.43469759      -1.70043655
H       -1.16841226      -1.83769678       1.65643039
H       -0.72391312      -2.31075555      -0.02942056
H       -2.22453876      -1.39693164       0.34319569
H       -2.98993749       0.63372534      -0.20581381
H       -1.91461014       1.03445285       1.12817278
H       -2.02985274       2.10590667      -0.27509224
18
Frame=7 idx=008116 GeodesicLength=0.2738565564409071 rxn_smarts="[C:1]([N:2]([C:3](=[O:4])[C:5]([C:6]([H:13])([H:14])[H:15])([C:7]([H:16])([H:17])[H:18])[H:12])[H:11])([H:8])([H:9])[H:10]>>[C:1]([N:2](/[C:3]([O:4][C:6]([H:13])([H:14])[H:15])=[C:5](/[C:7]([H:16])([H:17])[H:18])[H:12])[H:11])([H:8])([H:9])[H:10]"
C        2.80823602       0.11451458      -0.13516136
N        1.50733270       0.60421916      -0.52022740
C        0.34952346       0.22253848       0.06610795
O        0.39172721      -0.49295168       1.12504136
C       -0.89859680       0.28656282      -0.61135662
C       -1.16644463      -1.55482022       0.59029617
C       -2.01677444       1.06002730       0.04597214
H        3.39891667       0.90827760       0.32750944
H        3.34625200      -0.26471720      -1.00752014
H        2.71371187      -0.69377172       0.58693383
H        1.42588901       1.16110217      -1.35074956
H       -0.82356529       0.43855757      -1.68765782
H       -1.17399745      -1.84113757       1.63842189
H       -0.69113800      -2.30247133      -0.03790485
H       -2.21053350      -1.42041205       0.31521968
H       -2.99420846       0.63708740      -0.21526320
H       -1.93388687       1.02827759       1.13405542
H       -2.03244351       2.10911711      -0.26371693
18
Frame=8 idx=008116 GeodesicLength=0.31439833064708056 rxn_smarts="[C:1]([N:2]([C:3](=[O:4])[C:5]([C:6]([H:13])([H:14])[H:15])([C:7]([H:16])([H:17])[H:18])[H:12])[H:11])([H:8])([H:9])[H:10]>>[C:1]([N:2](/[C:3]([O:4][C:6]([H:13])([H:14])[H:15])=[C:5](/[C:7]([H:16])([H:17])[H:18])[H:12])[H:11])([H:8])([H:9])[H:10]"
C        2.80344812       0.10642780      -0.13677317
N        1.50608886       0.61553632      -0.50824469
C        0.34672395       0.24577998       0.08586781
O        0.38535598      -0.47252836       1.14454619
C       -0.89901843       0.29223087      -0.59916598
C       -1.14987249      -1.54899620       0.57401905
C       -2.02441265       1.06147642       0.05124534
H        3.42617468       0.90512680       0.27209464
H        3.30787792      -0.32720509      -1.00418079
H        2.71040348      -0.66497026       0.62465748
H        1.42190305       1.15130118      -1.35247191
H       -0.81768993       0.44308048      -1.67502329
H       -1.17830161      -1.84463428       1.61972160
H       -0.65743313      -2.29334175      -0.04634562
H       -2.19466040      -1.44374412       0.28671775
H       -2.99827157       0.64043823      -0.22462761
H       -1.95299135       1.02169524       1.13979741
H       -2.03532448       2.11232674      -0.25183423
18
Frame=9 idx=008116 GeodesicLength=0.35578212157828876 rxn_smarts="[C:1]([N:2]([C:3](=[O:4])[C:5]([C:6]([H:13])([H:14])[H:15])([C:7]([H:16])([H:17])[H:18])[H:12])[H:11])([H:8])([H:9])[H:10]>>[C:1]([N:2](/[C:3]([O:4][C:6]([H:13])([H:14])[H:15])=[C:5](/[C:7]([H:16])([H:17])[H:18])[H:12])[H:11])([H:8])([H:9])[H:10]"
C        2.79779327       0.09768631      -0.13801424
N        1.50479809       0.62684948      -0.49660925
C        0.34378060       0.26952308       0.10523692
O        0.37883678      -0.45158332       1.16370989
C       -0.89945694       0.29838216      -0.58714476
C       -1.13223523      -1.54265849       0.55759918
C       -2.03219065       1.06283367       0.05662404
H        3.45198142       0.89810590       0.21427105
H        3.26637441      -0.39080959      -0.99665518
H        2.70780030      -0.63360675       0.66226813
H        1.41779610       1.14126041      -1.35394710
H       -0.81200976       0.44848324      -1.66248369
H       -1.18113043      -1.84814533       1.60024371
H       -0.62239098      -2.28314200      -0.05480085
H       -2.17664951      -1.46695373       0.25752725
H       -3.00220120       0.64364941      -0.23394372
H       -1.97212516       1.01459981       1.14544104
H       -2.03877111       2.11552573      -0.23932240
18
Frame=10 idx=008116 GeodesicLength=0.3986069182676617 rxn_smarts="[C:1]([N:2]([C:3](=[O:4])[C:5]([C:6]([H:13])([H:14])[H:15])([C:7]([H:16])([H:17])[H:18])[H:12])[H:11])([H:8])([H:9])[H:10]>>[C:1]([N:2](/[C:3]([O:4][C:6]([H:13])([H:14])[H:15])=[C:5](/[C:7]([H:16])([H:17])[H:18])[H:12])[H:11])([H:8])([H:9])[H:10]"
C        2.79089990       0.08743922      -0.13919791
N        1.50350830       0.63865835      -0.48500964
C        0.34061625       0.29497654       0.12469608
O        0.37201412      -0.42868738       1.18318519
C       -0.89981019       0.30550096      -0.57515637
C       -1.11262585      -1.53540813       0.54113643
C       -2.04064273       1.06389708       0.06190898
H        3.47645435       0.88510029       0.15456749
H        3.22081299      -0.45597315      -0.98530486
H        2.70509738      -0.60102008       0.69859096
H        1.41375539       1.13166994      -1.35477457
H       -0.80626865       0.45524529      -1.64989114
H       -1.18183586      -1.85123224       1.58008421
H       -0.58433970      -2.27115766      -0.06285113
H       -2.15541866      -1.49026984       0.22726518
H       -3.00618869       0.64596056      -0.24370188
H       -1.99216089       1.00678625       1.15079404
H       -2.04386744       2.11851400      -0.22634107
18
Frame=11 idx=008116 GeodesicLength=0.4434458200922047 rxn_smarts="[C:1]([N:2]([C:3](=[O:4])[C:5]([C:6]([H:13])([H:14])[H:15])([C:7]([H:16])([H:17])[H:18])[H:12])[H:11])([H:8])([H:9])[H:10]>>[C:1]([N:2](/[C:3]([O:4][C:6]([H:13])([H:14])[H:15])=[C:5](/[C:7]([H:16])([H:17])[H:18])[H:12])[H:11])([H:8])([H:9])[H:10]"
C        2.78252371       0.07540391      -0.14026927
N        1.50224501       0.65133166      -0.47289403
C        0.33721305       0.32226040       0.14449785
O        0.36484694      -0.40385256       1.20312569
C       -0.89994612       0.31357241      -0.56315657
C       -1.09090276      -1.52718326       0.52462586
C       -2.04976799       1.06456599       0.06690681
H        3.49969418       0.86539962       0.09196879
H        3.16985689      -0.52284561      -0.97011787
H        2.70262165      -0.56709645       0.73378967
H        1.40976624       1.12337797      -1.35417073
H       -0.80014731       0.46336216      -1.63718043
H       -1.18014351      -1.85403821       1.55916714
H       -0.54314449      -2.25715805      -0.07056836
H       -2.13071467      -1.51363401       0.19602012
H       -3.01013826       0.64721108      -0.25423798
H       -2.01320010       0.99815463       1.15564427
H       -2.05066247       2.12116831      -0.21315095
18
Frame=12 idx=008116 GeodesicLength=0.49002119849065634 rxn_smarts="[C:1]([N:2]([C:3](=[O:4])[C:5]([C:6]([H:13])([H:14])[H:15])([C:7]([H:16])([H:17])[H:18])[H:12])[H:11])([H:8])([H:9])[H:10]>>[C:1]([N:2](/[C:3]([O:4][C:6]([H:13])([H:14])[H:15])=[C:5](/[C:7]([H:16])([H:17])[H:18])[H:12])[H:11])([H:8])([H:9])[H:10]"
C        2.77321171       0.06291073      -0.14048008
N        1.50087655       0.66281117      -0.46228930
C        0.33369043       0.34995537       0.16332786
O        0.35758581      -0.37867943       1.22210862
C       -0.90033152       0.32240028      -0.55140677
C       -1.06798922      -1.51832385       0.50740695
C       -2.05894405       1.06524413       0.07260039
H        3.51992428       0.84166469       0.02717684
H        3.11645073      -0.59056875      -0.94808888
H        2.70128773      -0.52906967       0.76920896
H        1.40568406       1.11262134      -1.35507242
H       -0.79496007       0.47295716      -1.62465234
H       -1.17660868      -1.85701659       1.53682275
H       -0.50059549      -2.24171888      -0.07901507
H       -2.10351277      -1.53652474       0.16365936
H       -3.01400777       0.64868052      -0.26391699
H       -2.03378564       0.98864761       1.16090592
H       -2.05797608       2.12400891      -0.19829581
18
Frame=13 idx=008116 GeodesicLength=0.5384216424160297 rxn_smarts="[C:1]([N:2]([C:3](=[O:4])[C:5]([C:6]([H:13])([H:14])[H:15])([C:7]([H:16])([H:17])[H:18])[H:12])[H:11])([H:8])([H:9])[H:10]>>[C:1]([N:2](/[C:3]([O:4][C:6]([H:13])([H:14])[H:15])=[C:5](/[C:7]([H:16])([H:17])[H:18])[H:12])[H:11])([H:8])([H:9])[H:10]"
C        2.76274895       0.04952324      -0.14028500
N        1.49942346       0.67402682      -0.45232858
C        0.33005088       0.37817222       0.18149325
O        0.35028749      -0.35283946       1.24057977
C       -0.90076000       0.33160465      -0.53995846
C       -1.04378122      -1.50867719       0.49020663
C       -2.06819220       1.06573383       0.07831201
H        3.53696022       0.81241857      -0.03789217
H        3.06033954      -0.65693121      -0.92127935
H        2.70065806      -0.48986634       0.80226061
H        1.40142500       1.10176982      -1.35583736
H       -0.79011141       0.48330926      -1.61237919
H       -1.17109642      -1.85969524       1.51389249
H       -0.45657046      -2.22485675      -0.08720040
H       -2.07365833      -1.55889669       0.13092581
H       -3.01770997       0.64994193      -0.27344700
H       -2.05411827       0.97858012       1.16593762
H       -2.06589531       2.12668242      -0.18300068
18
Frame=14 idx=008116 GeodesicLength=0.5886010122663595 rxn_smarts="[C:1]([N:2]([C:3](=[O:4])[C:5]([C:6]([H:13])([H:14])[H:15])([C:7]([H:16])([H:17])[H:18])[H:12])[H:11])([H:8])([H:9])[H:10]>>[C:1]([N:2](/[C:3]([O:4][C:6]([H:13])([H:14])[H:15])=[C:5](/[C:7]([H:16])([H:17])[H:18])[H:12])[H:11])([H:8])([H:9])[H:10]"
C        2.75129999       0.03558487      -0.13960900
N        1.49784454       0.68456326      -0.44344963
C        0.32634453       0.40650611       0.19864601
O        0.34303549      -0.32669386       1.25821802
C       -0.90133664       0.34101789      -0.52890856
C       -1.01858051      -1.49831335       0.47301077
C       -2.07733667       1.06610293       0.08418731
H        3.55033345       0.77838925      -0.10207769
H        3.00270364      -0.72096434      -0.88960665
H        2.70070430      -0.44973746       0.83259698
H        1.39692151       1.09014652      -1.35704204
H       -0.78588765       0.49424982      -1.60047890
H       -1.16382430      -1.86204171       1.49041702
H       -0.41162379      -2.20678484      -0.09516774
H       -2.04146581      -1.58056334       0.09796481
H       -3.02124348       0.65126532      -0.28246907
H       -2.07380687       0.96802734       1.17088182
H       -2.07408174       2.12924559      -0.16711345
18
Frame=15 idx=008116 GeodesicLength=0.6403829025427215 rxn_smarts="[C:1]([N:2]([C:3](=[O:4])[C:5]([C:6]([H:13])([H:14])[H:15])([C:7]([H:16])([H:17])[H:18])[H:12])[H:11])([H:8])([H:9])[H:10]>>[C:1]([N:2](/[C:3]([O:4][C:6]([H:13])([H:14])[H:15])=[C:5](/[C:7]([H:16])([H:17])[H:18])[H:12])[H:11])([H:8])([H:9])[H:10]"
C        2.73887778       0.02110839      -0.13867757
N        1.49616031       0.69479752      -0.43515783
C        0.32259252       0.43465047       0.21491352
O        0.33587911      -0.30047176       1.27518588
C       -0.90194045       0.35023476      -0.51829324
C       -0.99267685      -1.48730395       0.45628446
C       -2.08622793       1.06630303       0.08983887
H        3.55987922       0.73987477      -0.16415376
H        2.94399020      -0.78107000      -0.85491469
H        2.70129809      -0.41061149       0.85913538
H        1.39213069       1.07906370      -1.35781390
H       -0.78193445       0.50510496      -1.58900497
H       -1.15500934      -1.86391175       1.46696954
H       -0.36625262      -2.18778872      -0.10239348
H       -2.00727652      -1.60144360       0.06543912
H       -3.02449393       0.65261911      -0.29133438
H       -2.09276655       0.95729372       1.17538942
H       -2.08222928       2.13155084      -0.15141237
18
Frame=16 idx=008116 GeodesicLength=0.6936032774697741 rxn_smarts="[C:1]([N:2]([C:3](=[O:4])[C:5]([C:6]([H:13])([H:14])[H:15])([C:7]([H:16])([H:17])[H:18])[H:12])[H:11])([H:8])([H:9])[H:10]>>[C:1]([N:2](/[C:3]([O:4][C:6]([H:13])([H:14])[H:15])=[C:5](/[C:7]([H:16])([H:17])[H:18])[H:12])[H:11])([H:8])([H:9])[H:10]"
C        2.72578517       0.00652385      -0.13735248
N        1.49432105       0.70416539      -0.42801460
C        0.31884187       0.46221174       0.22994992
O        0.32886940      -0.27458541       1.29112853
C       -0.90272463       0.35918788      -0.50817695
C       -0.96644298      -1.47578710       0.43983159
C       -2.09473931       1.06645692       0.09556276
H        3.56552761       0.69819325      -0.22345893
H        2.88555940      -0.83707733      -0.81694397
H        2.70243932      -0.37206405       0.88232375
H        1.38699786       1.06731334      -1.35904393
H       -0.77864106       0.51588470      -1.57804132
H       -1.14501077      -1.86539478       1.44340307
H       -0.32102769      -2.16812631      -0.10915899
H       -1.97152790      -1.62141413       0.03326564
H       -3.02753232       0.65435674      -0.29956163
H       -2.11066334       0.94640829       1.17976294
H       -2.09003169       2.13374702      -0.13547539
