15
Frame=0 idx=011188 GeodesicLength=0.0 rxn_smarts="[C:1]([C@@:2]1([H:11])[O:3][C@@:4]2([H:12])[C:5]([H:13])([H:14])[C@@:6]12[O:7][H:15])([H:8])([H:9])[H:10]>>[C:1]([C@@:2]([O+:3]=[C-:4][H:12])([C:6](=[C:5]([H:13])[H:14])[O:7][H:15])[H:11])([H:8])([H:9])[H:10]"
C       -1.89802566      -0.23383560      -0.11203368
C       -0.67078378       0.62551653       0.05707318
O       -0.24764011       0.69001473       1.42836446
C        1.06825456       0.97764201       1.22128596
C        1.24231640      -0.99452461       0.01026295
C        0.62453234       0.09216067      -0.53818570
O        0.97411658       0.66867136      -1.69640982
H       -1.74108159      -1.22868576       0.30426733
H       -2.75204104       0.22533524       0.38643868
H       -2.12996184      -0.33158274      -1.17416904
H       -0.82890155       1.63869477      -0.32263184
H        1.64162658       0.53449999       2.06323721
H        2.18764183      -1.34904083      -0.38144268
H        0.78329430      -1.54420424       0.81587458
H        1.74665301       0.22933848      -2.06193163
15
Frame=1 idx=011188 GeodesicLength=0.047429879317549 rxn_smarts="[C:1]([C@@:2]1([H:11])[O:3][C@@:4]2([H:12])[C:5]([H:13])([H:14])[C@@:6]12[O:7][H:15])([H:8])([H:9])[H:10]>>[C:1]([C@@:2]([O+:3]=[C-:4][H:12])([C:6](=[C:5]([H:13])[H:14])[O:7][H:15])[H:11])([H:8])([H:9])[H:10]"
C       -1.89232295      -0.23730034      -0.10515280
C       -0.66910545       0.62994392       0.05038379
O       -0.24933699       0.71419754       1.42280372
C        1.07497347       0.95723127       1.22334441
C        1.23951624      -0.99412854       0.00713065
C        0.62775654       0.09911005      -0.54129228
O        0.99354465       0.68985459      -1.68911330
H       -1.73375089      -1.22474243       0.32782105
H       -2.74834236       0.22604981       0.38611451
H       -2.12452572      -0.35364936      -1.16532767
H       -0.83617769       1.63931705      -0.33528465
H        1.62976887       0.54422987       2.09086414
H        2.18392712      -1.35080125      -0.38495010
H        0.76263792      -1.56528267       0.78721914
H        1.74143723       0.22597050      -2.07456063
15
Frame=2 idx=011188 GeodesicLength=0.09477114970469092 rxn_smarts="[C:1]([C@@:2]1([H:11])[O:3][C@@:4]2([H:12])[C:5]([H:13])([H:14])[C@@:6]12[O:7][H:15])([H:8])([H:9])[H:10]>>[C:1]([C@@:2]([O+:3]=[C-:4][H:12])([C:6](=[C:5]([H:13])[H:14])[O:7][H:15])[H:11])([H:8])([H:9])[H:10]"
C       -1.88660492      -0.24067848      -0.09799451
C       -0.66737295       0.63417484       0.04353480
O       -0.25075263       0.73880925       1.41670908
C        1.08084013       0.93560621       1.22603288
C        1.23644348      -0.99442781       0.00388972
C        0.63108928       0.10567451      -0.54423519
O        1.01377111       0.71053127      -1.68100864
H       -1.72643415      -1.22030040       0.35181201
H       -2.74454535       0.22694672       0.38596766
H       -2.11903448      -0.37583406      -1.15586011
H       -0.84328695       1.63941784      -0.34867100
H        1.61768122       0.55566132       2.11786830
H        2.18002990      -1.35303533      -0.38857566
H        0.74210610      -1.58668146       0.75712852
H        1.73607020       0.22413556      -2.08659786
15
Frame=3 idx=011188 GeodesicLength=0.14212452886806803 rxn_smarts="[C:1]([C@@:2]1([H:11])[O:3][C@@:4]2([H:12])[C:5]([H:13])([H:14])[C@@:6]12[O:7][H:15])([H:8])([H:9])[H:10]>>[C:1]([C@@:2]([O+:3]=[C-:4][H:12])([C:6](=[C:5]([H:13])[H:14])[O:7][H:15])[H:11])([H:8])([H:9])[H:10]"
C       -1.88093272      -0.24398900      -0.09043066
C       -0.66561843       0.63816858       0.03644734
O       -0.25180747       0.76398348       1.40992372
C        1.08581089       0.91258402       1.22925684
C        1.23300890      -0.99552670       0.00042968
C        0.63447337       0.11176816      -0.54711092
O        1.03466402       0.73056655      -1.67220527
H       -1.71914862      -1.21532185       0.37643875
H       -2.74065357       0.22803609       0.38619699
H       -2.11365184      -0.39824163      -1.14558959
H       -0.85026900       1.63892188      -0.36292274
H        1.60535161       0.56902508       2.14411818
H        2.17584115      -1.35588738      -0.39244687
H        0.72154223      -1.60846707       0.72539408
H        1.73138949       0.22437979      -2.09749953
15
Frame=4 idx=011188 GeodesicLength=0.18929692728224887 rxn_smarts="[C:1]([C@@:2]1([H:11])[O:3][C@@:4]2([H:12])[C:5]([H:13])([H:14])[C@@:6]12[O:7][H:15])([H:8])([H:9])[H:10]>>[C:1]([C@@:2]([O+:3]=[C-:4][H:12])([C:6](=[C:5]([H:13])[H:14])[O:7][H:15])[H:11])([H:8])([H:9])[H:10]"
C       -1.87537281      -0.24721859      -0.08248088
C       -0.66388912       0.64187800       0.02916824
O       -0.25246888       0.78954514       1.40246255
C        1.08969725       0.88814463       1.23304962
C        1.22913854      -0.99748202      -0.00324221
C        0.63786430       0.11734415      -0.54988398
O        1.05609535       0.74986844      -1.66267175
H       -1.71190495      -1.20988026       0.40143720
H       -2.73668995       0.22927065       0.38691802
H       -2.10852966      -0.42059700      -1.13454223
H       -0.85714307       1.63779098      -0.37794484
H        1.59313984       0.58457286       2.16918608
H        2.17143459      -1.35927107      -0.39633476
H        0.70094415      -1.63066193       0.69199566
H        1.72768443       0.22669602      -2.10711672
15
Frame=5 idx=011188 GeodesicLength=0.23650080961374706 rxn_smarts="[C:1]([C@@:2]1([H:11])[O:3][C@@:4]2([H:12])[C:5]([H:13])([H:14])[C@@:6]12[O:7][H:15])([H:8])([H:9])[H:10]>>[C:1]([C@@:2]([O+:3]=[C-:4][H:12])([C:6](=[C:5]([H:13])[H:14])[O:7][H:15])[H:11])([H:8])([H:9])[H:10]"
C       -1.86983243      -0.25037576      -0.07415361
C       -0.66214028       0.64533994       0.02169625
O       -0.25274669       0.81561967       1.39429630
C        1.09232683       0.86199206       1.23771342
C        1.22485657      -1.00026910      -0.00716952
C        0.64138470       0.12253552      -0.55245824
O        1.07837127       0.76876216      -1.65209283
H       -1.70459548      -1.20389268       0.42695417
H       -2.73261420       0.23064893       0.38802098
H       -2.10347331      -0.44308017      -1.12271068
H       -0.86387578       1.63604446      -0.39373404
H        1.58091504       0.60248232       2.19320837
H        2.16685152      -1.36312083      -0.40028468
H        0.68021843      -1.65328539       0.65662753
H        1.72435380       0.23059886      -2.11591341
15
Frame=6 idx=011188 GeodesicLength=0.2836133402960048 rxn_smarts="[C:1]([C@@:2]1([H:11])[O:3][C@@:4]2([H:12])[C:5]([H:13])([H:14])[C@@:6]12[O:7][H:15])([H:8])([H:9])[H:10]>>[C:1]([C@@:2]([O+:3]=[C-:4][H:12])([C:6](=[C:5]([H:13])[H:14])[O:7][H:15])[H:11])([H:8])([H:9])[H:10]"
C       -1.86436517      -0.25345543      -0.06546275
C       -0.66041032       0.64851240       0.01406441
O       -0.25260883       0.84206942       1.38542667
C        1.09346216       0.83402163       1.24333446
C        1.22009668      -1.00395113      -0.01133716
C        0.64501300       0.12729985      -0.55477519
O        1.10146579       0.78718105      -1.64035524
H       -1.69722294      -1.19742022       0.45280029
H       -2.72844634       0.23213171       0.38960325
H       -2.09859518      -0.46549873      -1.11011960
H       -0.87046679       1.63364590      -0.41022321
H        1.56904076       0.62307645       2.21569730
H        2.16214493      -1.36739861      -0.40409399
H        0.65931217      -1.67635627       0.61917154
H        1.72158008       0.23614197      -2.12373078
15
Frame=7 idx=011188 GeodesicLength=0.33069068977269483 rxn_smarts="[C:1]([C@@:2]1([H:11])[O:3][C@@:4]2([H:12])[C:5]([H:13])([H:14])[C@@:6]12[O:7][H:15])([H:8])([H:9])[H:10]>>[C:1]([C@@:2]([O+:3]=[C-:4][H:12])([C:6](=[C:5]([H:13])[H:14])[O:7][H:15])[H:11])([H:8])([H:9])[H:10]"
C       -1.85913135      -0.25649605      -0.05624560
C       -0.65881089       0.65129299       0.00621508
O       -0.25195816       0.86884462       1.37570329
C        1.09289322       0.80396776       1.24980086
C        1.21464130      -1.00871299      -0.01590303
C        0.64860018       0.13148477      -0.55695353
O        1.12515961       0.80503769      -1.62749392
H       -1.68988294      -1.19044462       0.47920236
H       -2.72425980       0.23376330       0.39191541
H       -2.09417883      -0.48797529      -1.09655549
H       -0.87703940       1.63046836      -0.42748046
H        1.55795793       0.64699598       2.23592196
H        2.15710506      -1.37234480      -0.40785382
H        0.63796363      -1.69999396       0.57926671
H        1.72094043       0.24411224      -2.12953981
15
Frame=8 idx=011188 GeodesicLength=0.3775453974413269 rxn_smarts="[C:1]([C@@:2]1([H:11])[O:3][C@@:4]2([H:12])[C:5]([H:13])([H:14])[C@@:6]12[O:7][H:15])([H:8])([H:9])[H:10]>>[C:1]([C@@:2]([O+:3]=[C-:4][H:12])([C:6](=[C:5]([H:13])[H:14])[O:7][H:15])[H:11])([H:8])([H:9])[H:10]"
C       -1.85398886      -0.25946491      -0.04686243
C       -0.65726832       0.65373795      -0.00162906
O       -0.25094083       0.89555978       1.36547351
C        1.09015597       0.77171610       1.25774041
C        1.20857512      -1.01446385      -0.02060837
C        0.65236625       0.13529204      -0.55854767
O        1.15009268       0.82264704      -1.61270512
H       -1.68246445      -1.18311772       0.50546543
H       -2.72003031       0.23541800       0.39453685
H       -2.08985707      -0.51011469      -1.08250327
H       -0.88337329       1.62664452      -0.44513334
H        1.54829567       0.67451475       2.25337488
H        2.15205466      -1.37759961      -0.41096277
H        0.61633273      -1.72403721       0.53702025
H        1.72005005       0.25326780      -2.13465930
15
Frame=9 idx=011188 GeodesicLength=0.42451406838446976 rxn_smarts="[C:1]([C@@:2]1([H:11])[O:3][C@@:4]2([H:12])[C:5]([H:13])([H:14])[C@@:6]12[O:7][H:15])([H:8])([H:9])[H:10]>>[C:1]([C@@:2]([O+:3]=[C-:4][H:12])([C:6](=[C:5]([H:13])[H:14])[O:7][H:15])[H:11])([H:8])([H:9])[H:10]"
C       -1.84926648      -0.26246450      -0.03683429
C       -0.65600438       0.65562977      -0.00967314
O       -0.24933768       0.92236072       1.35429885
C        1.08500874       0.73666722       1.26681751
C        1.20149058      -1.02155526      -0.02583288
C        0.65598084       0.13839210      -0.55991102
O        1.17560291       0.83979659      -1.59628622
H       -1.67514433      -1.17537361       0.53230871
H       -2.71585279       0.23716269       0.39822144
H       -2.08631230      -0.53230532      -1.06733091
H       -0.88978483       1.62189212      -0.46344947
H        1.54048233       0.70692815       2.26664862
H        2.14642195      -1.38378326      -0.41392432
H        0.59377549      -1.74879161       0.49146147
H        1.72293994       0.26544420      -2.13651435
15
Frame=10 idx=011188 GeodesicLength=0.4713532259679762 rxn_smarts="[C:1]([C@@:2]1([H:11])[O:3][C@@:4]2([H:12])[C:5]([H:13])([H:14])[C@@:6]12[O:7][H:15])([H:8])([H:9])[H:10]>>[C:1]([C@@:2]([O+:3]=[C-:4][H:12])([C:6](=[C:5]([H:13])[H:14])[O:7][H:15])[H:11])([H:8])([H:9])[H:10]"
C       -1.84487217      -0.26546969      -0.02666015
C       -0.65497849       0.65701901      -0.01759879
O       -0.24740516       0.94865137       1.34273274
C        1.07677610       0.69862375       1.27788636
C        1.19344306      -1.02992729      -0.03119778
C        0.65968921       0.14099291      -0.56041870
O        1.20251095       0.85679846      -1.57711355
H       -1.66790829      -1.16748453       0.55878450
H       -2.71179504       0.23882205       0.40241763
H       -2.08315244      -0.55401882      -1.05175113
H       -0.89600119       1.61639809      -0.48190856
H        1.53576239       0.74468168       2.27426418
H        2.14060077      -1.39049958      -0.41584102
H        0.57048350      -1.77399398       0.44284638
H        1.72684679       0.27940656      -2.13644211
15
Frame=11 idx=011188 GeodesicLength=0.5179487577627444 rxn_smarts="[C:1]([C@@:2]1([H:11])[O:3][C@@:4]2([H:12])[C:5]([H:13])([H:14])[C@@:6]12[O:7][H:15])([H:8])([H:9])[H:10]>>[C:1]([C@@:2]([O+:3]=[C-:4][H:12])([C:6](=[C:5]([H:13])[H:14])[O:7][H:15])[H:11])([H:8])([H:9])[H:10]"
C       -1.84103971      -0.26854764      -0.01650277
C       -0.65437433       0.65779253      -0.02518385
O       -0.24530651       0.97381070       1.33114002
C        1.06485483       0.65731819       1.29127518
C        1.18414849      -1.03973616      -0.03656593
C        0.66335407       0.14300360      -0.55977992
O        1.23080326       0.87365763      -1.55452584
H       -1.66103862      -1.15972684       0.58447064
H       -2.70809172       0.24029378       0.40703262
H       -2.08052507      -0.57504421      -1.03605940
H       -0.90205853       1.61018770      -0.50007416
H        1.53591246       0.78875761       2.27323246
H        2.13447813      -1.39783356      -0.41615969
H        0.54625602      -1.79955701       0.39110744
H        1.73262722       0.29562367      -2.13340678
15
Frame=12 idx=011188 GeodesicLength=0.5646345681931018 rxn_smarts="[C:1]([C@@:2]1([H:11])[O:3][C@@:4]2([H:12])[C:5]([H:13])([H:14])[C@@:6]12[O:7][H:15])([H:8])([H:9])[H:10]>>[C:1]([C@@:2]([O+:3]=[C-:4][H:12])([C:6](=[C:5]([H:13])[H:14])[O:7][H:15])[H:11])([H:8])([H:9])[H:10]"
C       -1.83805669      -0.27181842      -0.00609478
C       -0.65439008       0.65773543      -0.03244443
O       -0.24305409       0.99747589       1.31946006
C        1.04873234       0.61243500       1.30716238
C        1.17332012      -1.05112235      -0.04188548
C        0.66679940       0.14427555      -0.55790308
O        1.26011002       0.89042051      -1.52809514
H       -1.65466367      -1.15239660       0.60938526
H       -2.70473780       0.24142360       0.41296277
H       -2.07916777      -0.59519815      -1.01998880
H       -0.90814280       1.60314444      -0.51776832
H        1.54144744       0.84024099       2.25957332
H        2.12757509      -1.40619829      -0.41491086
H        0.52068949      -1.82546676       0.33545388
H        1.74353899       0.31504916      -2.12490680
15
Frame=13 idx=011188 GeodesicLength=0.6112273775040398 rxn_smarts="[C:1]([C@@:2]1([H:11])[O:3][C@@:4]2([H:12])[C:5]([H:13])([H:14])[C@@:6]12[O:7][H:15])([H:8])([H:9])[H:10]>>[C:1]([C@@:2]([O+:3]=[C-:4][H:12])([C:6](=[C:5]([H:13])[H:14])[O:7][H:15])[H:11])([H:8])([H:9])[H:10]"
C       -1.83565195      -0.27522142       0.00386761
C       -0.65505233       0.65733460      -0.03899458
O       -0.24117343       1.01965956       1.30841658
C        1.02789000       0.56596164       1.32591812
C        1.16123365      -1.06311902      -0.04606787
C        0.67021426       0.14547087      -0.55394989
O        1.29088025       0.90708985      -1.49701906
H       -1.64874079      -1.14555610       0.63280136
H       -2.70200578       0.24202355       0.41867465
H       -2.07783564      -0.61447946      -1.00449669
H       -0.91408847       1.59574055      -0.53473026
H        1.55368295       0.89295251       2.22998129
H        2.12082805      -1.41402321      -0.40965949
H        0.49479473      -1.85012357       0.27835241
H        1.75502450       0.33628963      -2.11309418
15
Frame=14 idx=011188 GeodesicLength=0.6585480987597669 rxn_smarts="[C:1]([C@@:2]1([H:11])[O:3][C@@:4]2([H:12])[C:5]([H:13])([H:14])[C@@:6]12[O:7][H:15])([H:8])([H:9])[H:10]>>[C:1]([C@@:2]([O+:3]=[C-:4][H:12])([C:6](=[C:5]([H:13])[H:14])[O:7][H:15])[H:11])([H:8])([H:9])[H:10]"
C       -1.83381702      -0.27868383       0.01387763
C       -0.65650242       0.65691411      -0.04530820
O       -0.23940095       1.04115835       1.29741273
C        1.00356110       0.52143108       1.34584924
C        1.14852992      -1.07462170      -0.04853669
C        0.67339142       0.14682067      -0.54866948
O        1.32166502       0.92312198      -1.46321632
H       -1.64277808      -1.13901458       0.65533719
H       -2.69977264       0.24218647       0.42507866
H       -2.07714050      -0.63312194      -0.98895371
H       -0.92049275       1.58809079      -0.55166153
H        1.56967143       0.93977769       2.18567209
H        2.11459522      -1.42063307      -0.40002947
H        0.46963206      -1.87231243       0.22069367
H        1.76885820       0.35888642      -2.09754581
15
Frame=15 idx=011188 GeodesicLength=0.7076595987256817 rxn_smarts="[C:1]([C@@:2]1([H:11])[O:3][C@@:4]2([H:12])[C:5]([H:13])([H:14])[C@@:6]12[O:7][H:15])([H:8])([H:9])[H:10]>>[C:1]([C@@:2]([O+:3]=[C-:4][H:12])([C:6](=[C:5]([H:13])[H:14])[O:7][H:15])[H:11])([H:8])([H:9])[H:10]"
C       -1.83189604      -0.28201113       0.02469378
C       -0.65833105       0.65677290      -0.05232786
O       -0.23696318       1.06316398       1.28494259
C        0.97758820       0.48209165       1.36462121
C        1.13594543      -1.08450068      -0.04904505
C        0.67643177       0.14861386      -0.54326048
O        1.35145150       0.93793512      -1.42938117
H       -1.63556228      -1.13223174       0.67803811
H       -2.69697212       0.24216665       0.43351362
H       -2.07734250      -0.65138628      -0.97212397
H       -0.92737146       1.58006812      -0.56995117
H        1.58335652       0.97418607       2.13439306
H        2.10908862      -1.42524536      -0.38628878
H        0.44627160      -1.89097825       0.16229902
H        1.78430498       0.38135509      -2.08012292
15
Frame=16 idx=011188 GeodesicLength=0.7583709808089594 rxn_smarts="[C:1]([C@@:2]1([H:11])[O:3][C@@:4]2([H:12])[C:5]([H:13])([H:14])[C@@:6]12[O:7][H:15])([H:8])([H:9])[H:10]>>[C:1]([C@@:2]([O+:3]=[C-:4][H:12])([C:6](=[C:5]([H:13])[H:14])[O:7][H:15])[H:11])([H:8])([H:9])[H:10]"
C       -1.82976052      -0.28514313       0.03603881
C       -0.66056875       0.65715846      -0.06012535
O       -0.23374278       1.08618068       1.27093895
C        0.95077504       0.44869926       1.38141746
C        1.12365741      -1.09257215      -0.04799235
C        0.67920372       0.15096922      -0.53831612
O        1.37965068       0.95143551      -1.39685875
H       -1.62698413      -1.12500284       0.70084946
H       -2.69382815       0.24201334       0.44316234
H       -2.07787932      -0.66967022      -0.95430705
H       -0.93497795       1.57179208      -0.58975908
H        1.59484740       0.99451783       2.08172351
H        2.10433858      -1.42778667      -0.36903636
H        0.42545315      -1.90559480       0.10484375
H        1.79981564       0.40300344      -2.06257922
