12
Frame=0 idx=003330 GeodesicLength=0.0 rxn_smarts="[C:1](#[C:2][C:3]1([H:8])[C:4]([H:9])([H:10])[O:5][C:6]1([H:11])[H:12])[H:7]>>[C:1](=[C:2]=[C:3]1[C:4]([H:9])([H:10])[O:5][C:6]1([H:11])[H:12])([H:7])[H:8]"
C        1.64808797      -0.80243690       0.24927974
C        1.74273515       0.33017669      -0.44216799
C        0.32423862       0.10193459      -0.11268834
C       -0.88126467      -0.24643549      -0.99102491
O       -1.70832761       0.59611835      -0.17626138
C       -0.62667086       0.97756892       0.68679391
H        2.20564427      -1.37124361       0.98239434
H        0.48717343      -1.16461940       0.46918502
H       -0.78171397       0.12998575      -2.01231357
H       -1.22126654      -1.28484841      -1.00439603
H       -0.80105483       0.69108756       1.72680706
H       -0.38758092       2.04271196       0.62439220
12
Frame=1 idx=003330 GeodesicLength=0.11847011145635429 rxn_smarts="[C:1](#[C:2][C:3]1([H:8])[C:4]([H:9])([H:10])[O:5][C:6]1([H:11])[H:12])[H:7]>>[C:1](=[C:2]=[C:3]1[C:4]([H:9])([H:10])[O:5][C:6]1([H:11])[H:12])([H:7])[H:8]"
C        1.67343213      -0.81794443       0.25311028
C        1.72591118       0.31512268      -0.43247849
C        0.31258788       0.09446245      -0.10441447
C       -0.88840138      -0.23938724      -0.99393402
O       -1.71599358       0.60776501      -0.18460032
C       -0.63645429       0.98230720       0.68400879
H        2.26087982      -1.37175393       0.97338234
H        0.49430450      -1.18066342       0.48806524
H       -0.77907066       0.13791597      -2.01399102
H       -1.23700290      -1.27483018      -1.01278026
H       -0.82094535       0.70149119       1.72380561
H       -0.38924737       2.04551471       0.61982630
12
Frame=2 idx=003330 GeodesicLength=0.23693063563962502 rxn_smarts="[C:1](#[C:2][C:3]1([H:8])[C:4]([H:9])([H:10])[O:5][C:6]1([H:11])[H:12])[H:7]>>[C:1](=[C:2]=[C:3]1[C:4]([H:9])([H:10])[O:5][C:6]1([H:11])[H:12])([H:7])[H:8]"
C        1.69939786      -0.83379134       0.25704170
C        1.70873638       0.29900264      -0.42143748
C        0.30020742       0.08663939      -0.09566548
C       -0.89570647      -0.23223414      -0.99690701
O       -1.72377296       0.61996712      -0.19349084
C       -0.64667056       0.98721568       0.68113309
H        2.31785633      -1.37191639       0.96221075
H        0.50157689      -1.19669753       0.50826016
H       -0.77588641       0.14572016      -2.01563640
H       -1.25316535      -1.26450856      -1.02129236
H       -0.84178220       0.71231509       1.72055514
H       -0.39079092       2.04828787       0.61522875
12
Frame=3 idx=003330 GeodesicLength=0.3553767470262851 rxn_smarts="[C:1](#[C:2][C:3]1([H:8])[C:4]([H:9])([H:10])[O:5][C:6]1([H:11])[H:12])[H:7]>>[C:1](=[C:2]=[C:3]1[C:4]([H:9])([H:10])[O:5][C:6]1([H:11])[H:12])([H:7])[H:8]"
C        1.72600232      -0.84997749       0.26111633
C        1.69116910       0.28173816      -0.40890959
C        0.28704049       0.07843367      -0.08638221
C       -0.90315767      -0.22498024      -0.99994542
O       -1.73164310       0.63275016      -0.20298529
C       -0.65734716       0.99230414       0.67816050
H        2.37661160      -1.37171302       0.94856863
H        0.50899978      -1.21268405       0.52993722
H       -0.77207209       0.15337167      -2.01722925
H       -1.26975557      -1.25386895      -1.02996134
H       -0.86364660       0.72360817       1.71702874
H       -0.39220111       2.05101780       0.61060167
12
Frame=4 idx=003330 GeodesicLength=0.473802663364125 rxn_smarts="[C:1](#[C:2][C:3]1([H:8])[C:4]([H:9])([H:10])[O:5][C:6]1([H:11])[H:12])[H:7]>>[C:1](=[C:2]=[C:3]1[C:4]([H:9])([H:10])[O:5][C:6]1([H:11])[H:12])([H:7])[H:8]"
C        1.75326166      -0.86649910       0.26538494
C        1.67316047       0.26323727      -0.39474647
C        0.27302442       0.06980618      -0.07649867
C       -0.91072673      -0.21763055      -1.00305100
O       -1.73957336       0.64614109      -0.21314098
C       -0.66851049       0.99757937       0.67508485
H        2.43716455      -1.37110302       0.93210792
H        0.51658273      -1.22858336       0.55328051
H       -0.76752469       0.16084149      -2.01874360
H       -1.28677282      -1.24289370      -1.03882356
H       -0.88662504       0.73542053       1.71319462
H       -0.39346069       2.05368380       0.60595142
12
Frame=5 idx=003330 GeodesicLength=0.5922028639065009 rxn_smarts="[C:1](#[C:2][C:3]1([H:8])[C:4]([H:9])([H:10])[O:5][C:6]1([H:11])[H:12])[H:7]>>[C:1](=[C:2]=[C:3]1[C:4]([H:9])([H:10])[O:5][C:6]1([H:11])[H:12])([H:7])[H:8]"
C        1.78118762      -0.88334624       0.26991009
C        1.65465176       0.24339292      -0.37877890
C        0.25808967       0.06070955      -0.06593910
C       -0.91837615      -0.21019249      -1.00622595
O       -1.74752140       0.66016719      -0.22402223
C       -0.68018516       1.00304588       0.67190054
H        2.49950976      -1.37002075       0.91242363
H        0.52433164      -1.24435303       0.57849862
H       -0.76212250       0.16809562      -2.02014749
H       -1.30421024      -1.23156326      -1.04792446
H       -0.91081033       0.74780647       1.70901631
H       -0.39454468       2.05625814       0.60128895
12
Frame=6 idx=003330 GeodesicLength=0.7105671454856246 rxn_smarts="[C:1](#[C:2][C:3]1([H:8])[C:4]([H:9])([H:10])[O:5][C:6]1([H:11])[H:12])[H:7]>>[C:1](=[C:2]=[C:3]1[C:4]([H:9])([H:10])[O:5][C:6]1([H:11])[H:12])([H:7])[H:8]"
C        1.80979396      -0.90048673       0.27478517
C        1.63557698       0.22208158      -0.36083060
C        0.24216132       0.05108747      -0.05462274
C       -0.92606053      -0.20267537      -1.00947286
O       -1.75543466       0.67485244      -0.23569381
C       -0.69239042       1.00870375       0.66860217
H        2.56359352      -1.36837668       0.88906810
H        0.53225519      -1.25995624       0.60580611
H       -0.75573116       0.17509937      -2.02140103
H       -1.32205410      -1.21985694      -1.05732123
H       -0.93629079       0.76082220       1.70445220
H       -0.39541931       2.05870514       0.59662852
12
Frame=7 idx=003330 GeodesicLength=0.8288813746859233 rxn_smarts="[C:1](#[C:2][C:3]1([H:8])[C:4]([H:9])([H:10])[O:5][C:6]1([H:11])[H:12])[H:7]>>[C:1](=[C:2]=[C:3]1[C:4]([H:9])([H:10])[O:5][C:6]1([H:11])[H:12])([H:7])[H:8]"
C        1.83908755      -0.91786174       0.28013097
C        1.61586028       0.19916392      -0.34069519
C        0.22515832       0.04087402      -0.04245567
C       -0.93371708      -0.19509386      -1.01279090
O       -1.76324135       0.69021701      -0.24822861
C       -0.70514028       1.01454879       0.66518342
H        2.62930218      -1.36605525       0.86149818
H        0.54035240      -1.27535572       0.63544716
H       -0.74818577       0.18180805      -2.02244998
H       -1.34027548      -1.20775343      -1.06707794
H       -0.96316124       0.77452967       1.69945078
H       -0.39603952       2.06097854       0.59198778
12
Frame=8 idx=003330 GeodesicLength=0.9472228969969322 rxn_smarts="[C:1](#[C:2][C:3]1([H:8])[C:4]([H:9])([H:10])[O:5][C:6]1([H:11])[H:12])[H:7]>>[C:1](=[C:2]=[C:3]1[C:4]([H:9])([H:10])[O:5][C:6]1([H:11])[H:12])([H:7])[H:8]"
C        1.86910914      -0.93537924       0.28614784
C        1.59542208       0.17450467      -0.31811304
C        0.20699367       0.02999814      -0.02931479
C       -0.94127466      -0.18748484      -1.01621088
O       -1.77088279       0.70631353      -0.26173910
C       -0.71847209       1.02062275       0.66166161
H        2.69651473      -1.36304469       0.82899696
H        0.54867328      -1.29055143       0.66774215
H       -0.73931235       0.18814390      -2.02329467
H       -1.35881619      -1.19528502      -1.07730127
H       -0.99154896       0.78905134       1.69400485
H       -0.39640587       2.06311089       0.58742034
12
Frame=9 idx=003330 GeodesicLength=1.065302021229352 rxn_smarts="[C:1](#[C:2][C:3]1([H:8])[C:4]([H:9])([H:10])[O:5][C:6]1([H:11])[H:12])[H:7]>>[C:1](=[C:2]=[C:3]1[C:4]([H:9])([H:10])[O:5][C:6]1([H:11])[H:12])([H:7])[H:8]"
C        1.89982348      -0.95301672       0.29275820
C        1.57409373       0.14757356      -0.29345822
C        0.18758605       0.01820399      -0.01533273
C       -0.94875241      -0.17976318      -1.01968546
O       -1.77809100       0.72313848      -0.27606435
C       -0.73208632       1.02662760       0.65800899
H        2.76449084      -1.35779074       0.79231154
H        0.55703002      -1.30573543       0.70230282
H       -0.72909456       0.19424378      -2.02371450
H       -1.37790548      -1.18215777      -1.08807536
H       -1.02112892       0.80407306       1.68795057
H       -0.39596542       2.06460337       0.58299852
12
Frame=10 idx=003330 GeodesicLength=1.1833790362309506 rxn_smarts="[C:1](#[C:2][C:3]1([H:8])[C:4]([H:9])([H:10])[O:5][C:6]1([H:11])[H:12])[H:7]>>[C:1](=[C:2]=[C:3]1[C:4]([H:9])([H:10])[O:5][C:6]1([H:11])[H:12])([H:7])[H:8]"
C        1.93134689      -0.97050258       0.30039594
C        1.55181288       0.11833140      -0.26626437
C        0.16684959       0.00546886      -0.00031050
C       -0.95602813      -0.17202669      -1.02329474
O       -1.78485802       0.74073988      -0.29138671
C       -0.74609864       1.03272982       0.65427625
H        2.83308155      -1.35079437       0.75016172
H        0.56554348      -1.32093668       0.73965097
H       -0.71731602       0.19994280      -2.02380053
H       -1.39733317      -1.16854358      -1.09958054
H       -1.05209794       0.81990608       1.68136581
H       -0.39490247       2.06568507       0.57878670
12
Frame=11 idx=003330 GeodesicLength=1.3013085128041175 rxn_smarts="[C:1](#[C:2][C:3]1([H:8])[C:4]([H:9])([H:10])[O:5][C:6]1([H:11])[H:12])[H:7]>>[C:1](=[C:2]=[C:3]1[C:4]([H:9])([H:10])[O:5][C:6]1([H:11])[H:12])([H:7])[H:8]"
C        1.96367456      -0.98747100       0.30941054
C        1.52842392       0.08647022      -0.23648165
C        0.14469519      -0.00836351       0.01580259
C       -0.96297426      -0.16429539      -1.02699453
O       -1.79093359       0.75911799      -0.30772076
C       -0.76036723       1.03881219       0.65044652
H        2.90154423      -1.34145772       0.70200187
H        0.57407207      -1.33627866       0.77983874
H       -0.70373957       0.20516895      -2.02338696
H       -1.41705918      -1.15434241      -1.11187425
H       -1.08438637       0.83652091       1.67412850
H       -0.39294977       2.06611842       0.57482938
12
Frame=12 idx=003330 GeodesicLength=1.419058397475697 rxn_smarts="[C:1](#[C:2][C:3]1([H:8])[C:4]([H:9])([H:10])[O:5][C:6]1([H:11])[H:12])[H:7]>>[C:1](=[C:2]=[C:3]1[C:4]([H:9])([H:10])[O:5][C:6]1([H:11])[H:12])([H:7])[H:8]"
C        1.99690254      -1.00343455       0.32022500
C        1.50377051       0.05163243      -0.20418661
C        0.12105451      -0.02346357       0.03299903
C       -0.96949743      -0.15660220      -1.03078412
O       -1.79607276       0.77828567      -0.32504055
C       -0.77469342       1.04477100       0.64653369
H        2.96892523      -1.32911798       0.64752271
H        0.58250193      -1.35203490       0.82278876
H       -0.68824196       0.20984833      -2.02237749
H       -1.43705253      -1.13949000      -1.12507544
H       -1.11778061       0.85390255       1.66618530
H       -0.38981600       2.06570323       0.57120973
12
Frame=13 idx=003330 GeodesicLength=1.5366378569634656 rxn_smarts="[C:1](#[C:2][C:3]1([H:8])[C:4]([H:9])([H:10])[O:5][C:6]1([H:11])[H:12])[H:7]>>[C:1](=[C:2]=[C:3]1[C:4]([H:9])([H:10])[O:5][C:6]1([H:11])[H:12])([H:7])[H:8]"
C        2.03118450      -1.01772282       0.33326555
C        1.47771978       0.01344261      -0.16950641
C        0.09588458      -0.03999158       0.05123463
C       -0.97549029      -0.14900257      -1.03465668
O       -1.80000550       0.79823179      -0.34329001
C       -0.78883377       1.05049679       0.64255762
H        3.03400380      -1.31311585       0.58648269
H        0.59067539      -1.36853622       0.86836009
H       -0.67070537       0.21386814      -2.02066644
H       -1.45726217      -1.12393681      -1.13929569
H       -1.15200329       0.87204212       1.65749219
H       -0.38516767       2.06422439       0.56802246
12
Frame=14 idx=003330 GeodesicLength=1.6539562827566758 rxn_smarts="[C:1](#[C:2][C:3]1([H:8])[C:4]([H:9])([H:10])[O:5][C:6]1([H:11])[H:12])[H:7]>>[C:1](=[C:2]=[C:3]1[C:4]([H:9])([H:10])[O:5][C:6]1([H:11])[H:12])([H:7])[H:8]"
C        2.06672760      -1.02928525       0.34889889
C        1.45011223      -0.02839011      -0.13273387
C        0.06918481      -0.05806228       0.07038487
C       -0.98083519      -0.14155726      -1.03857908
O       -1.80240920       0.81890303      -0.36234495
C       -0.80247602       1.05584452       0.63852915
H        3.09514516      -1.29303405       0.51898608
H        0.59851546      -1.38618608       0.91622575
H       -0.65109252       0.21710521      -2.01814339
H       -1.47756770      -1.10765154      -1.15455406
H       -1.18661216       0.89086819       1.64800819
H       -0.37869245       2.06144562       0.56532242
12
Frame=15 idx=003330 GeodesicLength=1.7710982841117011 rxn_smarts="[C:1](#[C:2][C:3]1([H:8])[C:4]([H:9])([H:10])[O:5][C:6]1([H:11])[H:12])[H:7]>>[C:1](=[C:2]=[C:3]1[C:4]([H:9])([H:10])[O:5][C:6]1([H:11])[H:12])([H:7])[H:8]"
C        2.10369739      -1.03784861       0.36579567
C        1.42073580      -0.07499359      -0.09539148
C        0.04096719      -0.07812866       0.08974230
C       -0.98599737      -0.13421278      -1.04264644
O       -1.80297443       0.84049234      -0.38160767
C       -0.81472777       1.06049990       0.63452583
H        3.15080760      -1.26587446       0.44941071
H        0.60593068      -1.40617001       0.96491742
H       -0.63034898       0.21961612      -2.01494300
H       -1.49878631      -1.09030031      -1.17098328
H       -1.22010619       0.91010184       1.63795920
H       -0.36919762       2.05681823       0.56322074
12
Frame=16 idx=003330 GeodesicLength=1.8880335074499204 rxn_smarts="[C:1](#[C:2][C:3]1([H:8])[C:4]([H:9])([H:10])[O:5][C:6]1([H:11])[H:12])[H:7]>>[C:1](=[C:2]=[C:3]1[C:4]([H:9])([H:10])[O:5][C:6]1([H:11])[H:12])([H:7])[H:8]"
C        2.14187419      -1.04277503       0.38297880
C        1.38929066      -0.12734047      -0.05834258
C        0.01116885      -0.10049715       0.10888703
C       -0.99121379      -0.12697736      -1.04685668
O       -1.80129726       0.86320507      -0.40074753
C       -0.82491001       1.06426033       0.63055789
H        3.20008081      -1.22956186       0.38044481
H        0.61263433      -1.42949970       1.01356595
H       -0.60894666       0.22119759      -2.01112284
H       -1.52145559      -1.07158682      -1.18849704
H       -1.25145628       0.92970587       1.62744812
H       -0.35576926       2.04986952       0.56168407
