14
Frame=0 idx=011720 GeodesicLength=0.0 rxn_smarts="[C:1]([c:2]1[c:3]([H:11])[o:4][c:5]([H:12])[c:6]1[N:7]([H:13])[H:14])([H:8])([H:9])[H:10]>>[C:1]([C:2](=[C:3]([O-:4])[H:11])[C:6]1=[C:5]([H:12])[N+:7]1([H:13])[H:14])([H:8])([H:9])[H:10]"
C       -1.70026574       0.26251772       0.53717652
C       -0.43951954      -0.39377237       0.06791724
C       -0.29677143      -1.80309508      -0.19614676
O        0.76603480      -2.29952552      -0.55315433
C        1.91169017      -0.14081427      -0.80851067
C        0.72269632       0.21852179      -0.24999146
N        1.25117941       1.54563594      -0.21133207
H       -2.56168859      -0.05114581      -0.05720508
H       -1.62585043       1.34856739       0.45125811
H       -1.92291057       0.03185918       1.58219798
H       -1.19521396      -2.44023906      -0.09603575
H        2.76031557      -0.42285667      -0.18985503
H        1.30811028       1.98229953       0.69523398
H        1.02219365       2.16204725      -0.97155267
14
Frame=1 idx=011720 GeodesicLength=0.05007487739650133 rxn_smarts="[C:1]([c:2]1[c:3]([H:11])[o:4][c:5]([H:12])[c:6]1[N:7]([H:13])[H:14])([H:8])([H:9])[H:10]>>[C:1]([C:2](=[C:3]([O-:4])[H:11])[C:6]1=[C:5]([H:12])[N+:7]1([H:13])[H:14])([H:8])([H:9])[H:10]"
C       -1.70241687       0.26238546       0.54110198
C       -0.45067271      -0.39134135       0.04632445
C       -0.29981501      -1.79875284      -0.20886271
O        0.77106140      -2.28062562      -0.57365319
C        1.90941497      -0.15357654      -0.79170157
C        0.70932546       0.22615318      -0.27765139
N        1.25725298       1.54317488      -0.20756050
H       -2.57723239      -0.07210794      -0.02143570
H       -1.64121365       1.34730749       0.43243474
H       -1.89223773       0.04940275       1.59629733
H       -1.18630066      -2.44748984      -0.08847152
H        2.75762503      -0.42873342      -0.17098111
H        1.27048312       1.97977365       0.70078924
H        1.07472606       2.16443014      -0.97663005
14
Frame=2 idx=011720 GeodesicLength=0.09999239088169282 rxn_smarts="[C:1]([c:2]1[c:3]([H:11])[o:4][c:5]([H:12])[c:6]1[N:7]([H:13])[H:14])([H:8])([H:9])[H:10]>>[C:1]([C:2](=[C:3]([O-:4])[H:11])[C:6]1=[C:5]([H:12])[N+:7]1([H:13])[H:14])([H:8])([H:9])[H:10]"
C       -1.70405908       0.26241804       0.54440816
C       -0.46162279      -0.38882576       0.02466811
C       -0.30296259      -1.79434572      -0.22142175
O        0.77627595      -2.26238639      -0.59141306
C        1.90562526      -0.16596566      -0.77565293
C        0.69634219       0.23370931      -0.30563920
N        1.26245704       1.54017298      -0.20267057
H       -2.59086019      -0.09258592       0.01422314
H       -1.65694055       1.34565822       0.41337252
H       -1.86113492       0.06766444       1.60846116
H       -1.17711198      -2.45416302      -0.08079905
H        2.75476284      -0.43450806      -0.15489020
H        1.23242520       1.97702721       0.70522408
H        1.12680363       2.16613033      -0.97787042
14
Frame=3 idx=011720 GeodesicLength=0.14971232049477395 rxn_smarts="[C:1]([c:2]1[c:3]([H:11])[o:4][c:5]([H:12])[c:6]1[N:7]([H:13])[H:14])([H:8])([H:9])[H:10]>>[C:1]([C:2](=[C:3]([O-:4])[H:11])[C:6]1=[C:5]([H:12])[N+:7]1([H:13])[H:14])([H:8])([H:9])[H:10]"
C       -1.70523627       0.26260672       0.54720525
C       -0.47222728      -0.38632745       0.00354796
C       -0.30639850      -1.78986073      -0.23413133
O        0.78178078      -2.24490111      -0.60596093
C        1.90043542      -0.17803740      -0.76028184
C        0.68408202       0.24099834      -0.33280231
N        1.26675874       1.53666203      -0.19686455
H       -2.60244056      -0.11215019       0.04919328
H       -1.67272053       1.34365724       0.39468015
H       -1.83033407       0.08620135       1.61866064
H       -1.16798490      -2.46014258      -0.07364848
H        2.75234038      -0.43998871      -0.14206911
H        1.19443402       1.97456332       0.70821420
H        1.17751076       2.16671918      -0.97574294
14
Frame=4 idx=011720 GeodesicLength=0.19909866751365785 rxn_smarts="[C:1]([c:2]1[c:3]([H:11])[o:4][c:5]([H:12])[c:6]1[N:7]([H:13])[H:14])([H:8])([H:9])[H:10]>>[C:1]([C:2](=[C:3]([O-:4])[H:11])[C:6]1=[C:5]([H:12])[N+:7]1([H:13])[H:14])([H:8])([H:9])[H:10]"
C       -1.70603230       0.26288717       0.54976055
C       -0.48225384      -0.38401143      -0.01608719
C       -0.31026781      -1.78535130      -0.24717502
O        0.78778524      -2.22830203      -0.61641658
C        1.89403525      -0.18984811      -0.74547177
C        0.67282537       0.24780515      -0.35800405
N        1.27022870       1.53275019      -0.19052286
H       -2.61188921      -0.13023998       0.08265023
H       -1.68807349       1.34137954       0.37736366
H       -1.80092776       0.10423180       1.62706809
H       -1.15951212      -2.46525340      -0.06833707
H        2.75102759      -0.44485004      -0.13298047
H        1.15712955       1.97304138       0.70928875
H        1.22592486       2.16576105      -0.97113628
14
Frame=5 idx=011720 GeodesicLength=0.2482676597021061 rxn_smarts="[C:1]([c:2]1[c:3]([H:11])[o:4][c:5]([H:12])[c:6]1[N:7]([H:13])[H:14])([H:8])([H:9])[H:10]>>[C:1]([C:2](=[C:3]([O-:4])[H:11])[C:6]1=[C:5]([H:12])[N+:7]1([H:13])[H:14])([H:8])([H:9])[H:10]"
C       -1.70661265       0.26328618       0.55187358
C       -0.49176017      -0.38184458      -0.03434697
C       -0.31441028      -1.78085607      -0.26007178
O        0.79393213      -2.21235178      -0.62418078
C        1.88664280      -0.20134429      -0.73125775
C        0.66248333       0.25420810      -0.38130554
N        1.27301635       1.52847845      -0.18346211
H       -2.61952736      -0.14717964       0.11449683
H       -1.70315548       1.33885408       0.36080426
H       -1.77300410       0.12205614       1.63371126
H       -1.15134519      -2.46973474      -0.06358970
H        2.75088133      -0.44932281      -0.12768077
H        1.12071693       1.97219891       0.70895166
H        1.27214236       2.16355205      -0.96394220
14
Frame=6 idx=011720 GeodesicLength=0.29706621078422246 rxn_smarts="[C:1]([c:2]1[c:3]([H:11])[o:4][c:5]([H:12])[c:6]1[N:7]([H:13])[H:14])([H:8])([H:9])[H:10]>>[C:1]([C:2](=[C:3]([O-:4])[H:11])[C:6]1=[C:5]([H:12])[N+:7]1([H:13])[H:14])([H:8])([H:9])[H:10]"
C       -1.70710944       0.26379895       0.55369679
C       -0.50063623      -0.37992330      -0.05082613
C       -0.31857908      -1.77658597      -0.27219650
O        0.80018092      -2.19711724      -0.62969417
C        1.87852407      -0.21255892      -0.71752256
C        0.65307160       0.26018575      -0.40253444
N        1.27523680       1.52400945      -0.17585015
H       -2.62554422      -0.16297480       0.14453641
H       -1.71789259       1.33619132       0.34510959
H       -1.74704236       0.13962117       1.63894875
H       -1.14374792      -2.47371319      -0.06005294
H        2.75205654      -0.45343330      -0.12611688
H        1.08541924       1.97229971       0.70721611
H        1.31606268       2.16020039      -0.95471390
14
Frame=7 idx=011720 GeodesicLength=0.3456026884341894 rxn_smarts="[C:1]([c:2]1[c:3]([H:11])[o:4][c:5]([H:12])[c:6]1[N:7]([H:13])[H:14])([H:8])([H:9])[H:10]>>[C:1]([C:2](=[C:3]([O-:4])[H:11])[C:6]1=[C:5]([H:12])[N+:7]1([H:13])[H:14])([H:8])([H:9])[H:10]"
C       -1.70749542       0.26424180       0.55553855
C       -0.50869824      -0.37833293      -0.06482983
C       -0.32280076      -1.77238245      -0.28351302
O        0.80667212      -2.18238204      -0.63198523
C        1.86981857      -0.22344678      -0.70387704
C        0.64458786       0.26559754      -0.42122698
N        1.27699073       1.51932944      -0.16814164
H       -2.63001583      -0.17726797       0.17218402
H       -1.73173702       1.33327894       0.33124642
H       -1.72363595       0.15601797       1.64305837
H       -1.13737336      -2.47681739      -0.05926555
H        2.75478994      -0.45669830      -0.12823475
H        1.05169211       1.97365644       0.70346649
H        1.35720526       2.15520572      -0.94441981
14
Frame=8 idx=011720 GeodesicLength=0.3937771418056135 rxn_smarts="[C:1]([c:2]1[c:3]([H:11])[o:4][c:5]([H:12])[c:6]1[N:7]([H:13])[H:14])([H:8])([H:9])[H:10]>>[C:1]([C:2](=[C:3]([O-:4])[H:11])[C:6]1=[C:5]([H:12])[N+:7]1([H:13])[H:14])([H:8])([H:9])[H:10]"
C       -1.70792892       0.26477108       0.55720603
C       -0.51615193      -0.37699350      -0.07709381
C       -0.32677250      -1.76847512      -0.29347203
O        0.81316309      -2.16824521      -0.63274824
C        1.86079668      -0.23406871      -0.69035277
C        0.63687769       0.27063987      -0.43808765
N        1.27836093       1.51459512      -0.16001723
H       -2.63337753      -0.19067987       0.19816972
H       -1.74523067       1.33029027       0.31804712
H       -1.70220244       0.17220637       1.64626913
H       -1.13176956      -2.47964487      -0.05999898
H        2.75877827      -0.45966415      -0.13372060
H        1.01916623       1.97593551       0.69851798
H        1.39629069       2.14933321      -0.93271867
14
Frame=9 idx=011720 GeodesicLength=0.4417691933706902 rxn_smarts="[C:1]([c:2]1[c:3]([H:11])[o:4][c:5]([H:12])[c:6]1[N:7]([H:13])[H:14])([H:8])([H:9])[H:10]>>[C:1]([C:2](=[C:3]([O-:4])[H:11])[C:6]1=[C:5]([H:12])[N+:7]1([H:13])[H:14])([H:8])([H:9])[H:10]"
C       -1.70839388       0.26534376       0.55866490
C       -0.52313298      -0.37582757      -0.08805382
C       -0.33062131      -1.76471601      -0.30250253
O        0.81951395      -2.15449996      -0.63242697
C        1.85157487      -0.24441888      -0.67664894
C        0.62984621       0.27535786      -0.45336007
N        1.27940231       1.50976380      -0.15141629
H       -2.63583915      -0.20335587       0.22276386
H       -1.75842821       1.32714510       0.30536787
H       -1.68233807       0.18817195       1.64861431
H       -1.12668912      -2.48219395      -0.06152514
H        2.76383064      -0.46236257      -0.14223697
H        0.98759784       1.97903447       0.69237460
H        1.43367691       2.14255787      -0.91961482
14
Frame=10 idx=011720 GeodesicLength=0.48961322156268267 rxn_smarts="[C:1]([c:2]1[c:3]([H:11])[o:4][c:5]([H:12])[c:6]1[N:7]([H:13])[H:14])([H:8])([H:9])[H:10]>>[C:1]([C:2](=[C:3]([O-:4])[H:11])[C:6]1=[C:5]([H:12])[N+:7]1([H:13])[H:14])([H:8])([H:9])[H:10]"
C       -1.70887097       0.26594556       0.56000331
C       -0.52970166      -0.37481798      -0.09795082
C       -0.33434616      -1.76111834      -0.31076837
O        0.82576171      -2.14116634      -0.63108909
C        1.84226306      -0.25453911      -0.66244450
C        0.62345487       0.27976428      -0.46724997
N        1.28009651       1.50489071      -0.14239522
H       -2.63753462      -0.21545694       0.24635975
H       -1.77141110       1.32383153       0.29311440
H       -1.66370591       0.20403164       1.65029486
H       -1.12222371      -2.48451503      -0.06409492
H        2.76976798      -0.46478478      -0.15346999
H        0.95680095       1.98299769       0.68495719
H        1.46964903       2.13493711      -0.90526663
14
Frame=11 idx=011720 GeodesicLength=0.5372232488191822 rxn_smarts="[C:1]([c:2]1[c:3]([H:11])[o:4][c:5]([H:12])[c:6]1[N:7]([H:13])[H:14])([H:8])([H:9])[H:10]>>[C:1]([C:2](=[C:3]([O-:4])[H:11])[C:6]1=[C:5]([H:12])[N+:7]1([H:13])[H:14])([H:8])([H:9])[H:10]"
C       -1.70939256       0.26653953       0.56128661
C       -0.53582856      -0.37397923      -0.10663624
C       -0.33798251      -1.75764977      -0.31837167
O        0.83195910      -2.12825168      -0.62842390
C        1.83296043      -0.26445070      -0.64753430
C        0.61769677       0.28383665      -0.47964547
N        1.28051381       1.50003419      -0.13305302
H       -2.63856965      -0.22679374       0.26862987
H       -1.78397749       1.32041889       0.28162865
H       -1.64658575       0.21936122       1.65143097
H       -1.11841696      -2.48659926      -0.06787930
H        2.77660782      -0.46685877      -0.16758493
H        0.92693903       1.98793918       0.67617293
H        1.50407653       2.12645350      -0.89002020
14
Frame=12 idx=011720 GeodesicLength=0.5847109787285723 rxn_smarts="[C:1]([c:2]1[c:3]([H:11])[o:4][c:5]([H:12])[c:6]1[N:7]([H:13])[H:14])([H:8])([H:9])[H:10]>>[C:1]([C:2](=[C:3]([O-:4])[H:11])[C:6]1=[C:5]([H:12])[N+:7]1([H:13])[H:14])([H:8])([H:9])[H:10]"
C       -1.70997918       0.26716166       0.56241417
C       -0.54160297      -0.37327182      -0.11444332
C       -0.34146954      -1.75432402      -0.32522443
O        0.83808754      -2.11571570      -0.62476605
C        1.82369564      -0.27417325      -0.63177880
C        0.61252903       0.28761153      -0.49083073
N        1.28062465       1.49516670      -0.12322610
H       -2.63905904      -0.23764317       0.28993924
H       -1.79634064       1.31686570       0.27041226
H       -1.63061857       0.23461236       1.65201159
H       -1.11516219      -2.48853068      -0.07247847
H        2.78415012      -0.46860615      -0.18474396
H        0.89786804       1.99356653       0.66628404
H        1.53727713       2.11728031      -0.87356944
14
Frame=13 idx=011720 GeodesicLength=0.6319411224899716 rxn_smarts="[C:1]([c:2]1[c:3]([H:11])[o:4][c:5]([H:12])[c:6]1[N:7]([H:13])[H:14])([H:8])([H:9])[H:10]>>[C:1]([C:2](=[C:3]([O-:4])[H:11])[C:6]1=[C:5]([H:12])[N+:7]1([H:13])[H:14])([H:8])([H:9])[H:10]"
C       -1.71070024       0.26781214       0.56331498
C       -0.54695905      -0.37271823      -0.12115769
C       -0.34476801      -1.75114485      -0.33120383
O        0.84413258      -2.10354196      -0.62010641
C        1.81451426      -0.28370167      -0.61505446
C        0.60796759       0.29108147      -0.50060891
N        1.28052952       1.49032990      -0.11287462
H       -2.63910285      -0.24780555       0.30973580
H       -1.80828670       1.31328160       0.25960408
H       -1.61626962       0.24944721       1.65202340
H       -1.11227185      -2.49036386      -0.07752893
H        2.79226768      -0.47002361      -0.20553003
H        0.86989503       1.99985336       0.65544159
H        1.56905164       2.10749404      -0.85605497
14
Frame=14 idx=011720 GeodesicLength=0.6789577878176454 rxn_smarts="[C:1]([c:2]1[c:3]([H:11])[o:4][c:5]([H:12])[c:6]1[N:7]([H:13])[H:14])([H:8])([H:9])[H:10]>>[C:1]([C:2](=[C:3]([O-:4])[H:11])[C:6]1=[C:5]([H:12])[N+:7]1([H:13])[H:14])([H:8])([H:9])[H:10]"
C       -1.71159317       0.26851078       0.56394619
C       -0.55197488      -0.37229616      -0.12703246
C       -0.34788002      -1.74811951      -0.33638608
O        0.85014150      -2.09173911      -0.61448875
C        1.80551634      -0.29308848      -0.59702391
C        0.60403060       0.29423906      -0.50910875
N        1.28022626       1.48552061      -0.10187427
H       -2.63884510      -0.25743349       0.32827895
H       -1.81997492       1.30964401       0.24893259
H       -1.60330096       0.26411630       1.65149842
H       -1.10970883      -2.49213279      -0.08288056
H        2.80083386      -0.47106881      -0.23029974
H        0.84285776       2.00670556       0.64376118
H        1.59967157       2.09714203      -0.83732281
14
Frame=15 idx=011720 GeodesicLength=0.7257848884777914 rxn_smarts="[C:1]([c:2]1[c:3]([H:11])[o:4][c:5]([H:12])[c:6]1[N:7]([H:13])[H:14])([H:8])([H:9])[H:10]>>[C:1]([C:2](=[C:3]([O-:4])[H:11])[C:6]1=[C:5]([H:12])[N+:7]1([H:13])[H:14])([H:8])([H:9])[H:10]"
C       -1.71267076       0.26927366       0.56422402
C       -0.55666335      -0.37199612      -0.13216561
C       -0.35077777      -1.74524606      -0.34074697
O        0.85611149      -2.08029064      -0.60804222
C        1.79675721      -0.30238899      -0.57722668
C        0.60075760       0.29706047      -0.51629801
N        1.27970044       1.48074253      -0.09009388
H       -2.63833879      -0.26657682       0.34557115
H       -1.83142398       1.30595181       0.23818478
H       -1.59167282       0.27872994       1.65039809
H       -1.10733784      -2.49385741      -0.08825853
H        2.80957026      -0.47168741      -0.25966486
H        0.81670387       2.01404937       0.63136276
H        1.62928444       2.08623569      -0.81724405
14
Frame=16 idx=011720 GeodesicLength=0.7724131958640015 rxn_smarts="[C:1]([c:2]1[c:3]([H:11])[o:4][c:5]([H:12])[c:6]1[N:7]([H:13])[H:14])([H:8])([H:9])[H:10]>>[C:1]([C:2](=[C:3]([O-:4])[H:11])[C:6]1=[C:5]([H:12])[N+:7]1([H:13])[H:14])([H:8])([H:9])[H:10]"
C       -1.71397574       0.27013377       0.56399121
C       -0.56101382      -0.37181540      -0.13661594
C       -0.35340377      -1.74253750      -0.34416578
O        0.86203619      -2.06916171      -0.60100242
C        1.78832854      -0.31164790      -0.55509129
C        0.59825306       0.29952182      -0.52202466
N        1.27900842       1.47598714      -0.07724962
H       -2.63764748      -0.27531248       0.36156810
H       -1.84268704       1.30218236       0.22697980
H       -1.58142463       0.29351273       1.64859486
H       -1.10495168      -2.49559556      -0.09318656
H        2.81807770      -0.47189501      -0.29469747
H        0.79136816       2.02181959       0.61841847
H        1.65803208       2.07480815      -0.79551870
