15
Frame=0 idx=002230 GeodesicLength=0.0 rxn_smarts="[C:1]([C:2]([C:3]([C:4]([O:5][H:15])([H:13])[H:14])([H:11])[H:12])([H:9])[H:10])([H:6])([H:7])[H:8]>>[C:1]([C:2]([C:3]([C:4](=[O:5])[H:13])([H:12])[H:14])([H:9])[H:10])([H:6])([H:7])[H:8].[H:11][H:15]"
C       -1.92629485      -0.01222875      -0.34734860
C       -0.76249177       0.76967846       0.27193779
C        0.42542842      -0.10862607       0.45320080
C        1.77419529       0.22731669       0.03828647
O        2.62069871      -0.75055478      -0.04039048
H       -1.66591545      -0.37137220      -1.34284634
H       -2.18916753      -0.87625723       0.26517873
H       -2.80576691       0.62697637      -0.42649003
H       -0.50187302       1.61960238      -0.36263400
H       -1.08226081       1.15982813       1.24313557
H        0.66112326      -1.60743020      -0.71314881
H        0.36728252      -0.88161156       1.21531017
H        1.81169169       1.04519217      -0.70345232
H        1.76771397       0.76664126       1.07713134
H        1.50563647      -1.60715473      -0.62787029
15
Frame=1 idx=002230 GeodesicLength=0.09671773704423049 rxn_smarts="[C:1]([C:2]([C:3]([C:4]([O:5][H:15])([H:13])[H:14])([H:11])[H:12])([H:9])[H:10])([H:6])([H:7])[H:8]>>[C:1]([C:2]([C:3]([C:4](=[O:5])[H:13])([H:12])[H:14])([H:9])[H:10])([H:6])([H:7])[H:8].[H:11][H:15]"
C       -1.92714228      -0.00907299      -0.34523322
C       -0.76036678       0.77039099       0.26970182
C        0.42680693      -0.11178437       0.45139842
C        1.77599554       0.23175093       0.03444602
O        2.62069213      -0.74846449      -0.04489247
H       -1.66952836      -0.36812464      -1.34167334
H       -2.19012657      -0.87250761       0.26823970
H       -2.80672832       0.63047199      -0.42160423
H       -0.50215867       1.62084584      -0.36539027
H       -1.07587758       1.16425978       1.24079934
H        0.66170351      -1.61624747      -0.70338072
H        0.36496014      -0.88340432       1.21448876
H        1.81274061       1.04899495      -0.70769442
H        1.73892404       0.76395568       1.09119167
H        1.53010564      -1.62106427      -0.64039703
15
Frame=2 idx=002230 GeodesicLength=0.192867689670051 rxn_smarts="[C:1]([C:2]([C:3]([C:4]([O:5][H:15])([H:13])[H:14])([H:11])[H:12])([H:9])[H:10])([H:6])([H:7])[H:8]>>[C:1]([C:2]([C:3]([C:4](=[O:5])[H:13])([H:12])[H:14])([H:9])[H:10])([H:6])([H:7])[H:8].[H:11][H:15]"
C       -1.92788506      -0.00593206      -0.34320186
C       -0.75830836       0.77114463       0.26758544
C        0.42816114      -0.11480638       0.44990662
C        1.77777498       0.23623965       0.03087508
O        2.62041668      -0.74652069      -0.04967838
H       -1.67287795      -0.36477859      -1.34057678
H       -2.19098059      -0.86884266       0.27111687
H       -2.80762272       0.63388200      -0.41686983
H       -0.50246536       1.62217916      -0.36793509
H       -1.06973782       1.16865622       1.23852524
H        0.66215888      -1.62502318      -0.69315596
H        0.36254225      -0.88505226       1.21396204
H        1.81360893       1.05248421      -0.71211553
H        1.71041424       0.76117676       1.10489718
H        1.55480075      -1.63480680      -0.65333502
15
Frame=3 idx=002230 GeodesicLength=0.28868466480072336 rxn_smarts="[C:1]([C:2]([C:3]([C:4]([O:5][H:15])([H:13])[H:14])([H:11])[H:12])([H:9])[H:10])([H:6])([H:7])[H:8]>>[C:1]([C:2]([C:3]([C:4](=[O:5])[H:13])([H:12])[H:14])([H:9])[H:10])([H:6])([H:7])[H:8].[H:11][H:15]"
C       -1.92853654      -0.00279925      -0.34124830
C       -0.75631515       0.77193870       0.26558347
C        0.42948999      -0.11770134       0.44870613
C        1.77952761       0.24077140       0.02753993
O        2.61988819      -0.74470986      -0.05473241
H       -1.67599332      -0.36132561      -1.33955527
H       -2.19174210      -0.86525529       0.27381727
H       -2.80846104       0.63721795      -0.41226851
H       -0.50279318       1.62359971      -0.37027713
H       -1.06382912       1.17301909       1.23631370
H        0.66244035      -1.63373541      -0.68251765
H        0.36002787      -0.88656294       1.21371153
H        1.81430065       1.05566720      -0.71672081
H        1.68216162       0.75831860       1.11828606
H        1.57983417      -1.64844295      -0.66663803
15
Frame=4 idx=002230 GeodesicLength=0.3843432981871557 rxn_smarts="[C:1]([C:2]([C:3]([C:4]([O:5][H:15])([H:13])[H:14])([H:11])[H:12])([H:9])[H:10])([H:6])([H:7])[H:8]>>[C:1]([C:2]([C:3]([C:4](=[O:5])[H:13])([H:12])[H:14])([H:9])[H:10])([H:6])([H:7])[H:8].[H:11][H:15]"
C       -1.92910999       0.00033288      -0.33936581
C       -0.75438703       0.77277306       0.26369215
C        0.43079156      -0.12047730       0.44777927
C        1.78124678       0.24533319       0.02440658
O        2.61911989      -0.74302047      -0.06003587
H       -1.67890275      -0.35775322      -1.33860856
H       -2.19242178      -0.86173992       0.27634657
H       -2.80925531       0.64049200      -0.40777909
H       -0.50314333       1.62510663      -0.37242252
H       -1.05814081       1.17734933       1.23416662
H        0.66249577      -1.64235878      -0.67151104
H        0.35741464      -0.88794445       1.21371831
H        1.81481786       1.05854810      -0.72151832
H        1.65414232       0.75539440       1.13138770
H        1.60533218      -1.66203544      -0.68025599
15
Frame=5 idx=002230 GeodesicLength=0.48014338912893906 rxn_smarts="[C:1]([C:2]([C:3]([C:4]([O:5][H:15])([H:13])[H:14])([H:11])[H:12])([H:9])[H:10])([H:6])([H:7])[H:8]>>[C:1]([C:2]([C:3]([C:4](=[O:5])[H:13])([H:12])[H:14])([H:9])[H:10])([H:6])([H:7])[H:8].[H:11][H:15]"
C       -1.92962059       0.00347589      -0.33754744
C       -0.75252505       0.77364854       0.26191054
C        0.43206312      -0.12314222       0.44710774
C        1.78292245       0.24990957       0.02143408
O        2.61813312      -0.74144031      -0.06554184
H       -1.68164064      -0.35403581      -1.33773931
H       -2.19302998      -0.85829190       0.27870453
H       -2.81001959       0.64371894      -0.40337276
H       -0.50351840       1.62670176      -0.37437158
H       -1.05266293       1.18164493       1.23209030
H        0.66223391      -1.65087550      -0.66016633
H        0.35470074      -0.88920664       1.21396131
H        1.81515838       1.06111652      -0.72653421
H        1.62632291       0.75242179       1.14422605
H        1.63148255      -1.67564556      -0.69416106
15
Frame=6 idx=002230 GeodesicLength=0.5761429095073566 rxn_smarts="[C:1]([C:2]([C:3]([C:4]([O:5][H:15])([H:13])[H:14])([H:11])[H:12])([H:9])[H:10])([H:6])([H:7])[H:8]>>[C:1]([C:2]([C:3]([C:4](=[O:5])[H:13])([H:12])[H:14])([H:9])[H:10])([H:6])([H:7])[H:8].[H:11][H:15]"
C       -1.93008160       0.00663776      -0.33578540
C       -0.75073183       0.77456735       0.26023728
C        0.43329929      -0.12570116       0.44668284
C        1.78454578       0.25448571       0.01859655
O        2.61693314      -0.73996910      -0.07121555
H       -1.68423194      -0.35016168      -1.33694439
H       -2.19357800      -0.85490419       0.28089809
H       -2.81076578       0.64691022      -0.39903096
H       -0.50392013       1.62838459      -0.37612947
H       -1.04739020       1.18591123       1.23008676
H        0.66158650      -1.65926873      -0.64850838
H        0.35187902      -0.89035525       1.21442989
H        1.81532153       1.06336148      -0.73178036
H        1.59868529       0.74941091       1.15681493
H        1.65844894      -1.68930915      -0.70835182
15
Frame=7 idx=002230 GeodesicLength=0.6723991241341244 rxn_smarts="[C:1]([C:2]([C:3]([C:4]([O:5][H:15])([H:13])[H:14])([H:11])[H:12])([H:9])[H:10])([H:6])([H:7])[H:8]>>[C:1]([C:2]([C:3]([C:4](=[O:5])[H:13])([H:12])[H:14])([H:9])[H:10])([H:6])([H:7])[H:8].[H:11][H:15]"
C       -1.93050572       0.00982742      -0.33407292
C       -0.74901002       0.77553300       0.25867102
C        0.43449480      -0.12815721       0.44649781
C        1.78610543       0.25904152       0.01586076
O        2.61552185      -0.73861295      -0.07702027
H       -1.68670114      -0.34611773      -1.33622150
H       -2.19407710      -0.85156930       0.28293342
H       -2.81150493       0.65007809      -0.39473614
H       -0.50434986       1.63015587      -0.37770119
H       -1.04231835       1.19015515       1.22815748
H        0.66047519      -1.66753922      -0.63653418
H        0.34894256      -0.89139164       1.21511800
H        1.81530653       1.06527393      -0.73727285
H        1.57120596       0.74636800       1.16917811
H        1.68641481      -1.70304493      -0.72285757
15
Frame=8 idx=002230 GeodesicLength=0.76902261875781 rxn_smarts="[C:1]([C:2]([C:3]([C:4]([O:5][H:15])([H:13])[H:14])([H:11])[H:12])([H:9])[H:10])([H:6])([H:7])[H:8]>>[C:1]([C:2]([C:3]([C:4](=[O:5])[H:13])([H:12])[H:14])([H:9])[H:10])([H:6])([H:7])[H:8].[H:11][H:15]"
C       -1.93090911       0.01305509      -0.33239976
C       -0.74736399       0.77655012       0.25720946
C        0.43563972      -0.13051520       0.44655079
C        1.78758868       0.26355243       0.01319897
O        2.61389325      -0.73739106      -0.08290748
H       -1.68907711      -0.34189443      -1.33556340
H       -2.19454334      -0.84827510       0.28482357
H       -2.81225061       0.65323690      -0.39046971
H       -0.50480784       1.63201286      -0.37909793
H       -1.03744412       1.19439116       1.22630046
H        0.65879793      -1.67568517      -0.62423930
H        0.34587658      -0.89231477       1.21602813
H        1.81511261       1.06682420      -0.74303004
H        1.54386108       0.74329212       1.18133231
H        1.71562627      -1.71683915      -0.73773607
15
Frame=9 idx=002230 GeodesicLength=0.8662951044375078 rxn_smarts="[C:1]([C:2]([C:3]([C:4]([O:5][H:15])([H:13])[H:14])([H:11])[H:12])([H:9])[H:10])([H:6])([H:7])[H:8]>>[C:1]([C:2]([C:3]([C:4](=[O:5])[H:13])([H:12])[H:14])([H:9])[H:10])([H:6])([H:7])[H:8].[H:11][H:15]"
C       -1.93131184       0.01632466      -0.33074458
C       -0.74580054       0.77762614       0.25584274
C        0.43671055      -0.13278027       0.44686761
C        1.78897367       0.26796414       0.01061246
O        2.61203367      -0.73638854      -0.08870035
H       -1.69139034      -0.33751590      -1.33494263
H       -2.19500268      -0.84499890       0.28661414
H       -2.81301699       0.65640025      -0.38622025
H       -0.50528445       1.63393195      -0.38036400
H       -1.03276702       1.19867060       1.22448887
H        0.65639147      -1.68372067      -0.61154726
H        0.34264171      -0.89310042       1.21721013
H        1.81474721       1.06792014      -0.74906182
H        1.51663019       0.74018683       1.19326666
H        1.74644538      -1.73052004      -0.75332174
15
Frame=10 idx=002230 GeodesicLength=0.9639999544247357 rxn_smarts="[C:1]([C:2]([C:3]([C:4]([O:5][H:15])([H:13])[H:14])([H:11])[H:12])([H:9])[H:10])([H:6])([H:7])[H:8]>>[C:1]([C:2]([C:3]([C:4](=[O:5])[H:13])([H:12])[H:14])([H:9])[H:10])([H:6])([H:7])[H:8].[H:11][H:15]"
C       -1.93172694       0.01965521      -0.32911011
C       -0.74432410       0.77876499       0.25457705
C        0.43770254      -0.13495737       0.44743498
C        1.79024712       0.27226122       0.00804448
O        2.60992436      -0.73559555      -0.09445705
H       -1.69366236      -0.33294577      -1.33436876
H       -2.19547059      -0.84173040       0.28828908
H       -2.81381328       0.65959102      -0.38197641
H       -0.50578494       1.63592841      -0.38148002
H       -1.02828700       1.20298149       1.22274006
H        0.65319039      -1.69168365      -0.59842743
H        0.33923843      -0.89375523       1.21864914
H        1.81419838       1.06857687      -0.75539755
H        1.48949030       0.73705119       1.20502858
H        1.77907770      -1.74414243      -0.76954603
15
Frame=11 idx=002230 GeodesicLength=1.062047523559033 rxn_smarts="[C:1]([C:2]([C:3]([C:4]([O:5][H:15])([H:13])[H:14])([H:11])[H:12])([H:9])[H:10])([H:6])([H:7])[H:8]>>[C:1]([C:2]([C:3]([C:4](=[O:5])[H:13])([H:12])[H:14])([H:9])[H:10])([H:6])([H:7])[H:8].[H:11][H:15]"
C       -1.93216902       0.02305839      -0.32748745
C       -0.74294087       0.77997426       0.25341158
C        0.43859929      -0.13704892       0.44826660
C        1.79138923       0.27640350       0.00547026
O        2.60753908      -0.73505819      -0.10012016
H       -1.69591232      -0.32818218      -1.33383059
H       -2.19596786      -0.83845053       0.28986493
H       -2.81464901       0.66282775      -0.37773338
H       -0.50630575       1.63799817      -0.38245902
H       -1.02400703       1.20734855       1.22104758
H        0.64907953      -1.69959977      -0.58480419
H        0.33564282      -0.89426405       1.22037336
H        1.81345970       1.06874788      -0.76205761
H        1.46242001       0.73388344       1.21663778
H        1.81382220      -1.75763832      -0.78657969
15
Frame=12 idx=002230 GeodesicLength=1.1603652208962134 rxn_smarts="[C:1]([C:2]([C:3]([C:4]([O:5][H:15])([H:13])[H:14])([H:11])[H:12])([H:9])[H:10])([H:6])([H:7])[H:8]>>[C:1]([C:2]([C:3]([C:4](=[O:5])[H:13])([H:12])[H:14])([H:9])[H:10])([H:6])([H:7])[H:8].[H:11][H:15]"
C       -1.93265779       0.02654922      -0.32586519
C       -0.74165825       0.78126204       0.25234393
C        0.43937852      -0.13906198       0.44938143
C        1.79237689       0.28033821       0.00286406
O        2.60483871      -0.73484251      -0.10562474
H       -1.69816581      -0.32322798      -1.33331165
H       -2.19652589      -0.83513101       0.29136667
H       -2.81553511       0.66613687      -0.37348912
H       -0.50683984       1.64013253      -0.38332118
H       -1.01992933       1.21180477       1.21940036
H        0.64392878      -1.70751233      -0.57058474
H        0.33182186      -0.89460955       1.22242152
H        1.81252528       1.06837033      -0.76906641
H        1.43539583       0.73067940       1.22811793
H        1.85104615      -1.77088800      -0.80463286
15
Frame=13 idx=002230 GeodesicLength=1.2589338406936341 rxn_smarts="[C:1]([C:2]([C:3]([C:4]([O:5][H:15])([H:13])[H:14])([H:11])[H:12])([H:9])[H:10])([H:6])([H:7])[H:8]>>[C:1]([C:2]([C:3]([C:4](=[O:5])[H:13])([H:12])[H:14])([H:9])[H:10])([H:6])([H:7])[H:8].[H:11][H:15]"
C       -1.93321915       0.03014657      -0.32423044
C       -0.74048554       0.78263683       0.25136887
C        0.44001065      -0.14100940       0.45080465
C        1.79318023       0.28399212       0.00020844
O        2.60178727      -0.73503614      -0.11086083
H       -1.70045853      -0.31808642      -1.33279365
H       -2.19718592      -0.83173602       0.29282425
H       -2.81648552       0.66955307      -0.36924104
H       -0.50737577       1.64231654      -0.38409680
H       -1.01605658       1.21639241       1.21778125
H        0.63756238      -1.71548552      -0.55561375
H        0.32773124      -0.89476815       1.22485035
H        1.81139031       1.06734783      -0.77645127
H        1.40839255       0.72744156       1.23947990
H        1.89121237      -1.78370528      -0.82402993
15
Frame=14 idx=002230 GeodesicLength=1.3574683127191591 rxn_smarts="[C:1]([C:2]([C:3]([C:4]([O:5][H:15])([H:13])[H:14])([H:11])[H:12])([H:9])[H:10])([H:6])([H:7])[H:8]>>[C:1]([C:2]([C:3]([C:4](=[O:5])[H:13])([H:12])[H:14])([H:9])[H:10])([H:6])([H:7])[H:8].[H:11][H:15]"
C       -1.93387601       0.03386790      -0.32256764
C       -0.73943152       0.78410896       0.25048264
C        0.44046571      -0.14289822       0.45256624
C        1.79377254       0.28729765      -0.00251986
O        2.59832015      -0.73574491      -0.11577972
H       -1.70281635      -0.31277418      -1.33225013
H       -2.19798938      -0.82822506       0.29427757
H       -2.81751076       0.67310999      -0.36499470
H       -0.50790262       1.64453650      -0.38481551
H       -1.01239078       1.22115759       1.21617163
H        0.62986307      -1.72355526      -0.53980665
H        0.32332225      -0.89471777       1.22771186
H        1.81004723       1.06559407      -0.78423839
H        1.38138566       0.72415419       1.25075132
H        1.93474081      -1.79591144      -0.84498867
15
Frame=15 idx=002230 GeodesicLength=1.455711493038047 rxn_smarts="[C:1]([C:2]([C:3]([C:4]([O:5][H:15])([H:13])[H:14])([H:11])[H:12])([H:9])[H:10])([H:6])([H:7])[H:8]>>[C:1]([C:2]([C:3]([C:4](=[O:5])[H:13])([H:12])[H:14])([H:9])[H:10])([H:6])([H:7])[H:8].[H:11][H:15]"
C       -1.93465789       0.03773589      -0.32086075
C       -0.73850656       0.78568844       0.24967901
C        0.44070652      -0.14474281       0.45470004
C        1.79412186       0.29017066      -0.00533735
O        2.59436899      -0.73709896      -0.12030834
H       -1.70527523      -0.30730744      -1.33165329
H       -2.19898980      -0.82454808       0.29577046
H       -2.81862356       0.67685237      -0.36075733
H       -0.50840549       1.64677346      -0.38551482
H       -1.00893325       1.22615298       1.21454841
H        0.62068575      -1.73178393      -0.52302405
H        0.31853594      -0.89443358       1.23107104
H        1.80848812       1.06299925      -0.79245526
H        1.35435236       0.72080851       1.26195032
H        1.98213222      -1.80726676      -0.86780809
15
Frame=16 idx=002230 GeodesicLength=1.5534502717590626 rxn_smarts="[C:1]([C:2]([C:3]([C:4]([O:5][H:15])([H:13])[H:14])([H:11])[H:12])([H:9])[H:10])([H:6])([H:7])[H:8]>>[C:1]([C:2]([C:3]([C:4](=[O:5])[H:13])([H:12])[H:14])([H:9])[H:10])([H:6])([H:7])[H:8].[H:11][H:15]"
C       -1.93560344       0.04178117      -0.31908754
C       -0.73772317       0.78738659       0.24895018
C        0.44068628      -0.14656376       0.45724201
C        1.79418922       0.29250489      -0.00826504
O        2.58985012      -0.73925563      -0.12436371
H       -1.70788557      -0.30170251      -1.33096766
H       -2.20025478      -0.82064100       0.29735925
H       -2.81984087       0.68083990      -0.35653132
H       -0.50886551       1.64900344      -0.38624072
H       -1.00568124       1.23144112       1.21288352
H        0.60985383      -1.74023703      -0.50512289
H        0.31329774      -0.89389178       1.23499802
H        1.80670183       1.05942089      -0.80114080
H        1.32726255       0.71738924       1.27309161
H        2.03401302      -1.81747552      -0.89280492
