17
Frame=0 idx=008048 GeodesicLength=0.0 rxn_smarts="[C:1]([C:2]12[C:3]([H:11])([H:12])[C:4]([O:5][H:13])([C:6]1([H:14])[H:15])[C:7]2([H:16])[H:17])([H:8])([H:9])[H:10]>>[C:1]([C@@:2]1([H:16])[C:3]([H:11])([H:12])[C@:4]([O:5][H:13])([C:7][H:17])[C:6]1([H:14])[H:15])([H:8])([H:9])[H:10]"
C       -2.15465536       0.05205607      -0.01849070
C       -0.65450947       0.08353223       0.08544188
C        0.30933297       0.36959451      -1.08323623
C        1.29500632      -0.08544899      -0.00872200
O        2.61614232      -0.37626731      -0.31746298
C        0.24080941      -1.10106340       0.47114351
C        1.13492297       0.99721161       1.07665975
H       -2.43850848      -0.69042888      -0.76875500
H       -2.61497674      -0.22938366       0.92928058
H       -2.55469612       1.01765014      -0.33059190
H        0.40389681       1.39014596      -1.45339553
H        0.15489856      -0.33527457      -1.90564821
H        3.07820102      -0.56912300       0.50364157
H        0.27187220      -1.39305451       1.52031581
H        0.10289649      -1.95436026      -0.19480306
H       -0.37664864       0.85324184       0.94536466
H        1.18601569       1.97097218       0.54925778
17
Frame=1 idx=008048 GeodesicLength=0.06317000370960976 rxn_smarts="[C:1]([C:2]12[C:3]([H:11])([H:12])[C:4]([O:5][H:13])([C:6]1([H:14])[H:15])[C:7]2([H:16])[H:17])([H:8])([H:9])[H:10]>>[C:1]([C@@:2]1([H:16])[C:3]([H:11])([H:12])[C@:4]([O:5][H:13])([C:7][H:17])[C:6]1([H:14])[H:15])([H:8])([H:9])[H:10]"
C       -2.15419029       0.04953116      -0.02111590
C       -0.65433838       0.08908550       0.08997560
C        0.30438902       0.37052350      -1.08545986
C        1.29203275      -0.08730044      -0.01478086
O        2.62021293      -0.36090900      -0.31102885
C        0.23925933      -1.10028769       0.47042983
C        1.14198328       0.99705700       1.06547693
H       -2.43468611      -0.69451432      -0.77107879
H       -2.61743231      -0.23311644       0.92498703
H       -2.55756300       1.01329212      -0.33489266
H        0.39826290       1.39032621      -1.45791177
H        0.15173012      -0.33418848      -1.90807309
H        3.07065852      -0.58113306       0.50959024
H        0.27265601      -1.39301196       1.51940295
H        0.10126508      -1.95479263      -0.19392499
H       -0.37890067       0.85646934       0.97315163
H        1.20466083       1.97296918       0.54525256
17
Frame=2 idx=008048 GeodesicLength=0.12630699418754146 rxn_smarts="[C:1]([C:2]12[C:3]([H:11])([H:12])[C:4]([O:5][H:13])([C:6]1([H:14])[H:15])[C:7]2([H:16])[H:17])([H:8])([H:9])[H:10]>>[C:1]([C@@:2]1([H:16])[C:3]([H:11])([H:12])[C@:4]([O:5][H:13])([C:7][H:17])[C:6]1([H:14])[H:15])([H:8])([H:9])[H:10]"
C       -2.15363505       0.04720590      -0.02371757
C       -0.65412945       0.09457242       0.09435824
C        0.29954706       0.37124771      -1.08778971
C        1.28906641      -0.08915155      -0.02074606
O        2.62402813      -0.34575795      -0.30414360
C        0.23768253      -1.09959612       0.46963347
C        1.14841064       0.99693731       1.05428399
H       -2.43096583      -0.69832719      -0.77336221
H       -2.61972855      -0.23658378       0.92075740
H       -2.56016354       1.00921664      -0.33909073
H        0.39275609       1.39027662      -1.46258483
H        0.14870647      -0.33334722      -1.91057205
H        3.06328826      -0.59212668       0.51505957
H        0.27332900      -1.39310548       1.51839148
H        0.09960153      -1.95532121      -0.19310671
H       -0.38090963       0.85907058       1.00137935
H        1.22311594       1.97478998       0.54124997
17
Frame=3 idx=008048 GeodesicLength=0.18941759847261525 rxn_smarts="[C:1]([C:2]12[C:3]([H:11])([H:12])[C:4]([O:5][H:13])([C:6]1([H:14])[H:15])[C:7]2([H:16])[H:17])([H:8])([H:9])[H:10]>>[C:1]([C@@:2]1([H:16])[C:3]([H:11])([H:12])[C@:4]([O:5][H:13])([C:7][H:17])[C:6]1([H:14])[H:15])([H:8])([H:9])[H:10]"
C       -2.15299642       0.04507518      -0.02629231
C       -0.65388395       0.09999373       0.09858216
C        0.29480140       0.37177340      -1.09023498
C        1.28611044      -0.09099155      -0.02662925
O        2.62758151      -0.33081511      -0.29684418
C        0.23608518      -1.09898103       0.46874760
C        1.15421706       0.99686426       1.04307829
H       -2.42735451      -0.70188355      -0.77559372
H       -2.62186449      -0.23978065       0.91660310
H       -2.56251300       1.00541452      -0.34319033
H        0.38736665       1.39000302      -1.46742536
H        0.14581949      -0.33274570      -1.91315252
H        3.05608593      -0.60214274       0.52013290
H        0.27389979      -1.39332664       1.51727489
H        0.09791479      -1.95593906      -0.19235447
H       -0.38265593       0.86104184       1.03003356
H        1.24138607       1.97644009       0.53726464
17
Frame=4 idx=008048 GeodesicLength=0.25251434789110117 rxn_smarts="[C:1]([C:2]12[C:3]([H:11])([H:12])[C:4]([O:5][H:13])([C:6]1([H:14])[H:15])[C:7]2([H:16])[H:17])([H:8])([H:9])[H:10]>>[C:1]([C@@:2]1([H:16])[C:3]([H:11])([H:12])[C@:4]([O:5][H:13])([C:7][H:17])[C:6]1([H:14])[H:15])([H:8])([H:9])[H:10]"
C       -2.15228122       0.04313467      -0.02883742
C       -0.65360383       0.10534775       0.10263867
C        0.29014695       0.37210551      -1.09280418
C        1.28316657      -0.09281217      -0.03244055
O        2.63086737      -0.31608638      -0.28916206
C        0.23447171      -1.09843703       0.46776612
C        1.15941367       0.99684817       1.03185879
H       -2.42386041      -0.70519674      -0.77776383
H       -2.62383945      -0.24270159       0.91253473
H       -2.56462476       1.00187878      -0.34719537
H        0.38208641       1.38950970      -1.47244265
H        0.14306292      -0.33238006      -1.91582176
H        3.04904763      -0.61120334       0.52488221
H        0.27437437      -1.39366957       1.51604757
H        0.09621226      -1.95664153      -0.19167406
H       -0.38411633       0.86238085       1.05910211
H        1.25947615       1.97792296       0.53331169
17
Frame=5 idx=008048 GeodesicLength=0.3156037554928845 rxn_smarts="[C:1]([C:2]12[C:3]([H:11])([H:12])[C:4]([O:5][H:13])([C:6]1([H:14])[H:15])[C:7]2([H:16])[H:17])([H:8])([H:9])[H:10]>>[C:1]([C@@:2]1([H:16])[C:3]([H:11])([H:12])[C@:4]([O:5][H:13])([C:7][H:17])[C:6]1([H:14])[H:15])([H:8])([H:9])[H:10]"
C       -2.15149614       0.04137863      -0.03135056
C       -0.65329108       0.11063378       0.10652023
C        0.28557834       0.37225009      -1.09550491
C        1.28023671      -0.09460416      -0.03819012
O        2.63388285      -0.30157044      -0.28113123
C        0.23284737      -1.09795757       0.46668380
C        1.16401375       0.99689923       1.02062290
H       -2.42048997      -0.70828236      -0.77986285
H       -2.62565322      -0.24534188       0.90856254
H       -2.56651335       0.99859987      -0.35111122
H        0.37690608       1.38880226      -1.47764484
H        0.14043049      -0.33224542      -1.91858577
H        3.04216245      -0.61934537       0.52937977
H        0.27475977      -1.39412621       1.51470469
H        0.09450300      -1.95742280      -0.19107040
H       -0.38526617       0.86308920       1.08856954
H        1.27738912       1.97924316       0.52940841
17
Frame=6 idx=008048 GeodesicLength=0.3786945152193459 rxn_smarts="[C:1]([C:2]12[C:3]([H:11])([H:12])[C:4]([O:5][H:13])([C:6]1([H:14])[H:15])[C:7]2([H:16])[H:17])([H:8])([H:9])[H:10]>>[C:1]([C@@:2]1([H:16])[C:3]([H:11])([H:12])[C@:4]([O:5][H:13])([C:7][H:17])[C:6]1([H:14])[H:15])([H:8])([H:9])[H:10]"
C       -2.15064887       0.03980147      -0.03383078
C       -0.65294825       0.11585023       0.11021905
C        0.28109061       0.37221257      -1.09834342
C        1.27732207      -0.09636028      -0.04388680
O        2.63662299      -0.28726664      -0.27278046
C        0.23121581      -1.09753674       0.46549682
C        1.16803276       0.99702536       1.00936828
H       -2.41724998      -0.71115590      -0.78188241
H       -2.62730707      -0.24769639       0.90469532
H       -2.56819247       0.99556846      -0.35494509
H        0.37181770       1.38788599      -1.48303799
H        0.13791679      -0.33233711      -1.92145005
H        3.03542471      -0.62659726       0.53368588
H        0.27506049      -1.39468867       1.51324324
H        0.09279432      -1.95827787      -0.19054681
H       -0.38607908       0.86317062       1.11842093
H        1.29512746       1.98040216       0.52557429
17
Frame=7 idx=008048 GeodesicLength=0.441794814024314 rxn_smarts="[C:1]([C:2]12[C:3]([H:11])([H:12])[C:4]([O:5][H:13])([C:6]1([H:14])[H:15])[C:7]2([H:16])[H:17])([H:8])([H:9])[H:10]>>[C:1]([C@@:2]1([H:16])[C:3]([H:11])([H:12])[C@:4]([O:5][H:13])([C:7][H:17])[C:6]1([H:14])[H:15])([H:8])([H:9])[H:10]"
C       -2.14974631       0.03839765      -0.03627714
C       -0.65257812       0.12099540       0.11372681
C        0.27667925       0.37199780      -1.10132623
C        1.27442311      -0.09807357      -0.04953898
O        2.63908782      -0.27317146      -0.26413696
C        0.22958046      -1.09716923       0.46420149
C        1.17148371       0.99723424       0.99809332
H       -2.41414681      -0.71383218      -0.78381429
H       -2.62880145      -0.24975969       0.90094200
H       -2.56967501       0.99277509      -0.35870395
H        0.36681364       1.38676571      -1.48862842
H        0.13551787      -0.33265161      -1.92441970
H        3.02882155      -0.63298960       0.53785633
H        0.27528044      -1.39534942       1.51166034
H        0.09109416      -1.95920226      -0.19010662
H       -0.38652496       0.86263062       1.14864282
H        1.31269065       1.98140251       0.52182917
17
Frame=8 idx=008048 GeodesicLength=0.504903792316992 rxn_smarts="[C:1]([C:2]12[C:3]([H:11])([H:12])[C:4]([O:5][H:13])([C:6]1([H:14])[H:15])[C:7]2([H:16])[H:17])([H:8])([H:9])[H:10]>>[C:1]([C@@:2]1([H:16])[C:3]([H:11])([H:12])[C@:4]([O:5][H:13])([C:7][H:17])[C:6]1([H:14])[H:15])([H:8])([H:9])[H:10]"
C       -2.14879565       0.03716070      -0.03869000
C       -0.65218336       0.12606873       0.11703703
C        0.27233982       0.37161164      -1.10445809
C        1.27154070      -0.09973755      -0.05515455
O        2.64127481      -0.25928056      -0.25522817
C        0.22794457      -1.09684857       0.46279608
C        1.17438526       0.99753244       0.98679532
H       -2.41118500      -0.71632755      -0.78565151
H       -2.63013846      -0.25152742       0.89730952
H       -2.57097448       0.99020901      -0.36239734
H        0.36188660       1.38544700      -1.49442045
H        0.13322896      -0.33318382      -1.92749840
H        3.02234181      -0.63855630       0.54194099
H        0.27542367      -1.39609911       1.50995527
H        0.08940959      -1.96019065      -0.18975073
H       -0.38657540       0.86147598       1.17921926
H        1.33007657       1.98224604       0.51819578
17
Frame=9 idx=008048 GeodesicLength=0.5680183603134303 rxn_smarts="[C:1]([C:2]12[C:3]([H:11])([H:12])[C:4]([O:5][H:13])([C:6]1([H:14])[H:15])[C:7]2([H:16])[H:17])([H:8])([H:9])[H:10]>>[C:1]([C@@:2]1([H:16])[C:3]([H:11])([H:12])[C@:4]([O:5][H:13])([C:7][H:17])[C:6]1([H:14])[H:15])([H:8])([H:9])[H:10]"
C       -2.14780484       0.03608298      -0.04107119
C       -0.65176816       0.13106867       0.12014328
C        0.26806804       0.37106001      -1.10774146
C        1.26867471      -0.10134540      -0.06073818
O        2.64317974      -0.24558881      -0.24607359
C        0.22631017      -1.09656842       0.46128099
C        1.17675928       0.99792151       0.97547477
H       -2.40836904      -0.71866055      -0.78738800
H       -2.63132145      -0.25299475       0.89380347
H       -2.57210610       0.98785761      -0.36603865
H        0.35702984       1.38393575      -1.50041567
H        0.13104721      -0.33392867      -1.93068808
H        3.01597947      -0.64333178       0.54596934
H        0.27549206      -1.39692712       1.50812967
H        0.08774754      -1.96123825      -0.18947754
H       -0.38620004       0.85972366       1.21012769
H        1.34728157       1.98293355       0.51470316
17
Frame=10 idx=008048 GeodesicLength=0.6311459996946633 rxn_smarts="[C:1]([C:2]12[C:3]([H:11])([H:12])[C:4]([O:5][H:13])([C:6]1([H:14])[H:15])[C:7]2([H:16])[H:17])([H:8])([H:9])[H:10]>>[C:1]([C@@:2]1([H:16])[C:3]([H:11])([H:12])[C@:4]([O:5][H:13])([C:7][H:17])[C:6]1([H:14])[H:15])([H:8])([H:9])[H:10]"
C       -2.14678040       0.03515897      -0.04342113
C       -0.65133506       0.13599390       0.12303714
C        0.26386062       0.37034708      -1.11118220
C        1.26582517      -0.10289378      -0.06629865
O        2.64480759      -0.23208937      -0.23670086
C        0.22467934      -1.09632443       0.45965366
C        1.17861786       0.99840820       0.96412783
H       -2.40570373      -0.72084526      -0.78901686
H       -2.63235175      -0.25415598       0.89043109
H       -2.57308030       0.98571126      -0.36963614
H        0.35223756       1.38223632      -1.50661887
H        0.12896938      -0.33488301      -1.93399333
H        3.00971571      -0.64734397       0.54999154
H        0.27548739      -1.39782647       1.50618204
H        0.08611417      -1.96234136      -0.18928954
H       -0.38536168       0.85738113       1.24136260
H        1.36429812       1.98346678       0.51137167
17
Frame=11 idx=008048 GeodesicLength=0.6942844496466491 rxn_smarts="[C:1]([C:2]12[C:3]([H:11])([H:12])[C:4]([O:5][H:13])([C:6]1([H:14])[H:15])[C:7]2([H:16])[H:17])([H:8])([H:9])[H:10]>>[C:1]([C@@:2]1([H:16])[C:3]([H:11])([H:12])[C@:4]([O:5][H:13])([C:7][H:17])[C:6]1([H:14])[H:15])([H:8])([H:9])[H:10]"
C       -2.14572981       0.03438145      -0.04574229
C       -0.65088786       0.14084430       0.12571190
C        0.25971391       0.36947831      -1.11478364
C        1.26299140      -0.10437803      -0.07184211
O        2.64616120      -0.21877375      -0.22713510
C        0.22305332      -1.09611044       0.45791454
C        1.17998036       0.99899548       0.95275256
H       -2.40319203      -0.72289911      -0.79053272
H       -2.63323239      -0.25500643       0.88719708
H       -2.57391044       0.98375743      -0.37320321
H        0.34750378       1.38035440      -1.51303204
H        0.12699274      -0.33604235      -1.93741652
H        3.00353559      -0.65062793       0.55404244
H        0.27541079      -1.39878698       1.50411424
H        0.08451513      -1.96349515      -0.18918509
H       -0.38402365       0.85446147       1.27291220
H        1.38111797       1.98384734       0.50822776
17
Frame=12 idx=008048 GeodesicLength=0.7574308692163179 rxn_smarts="[C:1]([C:2]12[C:3]([H:11])([H:12])[C:4]([O:5][H:13])([C:6]1([H:14])[H:15])[C:7]2([H:16])[H:17])([H:8])([H:9])[H:10]>>[C:1]([C@@:2]1([H:16])[C:3]([H:11])([H:12])[C@:4]([O:5][H:13])([C:7][H:17])[C:6]1([H:14])[H:15])([H:8])([H:9])[H:10]"
C       -2.14465981       0.03374356      -0.04803764
C       -0.65043005       0.14561866       0.12816076
C        0.25562498       0.36845845      -1.11854862
C        1.26017304      -0.10579537      -0.07737459
O        2.64723983      -0.20563616      -0.21739616
C        0.22143294      -1.09592161       0.45606413
C        1.18086616       0.99968419       0.94134788
H       -2.40083699      -0.72483808      -0.79193114
H       -2.63396622      -0.25554131       0.88410538
H       -2.57460817       0.98198451      -0.37675271
H        0.34282373       1.37829485      -1.51965645
H        0.12511457      -0.33740246      -1.94095987
H        2.99742648      -0.65321096       0.55815053
H        0.27526221      -1.39979984       1.50192807
H        0.08295489      -1.96469607      -0.18916273
H       -0.38214744       0.85098054       1.30476575
H        1.39772985       1.98407711       0.50529740
17
Frame=13 idx=008048 GeodesicLength=0.820584884387109 rxn_smarts="[C:1]([C:2]12[C:3]([H:11])([H:12])[C:4]([O:5][H:13])([C:6]1([H:14])[H:15])[C:7]2([H:16])[H:17])([H:8])([H:9])[H:10]>>[C:1]([C@@:2]1([H:16])[C:3]([H:11])([H:12])[C@:4]([O:5][H:13])([C:7][H:17])[C:6]1([H:14])[H:15])([H:8])([H:9])[H:10]"
C       -2.14357726       0.03323873      -0.05031064
C       -0.64996563       0.15031691       0.13037607
C        0.25159102       0.36729178      -1.12248041
C        1.25736887      -0.10714309      -0.08290181
O        2.64804766      -0.19266711      -0.20750632
C        0.21981829      -1.09575255       0.45410335
C        1.18129285       1.00047571       0.92991183
H       -2.39864119      -0.72667780      -0.79320830
H       -2.63455641      -0.25575569       0.88115897
H       -2.57518536       0.98038076      -0.38029824
H        0.33819285       1.37606209      -1.52649413
H        0.12333314      -0.33896012      -1.94462561
H        2.99137220      -0.65512342       0.56234429
H        0.27504098      -1.40085544       1.49962604
H        0.08143773      -1.96594017      -0.18922023
H       -0.37969030       0.84695114       1.33691879
H        1.41412055       1.98415827       0.50260636
17
Frame=14 idx=008048 GeodesicLength=0.8837350249077915 rxn_smarts="[C:1]([C:2]12[C:3]([H:11])([H:12])[C:4]([O:5][H:13])([C:6]1([H:14])[H:15])[C:7]2([H:16])[H:17])([H:8])([H:9])[H:10]>>[C:1]([C@@:2]1([H:16])[C:3]([H:11])([H:12])[C@:4]([O:5][H:13])([C:7][H:17])[C:6]1([H:14])[H:15])([H:8])([H:9])[H:10]"
C       -2.14248873       0.03285972      -0.05256584
C       -0.64949829       0.15493979       0.13235256
C        0.24760957       0.36598288      -1.12658049
C        1.25457830      -0.10841902      -0.08842841
O        2.64858433      -0.17985853      -0.19748354
C        0.21820923      -1.09559774       0.45203463
C        1.18128165       1.00136867       0.91844321
H       -2.39660558      -0.72843452      -0.79436155
H       -2.63500653      -0.25564582       0.87835915
H       -2.57565399       0.97893385      -0.38385528
H        0.33360715       1.37366077      -1.53354535
H        0.12164612      -0.34071161      -1.94841435
H        2.98536054      -0.65639590       0.56664125
H        0.27474619      -1.40194364       1.49721216
H        0.07996673      -1.96722339      -0.18935364
H       -0.37661078       0.84239112       1.36936146
H        1.43027409       1.98409336       0.50018404
17
Frame=15 idx=008048 GeodesicLength=0.9468746346467936 rxn_smarts="[C:1]([C:2]12[C:3]([H:11])([H:12])[C:4]([O:5][H:13])([C:6]1([H:14])[H:15])[C:7]2([H:16])[H:17])([H:8])([H:9])[H:10]>>[C:1]([C@@:2]1([H:16])[C:3]([H:11])([H:12])[C@:4]([O:5][H:13])([C:7][H:17])[C:6]1([H:14])[H:15])([H:8])([H:9])[H:10]"
C       -2.14140061       0.03260031      -0.05480815
C       -0.64903198       0.15948793       0.13408357
C        0.24367848       0.36453538      -1.13085104
C        1.25180014      -0.10962188      -0.09395916
O        2.64885122      -0.16720258      -0.18734533
C        0.21660483      -1.09545188       0.44986034
C        1.18085197       1.00236208       0.90694020
H       -2.39473139      -0.73012272      -0.79538905
H       -2.63532023      -0.25520738       0.87570624
H       -2.57602468       0.97763250      -0.38743856
H        0.32906337       1.37109453      -1.54081126
H        0.12005178      -0.34265429      -1.95232723
H        2.97937854      -0.65705424       0.57105879
H        0.27437608      -1.40305468       1.49469037
H        0.07854415      -1.96854209      -0.18955877
H       -0.37286450       0.83731393       1.40209105
H        1.44617283       1.98388505       0.49805799
17
Frame=16 idx=008048 GeodesicLength=1.0099943973010963 rxn_smarts="[C:1]([C:2]12[C:3]([H:11])([H:12])[C:4]([O:5][H:13])([C:6]1([H:14])[H:15])[C:7]2([H:16])[H:17])([H:8])([H:9])[H:10]>>[C:1]([C@@:2]1([H:16])[C:3]([H:11])([H:12])[C@:4]([O:5][H:13])([C:7][H:17])[C:6]1([H:14])[H:15])([H:8])([H:9])[H:10]"
C       -2.14031910       0.03245410      -0.05704295
C       -0.64857070       0.16396253       0.13556306
C        0.23979561       0.36295289      -1.13529393
C        1.24903308      -0.11075053      -0.09949864
O        2.64884941      -0.15468942      -0.17710968
C        0.21500388      -1.09530984       0.44758286
C        1.18002264       1.00345415       0.89540120
H       -2.39301926      -0.73175646      -0.79628978
H       -2.63550083      -0.25443696       0.87319977
H       -2.57630821       0.97646550      -0.39106298
H        0.32455789       1.36836700      -1.54829280
H        0.11854832      -0.34478549      -1.95636503
H        2.97341121      -0.65712564       0.57561589
H        0.27392846      -1.40417935       1.49206454
H        0.07717193      -1.96989259      -0.18983157
H       -0.36840322       0.83173274       1.43510645
H        1.46179891       1.98353737       0.49625358
