15
Frame=0 idx=011497 GeodesicLength=0.0 rxn_smarts="[O:1]([C@@:2]1([H:9])[C:3]([H:10])([H:11])[C@:4]2([C:5]([H:12])([H:13])[O:6]2)[C:7]1([H:14])[H:15])[H:8]>>[O:1]([C@@:2]1([H:9])[C:3]([H:10])([H:11])[C@@:4]([C:5][H:13])([O:6][H:12])[C:7]1([H:14])[H:15])[H:8]"
O       -1.91198424       1.05754160       0.72523771
C       -1.20448729      -0.15613441       0.76025986
C       -0.72178542      -0.66397212      -0.62332080
C        0.66580570      -0.12708858      -0.28232918
C        1.96384739      -0.33384890      -0.92599528
O        0.98494876       1.11250794      -0.96295386
C        0.27965119      -0.02961135       1.18953598
H       -1.40649194       1.70154556       0.22209217
H       -1.81863953      -0.84337656       1.33920636
H       -1.21289148      -0.24403237      -1.50098319
H       -0.72185017      -1.75299902      -0.68910928
H        2.07347955       1.05339248      -0.78728776
H        1.83368916      -0.76108815      -1.92657508
H        0.56257073       0.88352962       1.71305476
H        0.63413765      -0.89636568       1.74916760
15
Frame=1 idx=011497 GeodesicLength=0.05311760891018602 rxn_smarts="[O:1]([C@@:2]1([H:9])[C:3]([H:10])([H:11])[C@:4]2([C:5]([H:12])([H:13])[O:6]2)[C:7]1([H:14])[H:15])[H:8]>>[O:1]([C@@:2]1([H:9])[C:3]([H:10])([H:11])[C@@:4]([C:5][H:13])([O:6][H:12])[C:7]1([H:14])[H:15])[H:8]"
O       -1.92651225       1.04551588       0.73800461
C       -1.20385644      -0.15937951       0.76144843
C       -0.72489998      -0.65733578      -0.62640356
C        0.66457348      -0.12730944      -0.28516649
C        1.96176111      -0.34252415      -0.92668296
O        1.00204692       1.10401274      -0.97031680
C        0.28016059      -0.02137549       1.18607210
H       -1.43326397       1.69657513       0.23178221
H       -1.80560420      -0.85787200       1.34003653
H       -1.21590097      -0.22498783      -1.49821847
H       -0.73088222      -1.74536746      -0.70584747
H        2.09881715       1.04276307      -0.77446643
H        1.83449090      -0.77389675      -1.92561234
H        0.55586527       0.89945505       1.70020302
H        0.64320462      -0.87827346       1.75516764
15
Frame=2 idx=011497 GeodesicLength=0.10620983196938176 rxn_smarts="[O:1]([C@@:2]1([H:9])[C:3]([H:10])([H:11])[C@:4]2([C:5]([H:12])([H:13])[O:6]2)[C:7]1([H:14])[H:15])[H:8]>>[O:1]([C@@:2]1([H:9])[C:3]([H:10])([H:11])[C@@:4]([C:5][H:13])([O:6][H:12])[C:7]1([H:14])[H:15])[H:8]"
O       -1.94134558       1.03275395       0.75125189
C       -1.20314331      -0.16275349       0.76261302
C       -0.72802483      -0.65027079      -0.62964988
C        0.66336777      -0.12733940      -0.28808134
C        1.95972633      -0.35152607      -0.92713557
O        1.01952112       1.09526977      -0.97776364
C        0.28063513      -0.01272545       1.18245612
H       -1.46087499       1.69114305       0.24222185
H       -1.79196487      -0.87274770       1.34058709
H       -1.21879023      -0.20516673      -1.49529629
H       -0.74010921      -1.73706893      -0.72313772
H        2.12443307       1.03117535      -0.76176011
H        1.83534692      -0.78729834      -1.92427299
H        0.54881724       0.91586598       1.68683918
H        0.65240543      -0.85931119       1.76112839
15
Frame=3 idx=011497 GeodesicLength=0.15924519653103303 rxn_smarts="[O:1]([C@@:2]1([H:9])[C:3]([H:10])([H:11])[C@:4]2([C:5]([H:12])([H:13])[O:6]2)[C:7]1([H:14])[H:15])[H:8]>>[O:1]([C@@:2]1([H:9])[C:3]([H:10])([H:11])[C@@:4]([C:5][H:13])([O:6][H:12])[C:7]1([H:14])[H:15])[H:8]"
O       -1.95644185       1.01923895       0.76496102
C       -1.20233876      -0.16624719       0.76374533
C       -0.73115685      -0.64278170      -0.63305305
C        0.66219052      -0.12718035      -0.29107552
C        1.95773135      -0.36084373      -0.92735528
O        1.03734593       1.08626133      -0.98529156
C        0.28107186      -0.00366120       1.17868225
H       -1.48929410       1.68521231       0.25340598
H       -1.77771050      -0.88796295       1.34083720
H       -1.22155225      -0.18458826      -1.49219610
H       -0.74952785      -1.72808978      -0.74095502
H        2.15031001       1.01862265      -0.74912379
H        1.83623637      -0.80126097      -1.92256338
H        0.54141807       0.93274750       1.67294715
H        0.66171804      -0.83946660       1.76703476
15
Frame=4 idx=011497 GeodesicLength=0.21220169142103007 rxn_smarts="[O:1]([C@@:2]1([H:9])[C:3]([H:10])([H:11])[C@:4]2([C:5]([H:12])([H:13])[O:6]2)[C:7]1([H:14])[H:15])[H:8]>>[O:1]([C@@:2]1([H:9])[C:3]([H:10])([H:11])[C@@:4]([C:5][H:13])([O:6][H:12])[C:7]1([H:14])[H:15])[H:8]"
O       -1.97174649       1.00496465       0.77910432
C       -1.20143663      -0.16984697       0.76483789
C       -0.73429502      -0.63488207      -0.63660102
C        0.66104331      -0.12683356      -0.29415050
C        1.95577090      -0.37045414      -0.92735310
O        1.05548760       1.07698095      -0.99289665
C        0.28146495       0.00580823       1.17474940
H       -1.51847175       1.67874507       0.26531776
H       -1.76284276      -0.90346068       1.34076943
H       -1.22418624      -0.16328878      -1.48889442
H       -0.75913482      -1.71842885      -0.75925852
H        2.17642985       1.00510854      -0.73651797
H        1.83714814      -0.81574003      -1.92050232
H        0.53365939       0.95007216       1.65852342
H        0.67110958      -0.81874452       1.77287229
15
Frame=5 idx=011497 GeodesicLength=0.2650713077889073 rxn_smarts="[O:1]([C@@:2]1([H:9])[C:3]([H:10])([H:11])[C@:4]2([C:5]([H:12])([H:13])[O:6]2)[C:7]1([H:14])[H:15])[H:8]>>[O:1]([C@@:2]1([H:9])[C:3]([H:10])([H:11])[C@@:4]([C:5][H:13])([O:6][H:12])[C:7]1([H:14])[H:15])[H:8]"
O       -1.98719712       0.98994133       0.79364157
C       -1.20043447      -0.17353267       0.76588418
C       -0.73744136      -0.62659632      -0.64027500
C        0.65992694      -0.12630426      -0.29731022
C        1.95384750      -0.38032240      -0.92714898
O        1.07389663       1.06742800      -1.00057903
C        0.28180990       0.01566185       1.17066290
H       -1.54833738       1.67171786       0.27793429
H       -1.74738308      -0.91917120       1.34036308
H       -1.22669127      -0.14132430      -1.48537450
H       -0.76892429      -1.70809710      -0.77798298
H        2.20277010       0.99064864      -0.72391434
H        1.83808010      -0.83067523      -1.91811724
H        0.52552718       0.96779612       1.64358692
H        0.68055063      -0.79717033       1.77862935
15
Frame=6 idx=011497 GeodesicLength=0.3175910402515409 rxn_smarts="[O:1]([C@@:2]1([H:9])[C:3]([H:10])([H:11])[C@:4]2([C:5]([H:12])([H:13])[O:6]2)[C:7]1([H:14])[H:15])[H:8]>>[O:1]([C@@:2]1([H:9])[C:3]([H:10])([H:11])[C@@:4]([C:5][H:13])([O:6][H:12])[C:7]1([H:14])[H:15])[H:8]"
O       -2.00271727       0.97422103       0.80852062
C       -1.19930761      -0.17728421       0.76686490
C       -0.74056705      -0.61794868      -0.64407366
C        0.65884942      -0.12562260      -0.30054136
C        1.95189283      -0.39042939      -0.92671045
O        1.09251697       1.05756875      -1.00827699
C        0.28212308       0.02588165       1.16639644
H       -1.57880154       1.66414907       0.29117142
H       -1.73132008      -0.93504255       1.33962482
H       -1.22904387      -0.11875896      -1.48162336
H       -0.77882995      -1.69710978      -0.79710437
H        2.22915294       0.97530729      -0.71119598
H        1.83893257      -0.84601225      -1.91537062
H        0.51709252       0.98586340       1.62809805
H        0.69002704      -0.77478276       1.78422055
15
Frame=7 idx=011497 GeodesicLength=0.3699224373174159 rxn_smarts="[O:1]([C@@:2]1([H:9])[C:3]([H:10])([H:11])[C@:4]2([C:5]([H:12])([H:13])[O:6]2)[C:7]1([H:14])[H:15])[H:8]>>[O:1]([C@@:2]1([H:9])[C:3]([H:10])([H:11])[C@@:4]([C:5][H:13])([O:6][H:12])[C:7]1([H:14])[H:15])[H:8]"
O       -2.01827950       0.95778004       0.82373373
C       -1.19807098      -0.18109694       0.76779143
C       -0.74369254      -0.60894306      -0.64797938
C        0.65781056      -0.12477738      -0.30385752
C        1.94995656      -0.40075590      -0.92608330
O        1.11133453       1.04742548      -1.01603302
C        0.28238398       0.03646268       1.16197145
H       -1.60983896       1.65597991       0.30505219
H       -1.71468154      -0.95103488       1.33853955
H       -1.23125616      -0.09559627      -1.47762216
H       -0.78888726      -1.68546306      -0.81657073
H        2.25566045       0.95905902      -0.69838997
H        1.83976930      -0.86172891      -1.91232119
H        0.50828614       1.00426837       1.61208307
H        0.69950542      -0.75157909       1.78968585
15
Frame=8 idx=011497 GeodesicLength=0.4219895083837911 rxn_smarts="[O:1]([C@@:2]1([H:9])[C:3]([H:10])([H:11])[C@:4]2([C:5]([H:12])([H:13])[O:6]2)[C:7]1([H:14])[H:15])[H:8]>>[O:1]([C@@:2]1([H:9])[C:3]([H:10])([H:11])[C@@:4]([C:5][H:13])([O:6][H:12])[C:7]1([H:14])[H:15])[H:8]"
O       -2.03376826       0.94060348       0.83920267
C       -1.19669978      -0.18497166       0.76864580
C       -0.74683071      -0.59958263      -0.65197483
C        0.65679522      -0.12376265      -0.30724217
C        1.94800232      -0.41126191      -0.92525665
O        1.13030645       1.03700337      -1.02381366
C        0.28258426       0.04739234       1.15739384
H       -1.64131921       1.64712027       0.31949545
H       -1.69745627      -0.96708360       1.33708448
H       -1.23334052      -0.07187954      -1.47332946
H       -0.79911403      -1.67314132      -0.83633317
H        2.28223902       0.94193950      -0.68547531
H        1.84054345      -0.87776686      -1.90896798
H        0.49911785       1.02296657       1.59555399
H        0.70894022      -0.72757536       1.79501701
15
Frame=9 idx=011497 GeodesicLength=0.47400877044199147 rxn_smarts="[O:1]([C@@:2]1([H:9])[C:3]([H:10])([H:11])[C@:4]2([C:5]([H:12])([H:13])[O:6]2)[C:7]1([H:14])[H:15])[H:8]>>[O:1]([C@@:2]1([H:9])[C:3]([H:10])([H:11])[C@@:4]([C:5][H:13])([O:6][H:12])[C:7]1([H:14])[H:15])[H:8]"
O       -2.04924496       0.92260686       0.85503275
C       -1.19518582      -0.18891338       0.76943080
C       -0.74996318      -0.58982755      -0.65608871
C        0.65581352      -0.12257437      -0.31073276
C        1.94602701      -0.42200805      -0.92423846
O        1.14947315       1.02624396      -1.03163454
C        0.28273113       0.05874015       1.15261579
H       -1.67340073       1.63751473       0.33465443
H       -1.67954762      -0.98323768       1.33520470
H       -1.23526415      -0.04749602      -1.46871429
H       -0.80951226      -1.66007118      -0.85649272
H        2.30896145       0.92376694      -0.67232721
H        1.84124186      -0.89421903      -1.90528421
H        0.48949713       1.04205996       1.57838444
H        0.71837345      -0.70258533       1.80019000
15
Frame=10 idx=011497 GeodesicLength=0.5255950685087747 rxn_smarts="[O:1]([C@@:2]1([H:9])[C:3]([H:10])([H:11])[C@:4]2([C:5]([H:12])([H:13])[O:6]2)[C:7]1([H:14])[H:15])[H:8]>>[O:1]([C@@:2]1([H:9])[C:3]([H:10])([H:11])[C@@:4]([C:5][H:13])([O:6][H:12])[C:7]1([H:14])[H:15])[H:8]"
O       -2.06460372       0.90392829       0.87109334
C       -1.19353027      -0.19287409       0.77013331
C       -0.75308240      -0.57974615      -0.66028569
C        0.65487732      -0.12125720      -0.31429230
C        1.94400807      -0.43291889      -0.92301470
O        1.16873135       1.01518624      -1.03945126
C        0.28282817       0.07042344       1.14766589
H       -1.70585451       1.62726036       0.35031003
H       -1.66105519      -0.99939512       1.33297556
H       -1.23704024      -0.02261268      -1.46380273
H       -0.82001600      -1.64634628      -0.87690581
H        2.33558668       0.90477222      -0.65894710
H        1.84183494      -0.91095519      -1.90128611
H        0.47955375       1.06138871       1.56066900
H        0.72776205      -0.67685366       1.80513857
15
Frame=11 idx=011497 GeodesicLength=0.5770406133427596 rxn_smarts="[O:1]([C@@:2]1([H:9])[C:3]([H:10])([H:11])[C@:4]2([C:5]([H:12])([H:13])[O:6]2)[C:7]1([H:14])[H:15])[H:8]>>[O:1]([C@@:2]1([H:9])[C:3]([H:10])([H:11])[C@@:4]([C:5][H:13])([O:6][H:12])[C:7]1([H:14])[H:15])[H:8]"
O       -2.07980708       0.88445424       0.88742584
C       -1.19171651      -0.19688634       0.77075605
C       -0.75620555      -0.56929185      -0.66457761
C        0.65397152      -0.11977327      -0.31794437
C        1.94194952      -0.44400713      -0.92159880
O        1.18810927       1.00380609      -1.04728753
C        0.28286122       0.08249651       1.14252851
H       -1.73873776       1.61618345       0.36656794
H       -1.64190485      -1.01555871       1.33032156
H       -1.23866494       0.00286767      -1.45853794
H       -0.83068975      -1.63187574      -0.89762730
H        2.36225093       0.88478682      -0.64529705
H        1.84232152      -0.92802885      -1.89696753
H        0.46917049       1.08102793       1.54233320
H        0.73709198      -0.65020080       1.80990503
15
Frame=12 idx=011497 GeodesicLength=0.6283210490456136 rxn_smarts="[O:1]([C@@:2]1([H:9])[C:3]([H:10])([H:11])[C@:4]2([C:5]([H:12])([H:13])[O:6]2)[C:7]1([H:14])[H:15])[H:8]>>[O:1]([C@@:2]1([H:9])[C:3]([H:10])([H:11])[C@@:4]([C:5][H:13])([O:6][H:12])[C:7]1([H:14])[H:15])[H:8]"
O       -2.09486334       0.86410216       0.90405868
C       -1.18972487      -0.20096444       0.77129359
C       -0.75933377      -0.55840823      -0.66898224
C        0.65310604      -0.11812383      -0.32169468
C        1.93983022      -0.45532476      -0.91996513
O        1.20765078       0.99206725      -1.05513214
C        0.28283316       0.09500795       1.13717466
H       -1.77209986       1.60420822       0.38345298
H       -1.62200898      -1.03176891       1.32722215
H       -1.24012809       0.02903798      -1.45287812
H       -0.84154639      -1.61657759      -0.91871601
H        2.38893096       0.86374341      -0.63130396
H        1.84265412      -0.94550447      -1.89228425
H        0.45831735       1.10103004       1.52328976
H        0.74638268      -0.62252477       1.81446471
15
Frame=13 idx=011497 GeodesicLength=0.6794762452631181 rxn_smarts="[O:1]([C@@:2]1([H:9])[C:3]([H:10])([H:11])[C@:4]2([C:5]([H:12])([H:13])[O:6]2)[C:7]1([H:14])[H:15])[H:8]>>[O:1]([C@@:2]1([H:9])[C:3]([H:10])([H:11])[C@@:4]([C:5][H:13])([O:6][H:12])[C:7]1([H:14])[H:15])[H:8]"
O       -2.10975063       0.84280224       0.92105592
C       -1.18753066      -0.20512635       0.77174798
C       -0.76246940      -0.54705050      -0.67352709
C        0.65228535      -0.11630382      -0.32555171
C        1.93764176      -0.46691785      -0.91808754
O        1.22738850       0.97993847      -1.06300709
C        0.28272869       0.10801666       1.13158515
H       -1.80598040       1.59125175       0.40102064
H       -1.60127695      -1.04806197       1.32365862
H       -1.24141849       0.05599472      -1.44681106
H       -0.85261692      -1.60038799      -0.94024667
H        2.41562248       0.84156819      -0.61690280
H        1.84281813      -0.96345899      -1.88719706
H        0.44692026       1.12144973       1.50346130
H        0.75563827      -0.59371430       1.81880139
15
Frame=14 idx=011497 GeodesicLength=0.7305433174177516 rxn_smarts="[O:1]([C@@:2]1([H:9])[C:3]([H:10])([H:11])[C@:4]2([C:5]([H:12])([H:13])[O:6]2)[C:7]1([H:14])[H:15])[H:8]>>[O:1]([C@@:2]1([H:9])[C:3]([H:10])([H:11])[C@@:4]([C:5][H:13])([O:6][H:12])[C:7]1([H:14])[H:15])[H:8]"
O       -2.12446505       0.82039582       0.93838608
C       -1.18510694      -0.20939362       0.77208348
C       -0.76562342      -0.53512974      -0.67819306
C        0.65151356      -0.11430227      -0.32952287
C        1.93536587      -0.47884048      -0.91595303
O        1.24737376       0.96736504      -1.07090498
C        0.28254261       0.12159194       1.12572741
H       -1.84041374       1.57714467       0.41934530
H       -1.57960784      -1.06445095       1.31952350
H       -1.24253847       0.08384801      -1.44020411
H       -0.86392804      -1.58312975      -0.96223585
H        2.44233538       0.81813907      -0.60204664
H        1.84276951      -0.98196812      -1.88165669
H        0.43491411       1.14235349       1.48274248
H        0.76486871      -0.56362311       1.82290898
15
Frame=15 idx=011497 GeodesicLength=0.7814716319184697 rxn_smarts="[O:1]([C@@:2]1([H:9])[C:3]([H:10])([H:11])[C@:4]2([C:5]([H:12])([H:13])[O:6]2)[C:7]1([H:14])[H:15])[H:8]>>[O:1]([C@@:2]1([H:9])[C:3]([H:10])([H:11])[C@@:4]([C:5][H:13])([O:6][H:12])[C:7]1([H:14])[H:15])[H:8]"
O       -2.13885456       0.79706603       0.95598317
C       -1.18245534      -0.21372177       0.77232011
C       -0.76878154      -0.52276105      -0.68298023
C        0.65077561      -0.11213607      -0.33360188
C        1.93297309      -0.49097364      -0.91358677
O        1.26746598       0.95440501      -1.07878873
C        0.28227917       0.13564459       1.11963174
H       -1.87518189       1.56197986       0.43826564
H       -1.55710630      -1.08081130       1.31489747
H       -1.24346498       0.11239815      -1.43314072
H       -0.87542612      -1.56497802      -0.98458026
H        2.46892302       0.79359287      -0.58667258
H        1.84247301      -1.00087598      -1.87572795
H        0.42236956       1.16358838       1.46123641
H        0.77401128      -0.53241705       1.82674456
15
Frame=16 idx=011497 GeodesicLength=0.8323264067124728 rxn_smarts="[O:1]([C@@:2]1([H:9])[C:3]([H:10])([H:11])[C@:4]2([C:5]([H:12])([H:13])[O:6]2)[C:7]1([H:14])[H:15])[H:8]>>[O:1]([C@@:2]1([H:9])[C:3]([H:10])([H:11])[C@@:4]([C:5][H:13])([O:6][H:12])[C:7]1([H:14])[H:15])[H:8]"
O       -2.15290496       0.77267391       0.97388990
C       -1.17954670      -0.21812779       0.77244158
C       -0.77195532      -0.50985079      -0.68788013
C        0.65008338      -0.10978877      -0.33779862
C        1.93046385      -0.50337343      -0.91095498
O        1.28773069       0.94099605      -1.08666261
C        0.28192489       0.15024376       1.11324007
H       -1.91035954       1.54557618       0.45783824
H       -1.53365185      -1.09714665       1.30971302
H       -1.24420590       0.14177974      -1.42550475
H       -0.88715018      -1.54576520      -1.00732040
H        2.49539764       0.76779504      -0.57072222
H        1.84191200      -1.02026189      -1.86932587
H        0.40919676       1.18519144       1.43880486
H        0.78306524      -0.49994158       1.83024191
