11
Frame=0 idx=005881 GeodesicLength=0.0 rxn_smarts="[C:1]([n:2]1[c:3]([H:10])[c:4]([H:11])[n:5][n:6]1)([H:7])([H:8])[H:9]>>[C:1]([N:2]=[N+:6]=[N-:5])([H:7])([H:8])[H:9].[C:3](#[C:4][H:11])[H:10]"
C       -1.78064427      -0.18762697       0.07733671
N       -0.45974313       0.09524389      -0.45784305
C        1.20115064       0.90930618       0.58760059
C        2.15438792       0.26772486       0.16311440
N        1.26976431      -1.15833032      -1.17160940
N        0.18211016      -0.81866321      -1.01045837
H       -1.77762490      -1.03759342       0.76452557
H       -2.09443768       0.70311984       0.61836103
H       -2.50158132      -0.36918329      -0.72173945
H        0.64302601       1.64383881       1.12246678
H        3.16359231      -0.04783639       0.02824517
11
Frame=1 idx=005881 GeodesicLength=0.03389861862359028 rxn_smarts="[C:1]([n:2]1[c:3]([H:10])[c:4]([H:11])[n:5][n:6]1)([H:7])([H:8])[H:9]>>[C:1]([N:2]=[N+:6]=[N-:5])([H:7])([H:8])[H:9].[C:3](#[C:4][H:11])[H:10]"
C       -1.77555887      -0.18968106       0.08179705
N       -0.45949548       0.09760309      -0.46261601
C        1.19000933       0.90888726       0.58087060
C        2.14627488       0.26363525       0.15841754
N        1.27112654      -1.14976632      -1.17793962
N        0.17670961      -0.81510508      -1.02835356
H       -1.76195115      -1.04986447       0.75578351
H       -2.08890120       0.69063010       0.63973320
H       -2.50441104      -0.36050185      -0.71247701
H        0.64996866       1.67034249       1.09690660
H        3.15622871      -0.06617939       0.06787771
11
Frame=2 idx=005881 GeodesicLength=0.06752947843895674 rxn_smarts="[C:1]([n:2]1[c:3]([H:10])[c:4]([H:11])[n:5][n:6]1)([H:7])([H:8])[H:9]>>[C:1]([N:2]=[N+:6]=[N-:5])([H:7])([H:8])[H:9].[C:3](#[C:4][H:11])[H:10]"
C       -1.77097679      -0.19049129       0.08510209
N       -0.45857137       0.09893496      -0.46670954
C        1.17925006       0.90661035       0.57628243
C        2.13929996       0.26157099       0.15150786
N        1.27258608      -1.14498053      -1.17987445
N        0.17177873      -0.81406208      -1.04312953
H       -1.74906111      -1.05957442       0.74710888
H       -2.08379393       0.68038791       0.65777900
H       -2.50651211      -0.35120781      -0.70513605
H        0.65670813       1.69031915       1.07745847
H        3.14929235      -0.07750724       0.09961084
11
Frame=3 idx=005881 GeodesicLength=0.10104962114879215 rxn_smarts="[C:1]([n:2]1[c:3]([H:10])[c:4]([H:11])[n:5][n:6]1)([H:7])([H:8])[H:9]>>[C:1]([N:2]=[N+:6]=[N-:5])([H:7])([H:8])[H:9].[C:3](#[C:4][H:11])[H:10]"
C       -1.76650140      -0.19070959       0.08793352
N       -0.45739632       0.09991660      -0.47078756
C        1.16877942       0.90453740       0.57142486
C        2.13255276       0.25883465       0.14544048
N        1.27403357      -1.14155373      -1.18034159
N        0.16706670      -0.81408596      -1.05659298
H       -1.73710814      -1.06781410       0.73873644
H       -2.07884359       0.67123520       0.67407294
H       -2.50823805      -0.34203857      -0.69838223
H        0.66325751       1.70689615       1.06110272
H        3.14239754      -0.08521805       0.12739341
11
Frame=4 idx=005881 GeodesicLength=0.1346664187230309 rxn_smarts="[C:1]([n:2]1[c:3]([H:10])[c:4]([H:11])[n:5][n:6]1)([H:7])([H:8])[H:9]>>[C:1]([N:2]=[N+:6]=[N-:5])([H:7])([H:8])[H:9].[C:3](#[C:4][H:11])[H:10]"
C       -1.76175860      -0.19114977       0.09102794
N       -0.45636490       0.10120980      -0.47519386
C        1.15840668       0.90380065       0.56528850
C        2.12540676       0.25429519       0.14162081
N        1.27544737      -1.13689332      -1.18219233
N        0.16237185      -0.81355911      -1.07043364
H       -1.72445656      -1.07610401       0.73046290
H       -2.07357571       0.66156075       0.69067222
H       -2.50993149      -0.33342639      -0.69091421
H        0.67008950       1.72401566       1.04344267
H        3.13436511      -0.09374946       0.15621900
11
Frame=5 idx=005881 GeodesicLength=0.16843109090131786 rxn_smarts="[C:1]([n:2]1[c:3]([H:10])[c:4]([H:11])[n:5][n:6]1)([H:7])([H:8])[H:9]>>[C:1]([N:2]=[N+:6]=[N-:5])([H:7])([H:8])[H:9].[C:3](#[C:4][H:11])[H:10]"
C       -1.75624031      -0.19228582       0.09491753
N       -0.45570426       0.10334108      -0.48046739
C        1.14810561       0.90594037       0.55606609
C        2.11748429       0.24804302       0.13998411
N        1.27687624      -1.12909707      -1.18751317
N        0.15759278      -0.81143322      -1.08578254
H       -1.70945934      -1.08494444       0.72266407
H       -2.06750025       0.65057906       0.70845398
H       -2.51162149      -0.32628502      -0.68155481
H        0.67723746       1.74319157       1.02275763
H        3.12322927      -0.10704951       0.19047449
11
Frame=6 idx=005881 GeodesicLength=0.20196168755552493 rxn_smarts="[C:1]([n:2]1[c:3]([H:10])[c:4]([H:11])[n:5][n:6]1)([H:7])([H:8])[H:9]>>[C:1]([N:2]=[N+:6]=[N-:5])([H:7])([H:8])[H:9].[C:3](#[C:4][H:11])[H:10]"
C       -1.75140589      -0.19230017       0.09772253
N       -0.45449350       0.10445032      -0.48497027
C        1.13811472       0.90592515       0.54915522
C        2.11055600       0.24326236       0.13657058
N        1.27827669      -1.12489081      -1.18886130
N        0.15313955      -0.81168248      -1.09840063
H       -1.69733529      -1.09172763       0.71488305
H       -2.06223686       0.64167375       0.72336425
H       -2.51278672      -0.31832846      -0.67424105
H        0.68400066       1.75717991       1.00780143
H        3.11417065      -0.11356195       0.21697618
11
Frame=7 idx=005881 GeodesicLength=0.23535373740267929 rxn_smarts="[C:1]([n:2]1[c:3]([H:10])[c:4]([H:11])[n:5][n:6]1)([H:7])([H:8])[H:9]>>[C:1]([N:2]=[N+:6]=[N-:5])([H:7])([H:8])[H:9].[C:3](#[C:4][H:11])[H:10]"
C       -1.74693397      -0.19170536       0.09995499
N       -0.45299788       0.10500905      -0.48910467
C        1.12837511       0.90507664       0.54311071
C        2.10420099       0.23914861       0.13234098
N        1.27962920      -1.12257028      -1.18818744
N        0.14888178      -0.81324486      -1.10949165
H       -1.68679063      -1.09732808       0.70716597
H       -2.05744613       0.63388101       0.73665053
H       -2.51364489      -0.31001472      -0.66798252
H        0.69053408       1.76816845       0.99620743
H        3.10619234      -0.11642045       0.23933568
11
Frame=8 idx=005881 GeodesicLength=0.2686743377823139 rxn_smarts="[C:1]([n:2]1[c:3]([H:10])[c:4]([H:11])[n:5][n:6]1)([H:7])([H:8])[H:9]>>[C:1]([N:2]=[N+:6]=[N-:5])([H:7])([H:8])[H:9].[C:3](#[C:4][H:11])[H:10]"
C       -1.74261683      -0.19082959       0.10192628
N       -0.45137737       0.10531608      -0.49307412
C        1.11881381       0.90402735       0.53729133
C        2.09809515       0.23509701       0.12804977
N        1.28090991      -1.12109436      -1.18660827
N        0.14473822      -0.81541248      -1.11979849
H       -1.67705770      -1.10234900       0.69942493
H       -2.05285343       0.62652042       0.74916694
H       -2.51431184      -0.30152738      -0.66218510
H        0.69702340       1.77766036       0.98617995
H        3.09863668      -0.11740841       0.25962678
11
Frame=9 idx=005881 GeodesicLength=0.30198340732960965 rxn_smarts="[C:1]([n:2]1[c:3]([H:10])[c:4]([H:11])[n:5][n:6]1)([H:7])([H:8])[H:9]>>[C:1]([N:2]=[N+:6]=[N-:5])([H:7])([H:8])[H:9].[C:3](#[C:4][H:11])[H:10]"
C       -1.73836966      -0.18980816       0.10376182
N       -0.44970261       0.10549772      -0.49697569
C        1.10938985       0.90305962       0.53142298
C        2.09209807       0.23087283       0.12399110
N        1.28210825      -1.12007037      -1.18454368
N        0.14067432      -0.81789640      -1.12963921
H       -1.66782423      -1.10705133       0.69160416
H       -2.04833371       0.61930240       0.76128160
H       -2.51484312      -0.29292316      -0.65660393
H        0.70352596       1.78629218       0.97700733
H        3.09127688      -0.11727534       0.27869352
11
Frame=10 idx=005881 GeodesicLength=0.33534417849295844 rxn_smarts="[C:1]([n:2]1[c:3]([H:10])[c:4]([H:11])[n:5][n:6]1)([H:7])([H:8])[H:9]>>[C:1]([N:2]=[N+:6]=[N-:5])([H:7])([H:8])[H:9].[C:3](#[C:4][H:11])[H:10]"
C       -1.73387435      -0.18904930       0.10587148
N       -0.44815635       0.10592369      -0.50109000
C        1.10004939       0.90305094       0.52461552
C        2.08583880       0.22593625       0.12091393
N        1.28328247      -1.11806525      -1.18354054
N        0.13661301      -0.81987022      -1.13986401
H       -1.65804969      -1.11206416       0.68368396
H       -2.04343441       0.61142064       0.77395626
H       -2.51534528      -0.28458085      -0.65039922
H        0.71030982       1.79578139       0.96646836
H        3.08276659      -0.11848312       0.29938425
11
Frame=11 idx=005881 GeodesicLength=0.3688420836981574 rxn_smarts="[C:1]([n:2]1[c:3]([H:10])[c:4]([H:11])[n:5][n:6]1)([H:7])([H:8])[H:9]>>[C:1]([N:2]=[N+:6]=[N-:5])([H:7])([H:8])[H:9].[C:3](#[C:4][H:11])[H:10]"
C       -1.72889918      -0.18882984       0.10852681
N       -0.44686301       0.10685386      -0.50561369
C        1.09074648       0.90457033       0.51631111
C        2.07900705       0.21986710       0.11942193
N        1.28448081      -1.11414814      -1.18457732
N        0.13250419      -0.82076502      -1.15104871
H       -1.64703482      -1.11781556       0.67559284
H       -2.03776944       0.60229601       0.78785807
H       -2.51588458      -0.27672253      -0.64298392
H        0.71760309       1.80729887       0.95296982
H        3.07210940      -0.12260508       0.32354306
11
Frame=12 idx=005881 GeodesicLength=0.40264573583045205 rxn_smarts="[C:1]([n:2]1[c:3]([H:10])[c:4]([H:11])[n:5][n:6]1)([H:7])([H:8])[H:9]>>[C:1]([N:2]=[N+:6]=[N-:5])([H:7])([H:8])[H:9].[C:3](#[C:4][H:11])[H:10]"
C       -1.72296626      -0.18959169       0.11220439
N       -0.44601511       0.10874767      -0.51096253
C        1.08145605       0.90871310       0.50533481
C        2.07110326       0.21219828       0.12025182
N        1.28584157      -1.10657140      -1.18949384
N        0.12828370      -0.81966143      -1.16414114
H       -1.63337369      -1.12480487       0.66748283
H       -2.03067612       0.59112976       0.80388614
H       -2.51649652      -0.27005104      -0.63327595
H        0.72571886       1.82255536       0.93414240
H        3.05712427      -0.13266374       0.35457107
11
Frame=13 idx=005881 GeodesicLength=0.4365386670303004 rxn_smarts="[C:1]([n:2]1[c:3]([H:10])[c:4]([H:11])[n:5][n:6]1)([H:7])([H:8])[H:9]>>[C:1]([N:2]=[N+:6]=[N-:5])([H:7])([H:8])[H:9].[C:3](#[C:4][H:11])[H:10]"
C       -1.71683359      -0.19044121       0.11597210
N       -0.44519241       0.11074511      -0.51640500
C        1.07228557       0.91322873       0.49403318
C        2.06293807       0.20422843       0.12166143
N        1.28723616      -1.09863200      -1.19464606
N        0.12413311      -0.81839350      -1.17723050
H       -1.61959260      -1.13181451       0.65915960
H       -2.02313935       0.57957075       0.82007559
H       -2.51696613      -0.26342275      -0.62323990
H        0.73413986       1.83785963       0.91469724
H        3.04099130      -0.14292869       0.38592231
11
Frame=14 idx=005881 GeodesicLength=0.47047963001207915 rxn_smarts="[C:1]([n:2]1[c:3]([H:10])[c:4]([H:11])[n:5][n:6]1)([H:7])([H:8])[H:9]>>[C:1]([N:2]=[N+:6]=[N-:5])([H:7])([H:8])[H:9].[C:3](#[C:4][H:11])[H:10]"
C       -1.71061033      -0.19126521       0.11971599
N       -0.44434635       0.11273230      -0.52183914
C        1.06325648       0.91781756       0.48271819
C        2.05464340       0.19617977       0.12335714
N        1.28865867      -1.09071147      -1.19963734
N        0.12006826      -0.81721165      -1.19007035
H       -1.60601225      -1.13867363       0.65064963
H       -2.01532951       0.56785699       0.83614202
H       -2.51727676      -0.25673542      -0.61312786
H        0.74279641       1.85273947       0.89526858
H        3.02415198      -0.15272870       0.41682313
11
Frame=15 idx=005881 GeodesicLength=0.504675927881953 rxn_smarts="[C:1]([n:2]1[c:3]([H:10])[c:4]([H:11])[n:5][n:6]1)([H:7])([H:8])[H:9]>>[C:1]([N:2]=[N+:6]=[N-:5])([H:7])([H:8])[H:9].[C:3](#[C:4][H:11])[H:10]"
C       -1.70369579      -0.19253682       0.12397638
N       -0.44367335       0.11522755      -0.52778621
C        1.05436329       0.92379335       0.46989430
C        2.04566915       0.18766545       0.12598380
N        1.29027276      -1.08080478      -1.20654650
N        0.11603808      -0.81512349      -1.20370057
H       -1.59090951      -1.14581863       0.64229765
H       -2.00649757       0.55522573       0.85296567
H       -2.51739196      -0.25095318      -0.60170223
H        0.75197048       1.86897228       0.87345364
H        3.00385442      -0.16564746       0.45116408
11
Frame=16 idx=005881 GeodesicLength=0.5386450058036959 rxn_smarts="[C:1]([n:2]1[c:3]([H:10])[c:4]([H:11])[n:5][n:6]1)([H:7])([H:8])[H:9]>>[C:1]([N:2]=[N+:6]=[N-:5])([H:7])([H:8])[H:9].[C:3](#[C:4][H:11])[H:10]"
C       -1.69734842      -0.19311802       0.12753499
N       -0.44269390       0.11707542      -0.53316638
C        1.04564603       0.92825612       0.45866838
C        2.03730937       0.17990778       0.12759969
N        1.29174545      -1.07329936      -1.21085570
N        0.11217549      -0.81443829      -1.21574667
H       -1.57789197      -1.15190070       0.63379013
H       -1.99844101       0.54373304       0.86816084
H       -2.51724436      -0.24436205      -0.59171998
H        0.76080462       1.88210393       0.85541330
H        2.98593870      -0.17395786       0.48032140
