12
Frame=0 idx=002935 GeodesicLength=0.0 rxn_smarts="[C:1]([c:2]1[c:3]([H:10])[c:4]([H:11])[c:5]([H:12])[o:6]1)([H:7])([H:8])[H:9]>>[C:1]([C@@:2]1([H:11])[C:3]([H:10])=[C:4]=[C:5]([H:12])[O:6]1)([H:7])([H:8])[H:9]"
C       -1.78743304      -0.00337275       0.13450040
C       -0.30867796      -0.04403171       0.05453781
C        0.67674737       0.94855514       0.14434209
C        2.05286468       0.28692429       0.11009244
C        1.65665112      -0.99987566      -0.11161041
O        0.27885241      -1.19779886      -0.11280716
H       -2.13153474       1.02689126       0.20163496
H       -2.13916777      -0.54704696       1.01389314
H       -2.23489819      -0.46889350      -0.74537095
H        0.48297070       1.97314835       0.42844049
H        1.25158288       0.94827735      -0.89104098
H        2.20204259      -1.92277695      -0.22661179
12
Frame=1 idx=002935 GeodesicLength=0.10461721923907337 rxn_smarts="[C:1]([c:2]1[c:3]([H:10])[c:4]([H:11])[c:5]([H:12])[o:6]1)([H:7])([H:8])[H:9]>>[C:1]([C@@:2]1([H:11])[C:3]([H:10])=[C:4]=[C:5]([H:12])[O:6]1)([H:7])([H:8])[H:9]"
C       -1.78456345      -0.00093716       0.12859593
C       -0.30745303      -0.03721048       0.01532656
C        0.67909866       0.94704391       0.16851696
C        2.04588890       0.28853989       0.11053776
C        1.65450770      -1.00339931      -0.09423558
O        0.28077945      -1.20110735      -0.11766934
H       -2.13149738       1.02883997       0.18938556
H       -2.11793251      -0.53351996       1.02179128
H       -2.24649607      -0.48028489      -0.73619989
H        0.48199823       1.97095886       0.45252982
H        1.24092277       0.94197635      -0.90899601
H        2.20474673      -1.92089984      -0.22958305
12
Frame=2 idx=002935 GeodesicLength=0.20924263675321791 rxn_smarts="[C:1]([c:2]1[c:3]([H:10])[c:4]([H:11])[c:5]([H:12])[o:6]1)([H:7])([H:8])[H:9]>>[C:1]([C@@:2]1([H:11])[C:3]([H:10])=[C:4]=[C:5]([H:12])[O:6]1)([H:7])([H:8])[H:9]"
C       -1.78081974       0.00155292       0.12290234
C       -0.30541863      -0.03037569      -0.02013917
C        0.68046093       0.94474468       0.19218771
C        2.03832878       0.29037042       0.11003709
C        1.65189472      -1.00669477      -0.07732851
O        0.28242206      -1.20396692      -0.12190452
H       -2.13104159       1.03060596       0.17806068
H       -2.09753047      -0.52075528       1.02812267
H       -2.25553442      -0.49022755      -0.72782621
H        0.48079063       1.96813904       0.47618439
H        1.22952483       0.93512981      -0.92821534
H        2.20692291      -1.91852262      -0.23208113
12
Frame=3 idx=002935 GeodesicLength=0.31386666021280213 rxn_smarts="[C:1]([c:2]1[c:3]([H:10])[c:4]([H:11])[c:5]([H:12])[o:6]1)([H:7])([H:8])[H:9]>>[C:1]([C@@:2]1([H:11])[C:3]([H:10])=[C:4]=[C:5]([H:12])[O:6]1)([H:7])([H:8])[H:9]"
C       -1.77646049       0.00409781       0.11744854
C       -0.30266257      -0.02362177      -0.05125929
C        0.68119134       0.94179525       0.21566436
C        2.03038502       0.29251213       0.10791124
C        1.64903616      -1.00965673      -0.06155693
O        0.28395594      -1.20649434      -0.12559705
H       -2.13019141       1.03227294       0.16791590
H       -2.07857752      -0.50911751       1.03278554
H       -2.26206318      -0.49846780      -0.72068966
H        0.47964202       1.96486857       0.49953593
H        1.21693396       0.92769808      -0.94896640
H        2.20881074      -1.91588663      -0.23319219
12
Frame=4 idx=002935 GeodesicLength=0.41848555380422414 rxn_smarts="[C:1]([c:2]1[c:3]([H:10])[c:4]([H:11])[c:5]([H:12])[o:6]1)([H:7])([H:8])[H:9]>>[C:1]([C@@:2]1([H:11])[C:3]([H:10])=[C:4]=[C:5]([H:12])[O:6]1)([H:7])([H:8])[H:9]"
C       -1.77170024       0.00669304       0.11223571
C       -0.29933388      -0.01690533      -0.07847810
C        0.68149700       0.93828891       0.23913934
C        2.02209856       0.29496253       0.10440144
C        1.64605077      -1.01225974      -0.04677996
O        0.28546991      -1.20875258      -0.12890955
H       -2.12902949       1.03388917       0.15891068
H       -2.06108972      -0.49860181       1.03604365
H       -2.26651434      -0.50516026      -0.71476730
H        0.47863993       1.96129240       0.52248748
H        1.20335073       0.91956704      -0.97120304
H        2.21056074      -1.91301337      -0.23308035
12
Frame=5 idx=002935 GeodesicLength=0.5231044778535865 rxn_smarts="[C:1]([c:2]1[c:3]([H:10])[c:4]([H:11])[c:5]([H:12])[o:6]1)([H:7])([H:8])[H:9]>>[C:1]([C@@:2]1([H:11])[C:3]([H:10])=[C:4]=[C:5]([H:12])[O:6]1)([H:7])([H:8])[H:9]"
C       -1.76663979       0.00934026       0.10725600
C       -0.29554770      -0.01014809      -0.10243930
C        0.68148838       0.93424611       0.26277344
C        2.01342261       0.29773716       0.09965615
C        1.64298269      -1.01442564      -0.03318063
O        0.28701616      -1.21074136      -0.13209185
H       -2.12756215       1.03546846       0.15110924
H       -2.04485550      -0.48923073       1.03811281
H       -2.26927646      -0.51038993      -0.70998818
H        0.47781418       1.95741823       0.54509140
H        1.18891894       0.91072201      -0.99491201
H        2.21223865      -1.90999647      -0.23138707
12
Frame=6 idx=002935 GeodesicLength=0.6277014571912916 rxn_smarts="[C:1]([c:2]1[c:3]([H:10])[c:4]([H:11])[c:5]([H:12])[o:6]1)([H:7])([H:8])[H:9]>>[C:1]([C@@:2]1([H:11])[C:3]([H:10])=[C:4]=[C:5]([H:12])[O:6]1)([H:7])([H:8])[H:9]"
C       -1.76142587       0.01204159       0.10249778
C       -0.29140520      -0.00327332      -0.12366694
C        0.68124235       0.92971576       0.28673398
C        2.00437366       0.30083042       0.09409676
C        1.63991554      -1.01619649      -0.02041450
O        0.28862022      -1.21251463      -0.13514823
H       -2.12591606       1.03706208       0.14441366
H       -2.02978984      -0.48091711       1.03921368
H       -2.27073675      -0.51436182      -0.70622644
H        0.47717430       1.95340510       0.56718177
H        1.17397512       0.90099741      -1.02001798
H        2.21397254      -1.90678899      -0.22866354
12
Frame=7 idx=002935 GeodesicLength=0.7322759164653058 rxn_smarts="[C:1]([c:2]1[c:3]([H:10])[c:4]([H:11])[c:5]([H:12])[o:6]1)([H:7])([H:8])[H:9]>>[C:1]([C@@:2]1([H:11])[C:3]([H:10])=[C:4]=[C:5]([H:12])[O:6]1)([H:7])([H:8])[H:9]"
C       -1.75611252       0.01481040       0.09793622
C       -0.28696059       0.00378131      -0.14257685
C        0.68078678       0.92468528       0.31121053
C        1.99490559       0.30426392       0.08796962
C        1.63688088      -1.01756101      -0.00835415
O        0.29030049      -1.21408460      -0.13803810
H       -2.12412359       1.03869749       0.13872852
H       -2.01577069      -0.47356096       1.03949558
H       -2.27112490      -0.51721685      -0.70339362
H        0.47671309       1.94929048       0.58873218
H        1.15869239       0.89021826      -1.04651173
H        2.21581308      -1.90332372      -0.22519820
12
Frame=8 idx=002935 GeodesicLength=0.8368338882602013 rxn_smarts="[C:1]([c:2]1[c:3]([H:10])[c:4]([H:11])[c:5]([H:12])[o:6]1)([H:7])([H:8])[H:9]>>[C:1]([C@@:2]1([H:11])[C:3]([H:10])=[C:4]=[C:5]([H:12])[O:6]1)([H:7])([H:8])[H:9]"
C       -1.75072714       0.01766460       0.09354773
C       -0.28224439       0.01106992      -0.15945267
C        0.68013049       0.91912784       0.33638592
C        1.98495455       0.30807621       0.08145637
C        1.63390265      -1.01849727       0.00313488
O        0.29206897      -1.21545562      -0.14067592
H       -2.12219527       1.04040129       0.13397654
H       -2.00271916      -0.46708784       1.03905686
H       -2.27058053      -0.51903773      -0.70144526
H        0.47642755       1.94507890       0.60973821
H        1.14318612       0.87815592      -1.07444201
H        2.21779615      -1.89949622      -0.22128064
12
Frame=9 idx=002935 GeodesicLength=0.9413352421117943 rxn_smarts="[C:1]([c:2]1[c:3]([H:10])[c:4]([H:11])[c:5]([H:12])[o:6]1)([H:7])([H:8])[H:9]>>[C:1]([C@@:2]1([H:11])[C:3]([H:10])=[C:4]=[C:5]([H:12])[O:6]1)([H:7])([H:8])[H:9]"
C       -1.74529598       0.02062616       0.08930947
C       -0.27727404       0.01864981      -0.17450402
C        0.67927608       0.91301600       0.36242220
C        1.97445908       0.31232642       0.07467899
C        1.63101729      -1.01898032       0.01416668
O        0.29393222      -1.21660612      -0.14296375
H       -2.12014749       1.04219546       0.13009803
H       -1.99059572      -0.46143728       1.03795077
H       -2.26921176      -0.51987386      -0.70035057
H        0.47631687       1.94076942       0.63025913
H        1.12755020       0.86451657      -1.10389909
H        2.21997325      -1.89520225      -0.21716784
12
Frame=10 idx=002935 GeodesicLength=1.0458070460108002 rxn_smarts="[C:1]([c:2]1[c:3]([H:10])[c:4]([H:11])[c:5]([H:12])[o:6]1)([H:7])([H:8])[H:9]>>[C:1]([C@@:2]1([H:11])[C:3]([H:10])=[C:4]=[C:5]([H:12])[O:6]1)([H:7])([H:8])[H:9]"
C       -1.73981912       0.02373441       0.08518328
C       -0.27205085       0.02657280      -0.18788947
C        0.67822292       0.90630177       0.38948417
C        1.96333605       0.31710439       0.06766428
C        1.62826502      -1.01895352       0.02476833
O        0.29590673      -1.21753047      -0.14478382
H       -2.11797045       1.04412907       0.12695931
H       -1.97934540      -0.45648362       1.03623596
H       -2.26707888      -0.51978830      -0.70009172
H        0.47636666       1.93626489       0.65053219
H        1.11177406       0.84898083      -1.13504331
H        2.22239326      -1.89033226      -0.21301921
12
Frame=11 idx=002935 GeodesicLength=1.1502380421895702 rxn_smarts="[C:1]([c:2]1[c:3]([H:10])[c:4]([H:11])[c:5]([H:12])[o:6]1)([H:7])([H:8])[H:9]>>[C:1]([C@@:2]1([H:11])[C:3]([H:10])=[C:4]=[C:5]([H:12])[O:6]1)([H:7])([H:8])[H:9]"
C       -1.73430518       0.02703357       0.08113593
C       -0.26656884       0.03490320      -0.19973517
C        0.67696928       0.89894590       0.41769579
C        1.95149563       0.32252175       0.06039886
C        1.62569411      -1.01834551       0.03498291
O        0.29800258      -1.21819896      -0.14601962
H       -2.11566711       1.04625083       0.12445272
H       -1.96896174      -0.45211790       1.03394473
H       -2.26422053      -0.51881745      -0.70065019
H        0.47655406       1.93145718       0.67087041
H        1.09588503       0.83112280      -1.16808006
H        2.22512271      -1.88475541      -0.20899631
12
Frame=12 idx=002935 GeodesicLength=1.2546292173665174 rxn_smarts="[C:1]([c:2]1[c:3]([H:10])[c:4]([H:11])[c:5]([H:12])[o:6]1)([H:7])([H:8])[H:9]>>[C:1]([C@@:2]1([H:11])[C:3]([H:10])=[C:4]=[C:5]([H:12])[O:6]1)([H:7])([H:8])[H:9]"
C       -1.72874979       0.03058384       0.07712316
C       -0.26081432       0.04370958      -0.21014876
C        0.67552150       0.89090522       0.44715912
C        1.93883402       0.32871923       0.05282477
C        1.62336877      -1.01706301       0.04481538
O        0.30023818      -1.21858042      -0.14653614
H       -2.11322630       1.04862952       0.12244396
H       -1.95942137      -0.44820115       1.03109640
H       -2.26066479      -0.51698676      -0.70201976
H        0.47683075       1.92619029       0.69171995
H        1.07984252       0.81042479      -1.20325446
H        2.22824083      -1.87833112      -0.20522363
12
Frame=13 idx=002935 GeodesicLength=1.3589830407470802 rxn_smarts="[C:1]([c:2]1[c:3]([H:10])[c:4]([H:11])[c:5]([H:12])[o:6]1)([H:7])([H:8])[H:9]>>[C:1]([C@@:2]1([H:11])[C:3]([H:10])=[C:4]=[C:5]([H:12])[O:6]1)([H:7])([H:8])[H:9]"
C       -1.72312740       0.03445881       0.07309435
C       -0.25476484       0.05306892      -0.21923162
C        0.67388562       0.88212746       0.47794271
C        1.92521376       0.33586051       0.04485581
C        1.62135305      -1.01498076       0.05425010
O        0.30263445      -1.21862218      -0.14618547
H       -2.11061078       1.05133979       0.12078986
H       -1.95068640      -0.44457280       1.02769789
H       -2.25640697      -0.51429918      -0.70419817
H        0.47710953       1.92026366       0.71363264
H        1.06357723       0.78623802      -1.24082703
H        2.23182276      -1.87088227      -0.20182107
12
Frame=14 idx=002935 GeodesicLength=1.4633051683513383 rxn_smarts="[C:1]([c:2]1[c:3]([H:10])[c:4]([H:11])[c:5]([H:12])[o:6]1)([H:7])([H:8])[H:9]>>[C:1]([C@@:2]1([H:11])[C:3]([H:10])=[C:4]=[C:5]([H:12])[O:6]1)([H:7])([H:8])[H:9]"
C       -1.71742140       0.03874577       0.06899333
C       -0.24839422       0.06306873      -0.22709424
C        0.67207871       0.87256922       0.51007288
C        1.91048945       0.34413700       0.03637110
C        1.61972972      -1.01195359       0.06326071
O        0.30521605      -1.21827453      -0.14481978
H       -2.10778982       1.05448231       0.11935691
H       -1.94273547      -0.44106576       1.02374612
H       -2.25144898      -0.51074215      -0.70718874
H        0.47727664       1.91346682       0.73726851
H        1.04702157       0.75777916      -1.28105494
H        2.23597774      -1.86221298      -0.19891187
12
Frame=15 idx=002935 GeodesicLength=1.567609023763371 rxn_smarts="[C:1]([c:2]1[c:3]([H:10])[c:4]([H:11])[c:5]([H:12])[o:6]1)([H:7])([H:8])[H:9]>>[C:1]([C@@:2]1([H:11])[C:3]([H:10])=[C:4]=[C:5]([H:12])[O:6]1)([H:7])([H:8])[H:9]"
C       -1.71159371       0.04354568       0.06475530
C       -0.24167178       0.07380510      -0.23386035
C        0.67012356       0.86216877       0.54353969
C        1.89448240       0.35375054       0.02725118
C        1.61858050      -1.00780733       0.07178895
O        0.30801331      -1.21746949      -0.14229888
H       -2.10470649       1.05816629       0.11798679
H       -1.93551139      -0.43747810       1.01923475
H       -2.24577566      -0.50629301      -0.71098847
H        0.47718292       1.90555321       0.76334490
H        1.03006494       0.72414314      -1.32411517
H        2.24081140      -1.85208480      -0.19663868
12
Frame=16 idx=002935 GeodesicLength=1.6719081204807023 rxn_smarts="[C:1]([c:2]1[c:3]([H:10])[c:4]([H:11])[c:5]([H:12])[o:6]1)([H:7])([H:8])[H:9]>>[C:1]([C@@:2]1([H:11])[C:3]([H:10])=[C:4]=[C:5]([H:12])[O:6]1)([H:7])([H:8])[H:9]"
C       -1.70560422       0.04896551       0.06031445
C       -0.23456479       0.08538094      -0.23967510
C        0.66805201       0.85086539       0.57828340
C        1.87700873       0.36491014       0.01740189
C        1.61799516      -1.00235924       0.07973721
O        0.31106092      -1.21613570      -0.13850531
H       -2.10130204       1.06251085       0.11653740
H       -1.92895255      -0.43361008       1.01415141
H       -2.23937478      -0.50091791      -0.71559409
H        0.47666017       1.89629292       0.79254499
H        1.01258530       0.68435516      -1.37002200
H        2.24643608      -1.84025797      -0.19517426
