11
Frame=0 idx=001839 GeodesicLength=0.0 rxn_smarts="[N:1]([c:2]1[c:3]([H:9])[o:4][c:5]([H:10])[c:6]1[H:11])([H:7])[H:8]>>[N:1](=[C:2]1/[C:3]([H:7])([H:9])[O:4][C:5]([H:10])=[C:6]1[H:11])\[H:8]"
N        1.82476359      -0.33251202       0.20420904
C        0.55596275      -0.19912603      -0.11985543
C        0.17196095       1.11119769       0.32713618
O       -1.24807306       1.03861854       0.52287230
C       -1.61606417      -0.14207839       0.04056211
C       -0.62010504      -0.93209977      -0.45202817
H        1.51755660       0.83197847       0.83029037
H        2.43175551      -0.97353621      -0.29397033
H        0.38747927       1.91052193      -0.38176351
H       -2.67018380      -0.37171062       0.13426133
H       -0.73505265      -1.94125358      -0.81171390
11
Frame=1 idx=001839 GeodesicLength=0.03629665093844551 rxn_smarts="[N:1]([c:2]1[c:3]([H:9])[o:4][c:5]([H:10])[c:6]1[H:11])([H:7])[H:8]>>[N:1](=[C:2]1/[C:3]([H:7])([H:9])[O:4][C:5]([H:10])=[C:6]1[H:11])\[H:8]"
N        1.82793845      -0.32520200       0.18709164
C        0.56056772      -0.18470887      -0.14630159
C        0.16870973       1.11590692       0.32351906
O       -1.24657142       1.03206963       0.53179769
C       -1.61405701      -0.14590488       0.03993510
C       -0.61575893      -0.92928776      -0.45510196
H        1.52165749       0.84009700       0.83064405
H        2.40982675      -1.01469957      -0.27461648
H        0.37740434       1.93258055      -0.36677464
H       -2.66810016      -0.37633556       0.13027477
H       -0.72161697      -1.94451545      -0.80046764
11
Frame=2 idx=001839 GeodesicLength=0.07289290849659139 rxn_smarts="[N:1]([c:2]1[c:3]([H:9])[o:4][c:5]([H:10])[c:6]1[H:11])([H:7])[H:8]>>[N:1](=[C:2]1/[C:3]([H:7])([H:9])[O:4][C:5]([H:10])=[C:6]1[H:11])\[H:8]"
N        1.83150193      -0.31777086       0.16821540
C        0.56491334      -0.17055200      -0.17245459
C        0.16571944       1.12047666       0.31947999
O       -1.24463162       1.02544685       0.54077507
C       -1.61191921      -0.14988775       0.03971985
C       -0.61131905      -0.92657524      -0.45813634
H        1.52624430       0.84781369       0.83048417
H        2.38606684      -1.05456514      -0.25220559
H        0.36737824       1.95380062      -0.35212280
H       -2.66585195      -0.38118874       0.12728409
H       -0.70810226      -1.94699810      -0.79103926
11
Frame=3 idx=001839 GeodesicLength=0.10892509546909881 rxn_smarts="[N:1]([c:2]1[c:3]([H:9])[o:4][c:5]([H:10])[c:6]1[H:11])([H:7])[H:8]>>[N:1](=[C:2]1/[C:3]([H:7])([H:9])[O:4][C:5]([H:10])=[C:6]1[H:11])\[H:8]"
N        1.83565962      -0.30975859       0.14616749
C        0.56887711      -0.15688806      -0.19795699
C        0.16314800       1.12424048       0.31589246
O       -1.24160074       1.01730839       0.55222634
C       -1.60917159      -0.15527827       0.04253466
C       -0.60673719      -0.92468029      -0.45949234
H        1.53189063       0.85505693       0.82884498
H        2.36034310      -1.09112437      -0.22906358
H        0.35668452       1.97366207      -0.33698606
H       -2.66477473      -0.38244976       0.11747208
H       -0.69431873      -1.95008854      -0.77963904
11
Frame=4 idx=001839 GeodesicLength=0.1448237214645571 rxn_smarts="[N:1]([c:2]1[c:3]([H:9])[o:4][c:5]([H:10])[c:6]1[H:11])([H:7])[H:8]>>[N:1](=[C:2]1/[C:3]([H:7])([H:9])[O:4][C:5]([H:10])=[C:6]1[H:11])\[H:8]"
N        1.83918803      -0.30292812       0.12459773
C        0.57234525      -0.14387042      -0.22300494
C        0.16085519       1.12791322       0.31107673
O       -1.23824776       1.01018137       0.56113987
C       -1.60645599      -0.15984202       0.04365579
C       -0.60237852      -0.92226726      -0.46217255
H        1.53717575       0.86122948       0.82753383
H        2.33335816      -1.12488950      -0.20178332
H        0.34744059       1.99240225      -0.32313465
H       -2.66207324      -0.38671490       0.11526449
H       -0.68120747      -1.95121409      -0.77317298
11
Frame=5 idx=001839 GeodesicLength=0.18072064213607822 rxn_smarts="[N:1]([c:2]1[c:3]([H:9])[o:4][c:5]([H:10])[c:6]1[H:11])([H:7])[H:8]>>[N:1](=[C:2]1/[C:3]([H:7])([H:9])[O:4][C:5]([H:10])=[C:6]1[H:11])\[H:8]"
N        1.84240307      -0.29753332       0.10395922
C        0.57540562      -0.13192202      -0.24680759
C        0.15891358       1.13112799       0.30587408
O       -1.23469864       1.00355209       0.56877374
C       -1.60400339      -0.16413563       0.04440568
C       -0.59835790      -0.92018156      -0.46464469
H        1.54253123       0.86636436       0.82674330
H        2.30644745      -1.15364917      -0.17518754
H        0.33963394       2.00954995      -0.30990351
H       -2.65951347      -0.39100194       0.11437742
H       -0.66876148      -1.95217076      -0.76759011
11
Frame=6 idx=001839 GeodesicLength=0.21675008267074988 rxn_smarts="[N:1]([c:2]1[c:3]([H:9])[o:4][c:5]([H:10])[c:6]1[H:11])([H:7])[H:8]>>[N:1](=[C:2]1/[C:3]([H:7])([H:9])[O:4][C:5]([H:10])=[C:6]1[H:11])\[H:8]"
N        1.84535865      -0.29331681       0.08398280
C        0.57808403      -0.12096713      -0.26944367
C        0.15725004       1.13394502       0.30043058
O       -1.23076645       0.99711036       0.57599190
C       -1.60153675      -0.16862818       0.04580333
C       -0.59456496      -0.91852762      -0.46655178
H        1.54813035       0.87084419       0.82602475
H        2.27951602      -1.17816705      -0.14929440
H        0.33257450       2.02533883      -0.29730940
H       -2.65720146      -0.39457172       0.11307983
H       -0.65684397      -1.95305990      -0.76271395
11
Frame=7 idx=001839 GeodesicLength=0.25342156372886615 rxn_smarts="[N:1]([c:2]1[c:3]([H:9])[o:4][c:5]([H:10])[c:6]1[H:11])([H:7])[H:8]>>[N:1](=[C:2]1/[C:3]([H:7])([H:9])[O:4][C:5]([H:10])=[C:6]1[H:11])\[H:8]"
N        1.84820795      -0.29009156       0.06427661
C        0.58046796      -0.11075146      -0.29138586
C        0.15578746       1.13656310       0.29472739
O       -1.22656152       0.99090188       0.58288791
C       -1.59909915      -0.17321824       0.04756318
C       -0.59100298      -0.91706464      -0.46860236
H        1.55407336       0.87486864       0.82530399
H        2.25241533      -1.19960449      -0.12305695
H        0.32605233       2.04024092      -0.28515538
H       -2.65500135      -0.39797471       0.11222215
H       -0.64533940      -1.95386944      -0.75878067
11
Frame=8 idx=001839 GeodesicLength=0.2891684909380262 rxn_smarts="[N:1]([c:2]1[c:3]([H:9])[o:4][c:5]([H:10])[c:6]1[H:11])([H:7])[H:8]>>[N:1](=[C:2]1/[C:3]([H:7])([H:9])[O:4][C:5]([H:10])=[C:6]1[H:11])\[H:8]"
N        1.85070395      -0.28743480       0.04440199
C        0.58254728      -0.10111941      -0.31274066
C        0.15457074       1.13868617       0.28859322
O       -1.22178113       0.98427999       0.58988892
C       -1.59636730      -0.17830182       0.05043727
C       -0.58759682      -0.91556179      -0.47056834
H        1.56024414       0.87854860       0.82371532
H        2.22472142      -1.21813218      -0.09492779
H        0.31998980       2.05385968      -0.27364029
H       -2.65264528      -0.40104525       0.11169315
H       -0.63438681      -1.95377919      -0.75685277
11
Frame=9 idx=001839 GeodesicLength=0.3253292125413847 rxn_smarts="[N:1]([c:2]1[c:3]([H:9])[o:4][c:5]([H:10])[c:6]1[H:11])([H:7])[H:8]>>[N:1](=[C:2]1/[C:3]([H:7])([H:9])[O:4][C:5]([H:10])=[C:6]1[H:11])\[H:8]"
N        1.85271229      -0.28618026       0.02671470
C        0.58437845      -0.09242290      -0.33277415
C        0.15345278       1.14070926       0.28218676
O       -1.21709325       0.97849629       0.59542331
C       -1.59390178      -0.18299065       0.05264455
C       -0.58446159      -0.91436721      -0.47227224
H        1.56614002       0.88169241       0.82336384
H        2.19803689      -1.23323169      -0.06975520
H        0.31507430       2.06648537      -0.26274384
H       -2.65036315      -0.40429638       0.11220806
H       -0.62397496      -1.95389424      -0.75499579
11
Frame=10 idx=001839 GeodesicLength=0.3616079037227439 rxn_smarts="[N:1]([c:2]1[c:3]([H:9])[o:4][c:5]([H:10])[c:6]1[H:11])([H:7])[H:8]>>[N:1](=[C:2]1/[C:3]([H:7])([H:9])[O:4][C:5]([H:10])=[C:6]1[H:11])\[H:8]"
N        1.85440694      -0.28584467       0.01011324
C        0.58601287      -0.08440296      -0.35192629
C        0.15240076       1.14257788       0.27553786
O       -1.21232624       0.97304045       0.60033610
C       -1.59147729      -0.18762868       0.05491742
C       -0.58148201      -0.91331998      -0.47383145
H        1.57192324       0.88448518       0.82349175
H        2.17176909      -1.24582992      -0.04585647
H        0.31079517       2.07829345      -0.25234007
H       -2.64809658      -0.40743333       0.11306426
H       -0.61392595      -1.95393742      -0.75350635
11
Frame=11 idx=001839 GeodesicLength=0.39784692127992133 rxn_smarts="[N:1]([c:2]1[c:3]([H:9])[o:4][c:5]([H:10])[c:6]1[H:11])([H:7])[H:8]>>[N:1](=[C:2]1/[C:3]([H:7])([H:9])[O:4][C:5]([H:10])=[C:6]1[H:11])\[H:8]"
N        1.85586814      -0.28621345      -0.00570547
C        0.58749610      -0.07694859      -0.37036462
C        0.15143638       1.14429915       0.26862423
O       -1.20745315       0.96777587       0.60477239
C       -1.58909541      -0.19228210       0.05729274
C       -0.57867508      -0.91236254      -0.47535704
H        1.57768115       0.88703681       0.82386118
H        2.14580756      -1.25629381      -0.02252251
H        0.30709629       2.08937073      -0.24233652
H       -2.64587022      -0.41055410       0.11441776
H       -0.60429176      -1.95382798      -0.75268213
11
Frame=12 idx=001839 GeodesicLength=0.4342665944863738 rxn_smarts="[N:1]([c:2]1[c:3]([H:9])[o:4][c:5]([H:10])[c:6]1[H:11])([H:7])[H:8]>>[N:1](=[C:2]1/[C:3]([H:7])([H:9])[O:4][C:5]([H:10])=[C:6]1[H:11])\[H:8]"
N        1.85708088      -0.28730054      -0.02057749
C        0.58884168      -0.07004480      -0.38808934
C        0.15049991       1.14595541       0.26148911
O       -1.20252551       0.96280395       0.60871207
C       -1.58674929      -0.19689006       0.05968469
C       -0.57600588      -0.91152330      -0.47681614
H        1.58332702       0.88939679       0.82470893
H        2.12027485      -1.26492116      -0.00033579
H        0.30388720       2.09985318      -0.23272276
H       -2.64365877      -0.41363145       0.11609435
H       -0.59497209      -1.95369801      -0.75214763
11
Frame=13 idx=001839 GeodesicLength=0.470632153160067 rxn_smarts="[N:1]([c:2]1[c:3]([H:9])[o:4][c:5]([H:10])[c:6]1[H:11])([H:7])[H:8]>>[N:1](=[C:2]1/[C:3]([H:7])([H:9])[O:4][C:5]([H:10])=[C:6]1[H:11])\[H:8]"
N        1.85810192      -0.28892368      -0.03490505
C        0.59006065      -0.06361454      -0.40524872
C        0.14960287       1.14746524       0.25414970
O       -1.19745503       0.95786748       0.61249168
C       -1.58438152      -0.20160518       0.06238378
C       -0.57347486      -0.91076584      -0.47820433
H        1.58898241       0.89163769       0.82567127
H        2.09503160      -1.27183975       0.02135740
H        0.30102256       2.10969615      -0.22340419
H       -2.64151824      -0.41645682       0.11772834
H       -0.58597237      -1.95346076      -0.75201988
11
Frame=14 idx=001839 GeodesicLength=0.507185284703173 rxn_smarts="[N:1]([c:2]1[c:3]([H:9])[o:4][c:5]([H:10])[c:6]1[H:11])([H:7])[H:8]>>[N:1](=[C:2]1/[C:3]([H:7])([H:9])[O:4][C:5]([H:10])=[C:6]1[H:11])\[H:8]"
N        1.85895638      -0.29113220      -0.04853311
C        0.59120490      -0.05761857      -0.42189525
C        0.14872140       1.14895566       0.24659282
O       -1.19230391       0.95310928       0.61599843
C       -1.58202526      -0.20632723       0.06516364
C       -0.57106818      -0.91007066      -0.47968106
H        1.59460034       0.89381800       0.82692290
H        2.07005916      -1.27735826       0.04242456
H        0.29850159       2.11909750      -0.21438631
H       -2.63940051      -0.41927372       0.11968969
H       -0.57724591      -1.95319980      -0.75229632
11
Frame=15 idx=001839 GeodesicLength=0.5436816843739664 rxn_smarts="[N:1]([c:2]1[c:3]([H:9])[o:4][c:5]([H:10])[c:6]1[H:11])([H:7])[H:8]>>[N:1](=[C:2]1/[C:3]([H:7])([H:9])[O:4][C:5]([H:10])=[C:6]1[H:11])\[H:8]"
N        1.85950757      -0.29388270      -0.06145779
C        0.59226035      -0.05197241      -0.43813151
C        0.14785198       1.15037375       0.23873647
O       -1.18704335       0.94852039       0.61898247
C       -1.57963880      -0.21088278       0.06762987
C       -0.56877747      -0.90926555      -0.48144107
H        1.60001160       0.89579984       0.82854575
H        2.04518866      -1.28156988       0.06306564
H        0.29642245       2.12802800      -0.20558798
H       -2.63702890      -0.42243981       0.12260666
H       -0.56875409      -1.95270886      -0.75294852
11
Frame=16 idx=001839 GeodesicLength=0.5802750137704245 rxn_smarts="[N:1]([c:2]1[c:3]([H:9])[o:4][c:5]([H:10])[c:6]1[H:11])([H:7])[H:8]>>[N:1](=[C:2]1/[C:3]([H:7])([H:9])[O:4][C:5]([H:10])=[C:6]1[H:11])\[H:8]"
N        1.85991282      -0.29708628      -0.07367740
C        0.59327939      -0.04669836      -0.45389559
C        0.14697991       1.15179678       0.23066131
O       -1.18179251       0.94417395       0.62153640
C       -1.57733116      -0.21532606       0.06992569
C       -0.56660584      -0.90850695      -0.48324695
H        1.60525141       0.89765408       0.83067865
H        2.02071748      -1.28461989       0.08274782
H        0.29477091       2.13657698      -0.19700066
H       -2.63468082      -0.42572276       0.12596653
H       -0.56050158      -1.95224149      -0.75369580
