14
Frame=0 idx=011416 GeodesicLength=0.0 rxn_smarts="[O:1]=[C:2]1[C:3]([H:8])([H:9])[C:4]([H:10])=[C:5]([H:11])[C:6]([H:12])([H:13])[N:7]1[H:14]>>[O:1]1[C@:2]2([C:3]1([H:8])[H:9])[C:4]([H:10])=[C:5]([H:11])[C:6]([H:12])([H:13])[N:7]2[H:14]"
O        1.20509513       1.17967997      -1.40826173
C        0.73352697       0.55358645      -0.36292911
C        1.79892848       0.29340137       0.57003250
C        0.35165653      -0.98752084      -0.46823938
C       -0.92671617      -1.16218635      -0.14934081
C       -1.56694323       0.11571599       0.26586545
N       -0.48454876       1.08564796       0.26034890
H        1.81648335       0.65251354       1.59739213
H        2.64286099      -0.27580302       0.19876506
H        1.02709186      -1.72008144      -0.88637165
H       -1.47950713      -2.08926554      -0.24305524
H       -2.01959836       0.03688757       1.26145110
H       -2.37768071       0.36766399      -0.42884806
H       -0.72064891       1.94976036      -0.20680911
14
Frame=1 idx=011416 GeodesicLength=0.07599506271386415 rxn_smarts="[O:1]=[C:2]1[C:3]([H:8])([H:9])[C:4]([H:10])=[C:5]([H:11])[C:6]([H:12])([H:13])[N:7]1[H:14]>>[O:1]1[C@:2]2([C:3]1([H:8])[H:9])[C:4]([H:10])=[C:5]([H:11])[C:6]([H:12])([H:13])[N:7]2[H:14]"
O        1.23458269       1.20922857      -1.37371406
C        0.72400060       0.56320209      -0.36102948
C        1.79663547       0.28007160       0.55725889
C        0.35482937      -0.99696822      -0.45301109
C       -0.92620917      -1.16612039      -0.14241295
C       -1.57192633       0.11400615       0.25971711
N       -0.49252877       1.08743892       0.25787512
H        1.83235854       0.65748054       1.57736010
H        2.64500543      -0.27801319       0.17871956
H        1.01994280      -1.73388582      -0.88047678
H       -1.47905924      -2.09356112      -0.23104169
H       -2.03176017       0.03984754       1.25227896
H       -2.37797524       0.36041519      -0.44241111
H       -0.72789598       1.95685814      -0.19911257
14
Frame=2 idx=011416 GeodesicLength=0.15193495114552652 rxn_smarts="[O:1]=[C:2]1[C:3]([H:8])([H:9])[C:4]([H:10])=[C:5]([H:11])[C:6]([H:12])([H:13])[N:7]1[H:14]>>[O:1]1[C@:2]2([C:3]1([H:8])[H:9])[C:4]([H:10])=[C:5]([H:11])[C:6]([H:12])([H:13])[N:7]2[H:14]"
O        1.26301132       1.23923717      -1.33794292
C        0.71489104       0.57302992      -0.35999805
C        1.79419434       0.26740093       0.54391339
C        0.35810012      -1.00636081      -0.43789288
C       -0.92544740      -1.16996623      -0.13525673
C       -1.57656018       0.11236058       0.25345710
N       -0.50021645       1.08929070       0.25477491
H        1.84730315       0.66047163       1.55715043
H        2.64678750      -0.27987573       0.15849604
H        1.01288759      -1.74808299      -0.87351408
H       -1.47848056      -2.09767595      -0.21873428
H       -2.04337498       0.04308966       1.24301942
H       -2.37793506       0.35302315      -0.45598546
H       -0.73516043       1.96405797      -0.19148687
14
Frame=3 idx=011416 GeodesicLength=0.22780904152094433 rxn_smarts="[O:1]=[C:2]1[C:3]([H:8])([H:9])[C:4]([H:10])=[C:5]([H:11])[C:6]([H:12])([H:13])[N:7]1[H:14]>>[O:1]1[C@:2]2([C:3]1([H:8])[H:9])[C:4]([H:10])=[C:5]([H:11])[C:6]([H:12])([H:13])[N:7]2[H:14]"
O        1.29032181       1.26960288      -1.30100407
C        0.70619328       0.58309330      -0.35984857
C        1.79164376       0.25541004       0.52995296
C        0.36147710      -1.01568693      -0.42287787
C       -0.92443583      -1.17370177      -0.12789287
C       -1.58083517       0.11078475       0.24711520
N       -0.50760855       1.09121994       0.25102711
H        1.86123260       0.66144341       1.53692104
H        2.64825334      -0.28134127       0.13798526
H        1.00598789      -1.76272042      -0.86534238
H       -1.47780860      -2.10155530      -0.20630047
H       -2.05438807       0.04660133       1.23372448
H       -2.37759009       0.34549997      -0.46949453
H       -0.74244348       1.97135005      -0.18396528
14
Frame=4 idx=011416 GeodesicLength=0.3036053546679337 rxn_smarts="[O:1]=[C:2]1[C:3]([H:8])([H:9])[C:4]([H:10])=[C:5]([H:11])[C:6]([H:12])([H:13])[N:7]1[H:14]>>[O:1]1[C@:2]2([C:3]1([H:8])[H:9])[C:4]([H:10])=[C:5]([H:11])[C:6]([H:12])([H:13])[N:7]2[H:14]"
O        1.31647876       1.30020183      -1.26293899
C        0.69790117       0.59341225      -0.36058047
C        1.78900905       0.24410031       0.51535249
C        0.36496544      -1.02493591      -0.40795699
C       -0.92318452      -1.17730417      -0.12035943
C       -1.58474416       0.10928183       0.24072373
N       -0.51470664       1.09324165       0.24661086
H        1.87409050       0.66041453       1.51680261
H        2.64943718      -0.28237055       0.11709911
H        0.99929409      -1.77783179      -0.85585129
H       -1.47707855      -2.10515109      -0.19391611
H       -2.06473761       0.05036079       1.22445356
H       -2.37698031       0.33786045      -0.48285075
H       -0.74974442       1.97871988      -0.17658834
14
Frame=5 idx=011416 GeodesicLength=0.3793122894216293 rxn_smarts="[O:1]=[C:2]1[C:3]([H:8])([H:9])[C:4]([H:10])=[C:5]([H:11])[C:6]([H:12])([H:13])[N:7]1[H:14]>>[O:1]1[C@:2]2([C:3]1([H:8])[H:9])[C:4]([H:10])=[C:5]([H:11])[C:6]([H:12])([H:13])[N:7]2[H:14]"
O        1.34146995       1.33089621      -1.22378089
C        0.69000896       0.60400659      -0.36217889
C        1.78630726       0.23345925       0.50010462
C        0.36856880      -1.03409914      -0.39311942
C       -0.92170820      -1.18075396      -0.11270619
C       -1.58828727       0.10785371       0.23431489
N       -0.52151924       1.09537194       0.24150810
H        1.88585308       0.65744856       1.49689669
H        2.65036657      -0.28293697       0.09577286
H        0.99284889      -1.79343464      -0.84496776
H       -1.47632098      -2.10843092      -0.18174739
H       -2.07436894       0.05434008       1.21526987
H       -2.37615650       0.33012261      -0.49596647
H       -0.75706238       1.98615669      -0.16940000
14
Frame=6 idx=011416 GeodesicLength=0.45490950218599835 rxn_smarts="[O:1]=[C:2]1[C:3]([H:8])([H:9])[C:4]([H:10])=[C:5]([H:11])[C:6]([H:12])([H:13])[N:7]1[H:14]>>[O:1]1[C@:2]2([C:3]1([H:8])[H:9])[C:4]([H:10])=[C:5]([H:11])[C:6]([H:12])([H:13])[N:7]2[H:14]"
O        1.36526465       1.36152320      -1.18355913
C        0.68250471       0.61488742      -0.36461457
C        1.78354993       0.22347317       0.48420582
C        0.37229259      -1.04316956      -0.37833036
C       -0.92001758      -1.18403111      -0.10497786
C       -1.59146075       0.10650052       0.22791868
N       -0.52805200       1.09761672       0.23571656
H        1.89652702       0.65264464       1.47726596
H        2.65105195      -0.28301526       0.07394441
H        0.98668558      -1.80953138      -0.83260749
H       -1.47556796      -2.11135280      -0.16999656
H       -2.08323460       0.05851282       1.20622685
H       -2.37515443       0.32230490      -0.50876788
H       -0.76438911       1.99363671      -0.16242444
14
Frame=7 idx=011416 GeodesicLength=0.5304276064573672 rxn_smarts="[O:1]=[C:2]1[C:3]([H:8])([H:9])[C:4]([H:10])=[C:5]([H:11])[C:6]([H:12])([H:13])[N:7]1[H:14]>>[O:1]1[C@:2]2([C:3]1([H:8])[H:9])[C:4]([H:10])=[C:5]([H:11])[C:6]([H:12])([H:13])[N:7]2[H:14]"
O        1.38783220       1.39199385      -1.14225258
C        0.67536768       0.62608914      -0.36783292
C        1.78077048       0.21409937       0.46762002
C        0.37612877      -1.05213297      -0.36358649
C       -0.91812972      -1.18712768      -0.09720099
C       -1.59430420       0.10522926       0.22148826
N       -0.53432557       1.09997070       0.22930238
H        1.90622963       0.64604650       1.45791757
H        2.65152228      -0.28256752       0.05144380
H        0.98083740      -1.82614762      -0.81865977
H       -1.47479805      -2.11394525      -0.15860592
H       -2.09146555       0.06286930       1.19724037
H       -2.37396003       0.31443690      -0.52136096
H       -0.77170530       2.00118602      -0.15551278
14
Frame=8 idx=011416 GeodesicLength=0.6058383179887205 rxn_smarts="[O:1]=[C:2]1[C:3]([H:8])([H:9])[C:4]([H:10])=[C:5]([H:11])[C:6]([H:12])([H:13])[N:7]1[H:14]>>[O:1]1[C@:2]2([C:3]1([H:8])[H:9])[C:4]([H:10])=[C:5]([H:11])[C:6]([H:12])([H:13])[N:7]2[H:14]"
O        1.40917032       1.42210678      -1.09989995
C        0.66858275       0.63762660      -0.37177820
C        1.77796787       0.20532056       0.45036650
C        0.38008558      -1.06097508      -0.34884427
C       -0.91605718      -1.19002102      -0.08944180
C       -1.59682083       0.10403931       0.21505316
N       -0.54036123       1.10244400       0.22226212
H        1.91500413       0.63777751       1.43885623
H        2.65176891      -0.28158862       0.02825181
H        0.97533875      -1.84325043      -0.80306042
H       -1.47403150      -2.11617548      -0.14777619
H       -2.09900771       0.06736808       1.18836660
H       -2.37262863       0.30654279      -0.53366050
H       -0.77901123       2.00878501      -0.14869509
14
Frame=9 idx=011416 GeodesicLength=0.6811812183471849 rxn_smarts="[O:1]=[C:2]1[C:3]([H:8])([H:9])[C:4]([H:10])=[C:5]([H:11])[C:6]([H:12])([H:13])[N:7]1[H:14]>>[O:1]1[C@:2]2([C:3]1([H:8])[H:9])[C:4]([H:10])=[C:5]([H:11])[C:6]([H:12])([H:13])[N:7]2[H:14]"
O        1.42925312       1.45178159      -1.05646087
C        0.66213279       0.64954300      -0.37637756
C        1.77516530       0.19709416       0.43240884
C        0.38416191      -1.06968342      -0.33410945
C       -0.91380751      -1.19270977      -0.08172116
C       -1.59905067       0.10293925       0.20854775
N       -0.54618014       1.10503715       0.21467949
H        1.92297682       0.62787200       1.42004677
H        2.65179131      -0.28005975       0.00419647
H        0.97021148      -1.86084217      -0.78573571
H       -1.47322549      -2.11809343      -0.13735411
H       -2.10602843       0.07200997       1.17948837
H       -2.37111558       0.29864857      -0.54581875
H       -0.78628490       2.01646287      -0.14179006
14
Frame=10 idx=011416 GeodesicLength=0.7564462815131303 rxn_smarts="[O:1]=[C:2]1[C:3]([H:8])([H:9])[C:4]([H:10])=[C:5]([H:11])[C:6]([H:12])([H:13])[N:7]1[H:14]>>[O:1]1[C@:2]2([C:3]1([H:8])[H:9])[C:4]([H:10])=[C:5]([H:11])[C:6]([H:12])([H:13])[N:7]2[H:14]"
O        1.44805639       1.48084634      -1.01193435
C        0.65597864       0.66187005      -0.38153538
C        1.77237041       0.18938746       0.41373466
C        0.38834286      -1.07822209      -0.31935114
C       -0.91138988      -1.19516859      -0.07407051
C       -1.60101733       0.10192907       0.20191789
N       -0.55181116       1.10773358       0.20661993
H        1.93031212       0.61638782       1.40141858
H        2.65155951      -0.27794907      -0.02084277
H        0.96546438      -1.87887143      -0.76657296
H       -1.47234525      -2.11969382      -0.12730532
H       -2.11261445       0.07676280       1.17050437
H       -2.36939643       0.29077307      -0.55794385
H       -0.79350982       2.02421480      -0.13463915
14
Frame=11 idx=011416 GeodesicLength=0.8316468083858739 rxn_smarts="[O:1]=[C:2]1[C:3]([H:8])([H:9])[C:4]([H:10])=[C:5]([H:11])[C:6]([H:12])([H:13])[N:7]1[H:14]>>[O:1]1[C@:2]2([C:3]1([H:8])[H:9])[C:4]([H:10])=[C:5]([H:11])[C:6]([H:12])([H:13])[N:7]2[H:14]"
O        1.46559360       1.50913369      -0.96636296
C        0.65011811       0.67463659      -0.38719078
C        1.76957511       0.18219621       0.39435075
C        0.39265439      -1.08660102      -0.30451608
C       -0.90881210      -1.19739752      -0.06655728
C       -1.60273162       0.10101023       0.19519563
N       -0.55727733       1.11056413       0.19810440
H        1.93706306       0.60344199       1.38292360
H        2.65104604      -0.27526883      -0.04690365
H        0.96115585      -1.89732698      -0.74545619
H       -1.47141948      -2.12096825      -0.11784153
H       -2.11876772       0.08159444       1.16147338
H       -2.36750445       0.28295025      -0.56996707
H       -0.80069346       2.03203506      -0.12725223
14
Frame=12 idx=011416 GeodesicLength=0.9067618804298665 rxn_smarts="[O:1]=[C:2]1[C:3]([H:8])([H:9])[C:4]([H:10])=[C:5]([H:11])[C:6]([H:12])([H:13])[N:7]1[H:14]>>[O:1]1[C@:2]2([C:3]1([H:8])[H:9])[C:4]([H:10])=[C:5]([H:11])[C:6]([H:12])([H:13])[N:7]2[H:14]"
O        1.48187791       1.53645545      -0.91978346
C        0.64451468       0.68788460      -0.39322744
C        1.76679511       0.17550442       0.37426088
C        0.39707123      -1.09478611      -0.28955215
C       -0.90609980      -1.19938261      -0.05921439
C       -1.60423040       0.10017350       0.18831381
N       -0.56260889       1.11351495       0.18920709
H        1.94345024       0.58910446       1.36447294
H        2.65021409      -0.27198682      -0.07408283
H        0.95727011      -1.91610898      -0.72230739
H       -1.47042535      -2.12193621      -0.10888776
H       -2.12459693       0.08645409       1.15227592
H       -2.36542416       0.27518424      -0.58203280
H       -0.80780784       2.03992502      -0.11944244
14
Frame=13 idx=011416 GeodesicLength=0.9818629522156458 rxn_smarts="[O:1]=[C:2]1[C:3]([H:8])([H:9])[C:4]([H:10])=[C:5]([H:11])[C:6]([H:12])([H:13])[N:7]1[H:14]>>[O:1]1[C@:2]2([C:3]1([H:8])[H:9])[C:4]([H:10])=[C:5]([H:11])[C:6]([H:12])([H:13])[N:7]2[H:14]"
O        1.49684564       1.56267912      -0.87218001
C        0.63911986       0.70164526      -0.39952789
C        1.76400456       0.16928021       0.35338566
C        0.40162837      -1.10275828      -0.27441809
C       -0.90321740      -1.20110134      -0.05207850
C       -1.60552782       0.09944501       0.18121480
N       -0.56784730       1.11659554       0.18005721
H        1.94959131       0.57339650       1.34587900
H        2.64897318      -0.26811935      -0.10260636
H        0.95390413      -1.93525680      -0.69679195
H       -1.46929599      -2.12258497      -0.10048406
H       -2.13026641       0.09135158       1.14277076
H       -2.36304299       0.26753629      -0.59426355
H       -0.81486914       2.04789123      -0.11095702
14
Frame=14 idx=011416 GeodesicLength=1.0569068701119104 rxn_smarts="[O:1]=[C:2]1[C:3]([H:8])([H:9])[C:4]([H:10])=[C:5]([H:11])[C:6]([H:12])([H:13])[N:7]1[H:14]>>[O:1]1[C@:2]2([C:3]1([H:8])[H:9])[C:4]([H:10])=[C:5]([H:11])[C:6]([H:12])([H:13])[N:7]2[H:14]"
O        1.51059582       1.58769651      -0.82364547
C        0.63393115       0.71599281      -0.40601542
C        1.76125412       0.16353709       0.33174250
C        0.40630323      -1.11051788      -0.25904802
C       -0.90023432      -1.20258396      -0.04521277
C       -1.60668790       0.09879648       0.17386992
N       -0.57301426       1.11982950       0.17070126
H        1.95574327       0.55640265       1.32707863
H        2.64732688      -0.26362731      -0.13254055
H        0.95105557      -1.95471258      -0.66872855
H       -1.46810916      -2.12297621      -0.09271299
H       -2.13586604       0.09617831       1.13293901
H       -2.36044257       0.26002092      -0.60673799
H       -0.82185580       2.05596366      -0.10168956
14
Frame=15 idx=011416 GeodesicLength=1.1319462167491812 rxn_smarts="[O:1]=[C:2]1[C:3]([H:8])([H:9])[C:4]([H:10])=[C:5]([H:11])[C:6]([H:12])([H:13])[N:7]1[H:14]>>[O:1]1[C@:2]2([C:3]1([H:8])[H:9])[C:4]([H:10])=[C:5]([H:11])[C:6]([H:12])([H:13])[N:7]2[H:14]"
O        1.52312167       1.61119872      -0.77422731
C        0.62889640       0.73091401      -0.41257423
C        1.75842168       0.15825229       0.30932747
C        0.41112007      -1.11803363      -0.24335191
C       -0.89709068      -1.20377721      -0.03867644
C       -1.60766682       0.09824762       0.16626130
N       -0.57814755       1.12320911       0.16118804
H        1.96189168       0.53821809       1.30790368
H        2.64508449      -0.25855138      -0.16394389
H        0.94876684      -1.97431937      -0.63802092
H       -1.46673975      -2.12303988      -0.08565115
H       -2.14139489       0.10094905       1.12271619
H       -2.35750356       0.25265890      -0.61945986
H       -0.82875958       2.06407368      -0.09149098
14
Frame=16 idx=011416 GeodesicLength=1.2069590387457254 rxn_smarts="[O:1]=[C:2]1[C:3]([H:8])([H:9])[C:4]([H:10])=[C:5]([H:11])[C:6]([H:12])([H:13])[N:7]1[H:14]>>[O:1]1[C@:2]2([C:3]1([H:8])[H:9])[C:4]([H:10])=[C:5]([H:11])[C:6]([H:12])([H:13])[N:7]2[H:14]"
O        1.53445771       1.63317076      -0.72397770
C        0.62397883       0.74649963      -0.41910437
C        1.75556328       0.15343472       0.28606193
C        0.41605930      -1.12527822      -0.22729206
C       -0.89384439      -1.20469885      -0.03258280
C       -1.60852899       0.09778157       0.15831346
N       -0.58326499       1.12675320       0.15166002
H        1.96839210       0.51884434       1.28816956
H        2.64219211      -0.25284327      -0.19707620
H        0.94709572      -1.99413799      -0.60400152
H       -1.46526366      -2.12282032      -0.07947316
H       -2.14700967       0.10553165       1.11198360
H       -2.35425095       0.24552252      -0.63259148
H       -0.83557638       2.07224026      -0.08008928
