13
Frame=0 idx=002252 GeodesicLength=0.0 rxn_smarts="[O:1]([C:2]1([H:7])[C:3]([H:8])([H:9])[C:4]([H:10])([H:11])[C:5]1([H:12])[H:13])[H:6]>>[H:6][H:7].[O:1]=[C:2]1[C:3]([H:8])([H:9])[C:4]([H:10])([H:11])[C:5]1([H:12])[H:13]"
O        2.11441983       0.51925297      -0.18583459
C        0.88494833       0.07680522      -0.13655525
C        0.02381268      -0.21964350       1.09924984
C       -1.23214502      -0.04963070       0.21451325
C       -0.35252186       0.60610776      -0.87437256
H        1.77023321      -0.73503215      -0.64525803
H        0.94058344      -1.24316120      -0.70147168
H        0.16938630       0.61573924       1.78795769
H        0.18153311      -1.15375605       1.63500276
H       -2.03572431       0.55974225       0.62224713
H       -1.64721023      -1.00479511      -0.10689364
H       -0.32216430       1.69489641      -0.79028224
H       -0.49515121       0.33347492      -1.91830262
13
Frame=1 idx=002252 GeodesicLength=0.0888336427916666 rxn_smarts="[O:1]([C:2]1([H:7])[C:3]([H:8])([H:9])[C:4]([H:10])([H:11])[C:5]1([H:12])[H:13])[H:6]>>[H:6][H:7].[O:1]=[C:2]1[C:3]([H:8])([H:9])[C:4]([H:10])([H:11])[C:5]1([H:12])[H:13]"
O        2.10841460       0.52035625      -0.18759873
C        0.88062860       0.07464352      -0.13615119
C        0.02079418      -0.21694724       1.10144585
C       -1.23508161      -0.04712107       0.21626846
C       -0.35512108       0.60905854      -0.87225349
H        1.79560742      -0.74509830      -0.65529008
H        0.95606204      -1.25494959      -0.70824750
H        0.16505870       0.61736883       1.79166248
H        0.17643852      -1.15149961       1.63724005
H       -2.03859603       0.56259493       0.62373784
H       -1.65036627      -1.00206565      -0.10546861
H       -0.32566258       1.69790715      -0.78932370
H       -0.49817650       0.33575225      -1.91602139
13
Frame=2 idx=002252 GeodesicLength=0.17754476226694765 rxn_smarts="[O:1]([C:2]1([H:7])[C:3]([H:8])([H:9])[C:4]([H:10])([H:11])[C:5]1([H:12])[H:13])[H:6]>>[H:6][H:7].[O:1]=[C:2]1[C:3]([H:8])([H:9])[C:4]([H:10])([H:11])[C:5]1([H:12])[H:13]"
O        2.10238852       0.52084097      -0.18958219
C        0.87607523       0.07253619      -0.13567122
C        0.01759845      -0.21419166       1.10371583
C       -1.23819021      -0.04453677       0.21808806
C       -0.35789263       0.61207011      -0.87008207
H        1.82195792      -0.75519939      -0.66564503
H        0.97214402      -1.26660682      -0.71502774
H        0.16062046       0.61905206       1.79542537
H        0.17119420      -1.14921878       1.63947846
H       -2.04163405       0.56553137       0.62528932
H       -1.65368620      -0.99926557      -0.10398085
H       -0.32925101       1.70097481      -0.78833227
H       -0.50132470       0.33801349      -1.91367570
13
Frame=3 idx=002252 GeodesicLength=0.2661861892305505 rxn_smarts="[O:1]([C:2]1([H:7])[C:3]([H:8])([H:9])[C:4]([H:10])([H:11])[C:5]1([H:12])[H:13])[H:6]>>[H:6][H:7].[O:1]=[C:2]1[C:3]([H:8])([H:9])[C:4]([H:10])([H:11])[C:5]1([H:12])[H:13]"
O        2.09634456       0.52066002      -0.19180481
C        0.87127011       0.07048926      -0.13510671
C        0.01421071      -0.21137570       1.10606557
C       -1.24148469      -0.04187145       0.21997715
C       -0.36084934       0.61514410      -0.86785562
H        1.84936001      -0.76534553      -0.67635563
H        0.98887689      -1.27810983      -0.72180557
H        0.15606412       0.62079007       1.79925103
H        0.16578538      -1.14691361       1.64172061
H       -2.04484965       0.56856162       0.62690648
H       -1.65718731      -0.99638723      -0.10242413
H       -0.33293339       1.70410111      -0.78730725
H       -0.50460740       0.34025718      -1.91126114
13
Frame=4 idx=002252 GeodesicLength=0.35481249650551455 rxn_smarts="[O:1]([C:2]1([H:7])[C:3]([H:8])([H:9])[C:4]([H:10])([H:11])[C:5]1([H:12])[H:13])[H:6]>>[H:6][H:7].[O:1]=[C:2]1[C:3]([H:8])([H:9])[C:4]([H:10])([H:11])[C:5]1([H:12])[H:13]"
O        2.09028462       0.51976182      -0.19428731
C        0.86619308       0.06850721      -0.13444864
C        0.01061385      -0.20849837       1.10850182
C       -1.24498110      -0.03911756       0.22194179
C       -0.36400579       0.61828209      -0.86557090
H        1.87789842      -0.77554838      -0.68746174
H        1.00631660      -1.28943123      -0.72857212
H        0.15138173       0.62258427       1.80314432
H        0.16019469      -1.14458455       1.64396955
H       -2.04825550       0.57169786       0.62859510
H       -1.66089008      -0.99342154      -0.10079105
H       -0.33671276       1.70728756      -0.78624757
H       -0.50803776       0.34248081      -1.90877324
13
Frame=5 idx=002252 GeodesicLength=0.44348322540757523 rxn_smarts="[O:1]([C:2]1([H:7])[C:3]([H:8])([H:9])[C:4]([H:10])([H:11])[C:5]1([H:12])[H:13])[H:6]>>[H:6][H:7].[O:1]=[C:2]1[C:3]([H:8])([H:9])[C:4]([H:10])([H:11])[C:5]1([H:12])[H:13]"
O        2.08420963       0.51808102      -0.19705505
C        0.86082235       0.06660132      -0.13368337
C        0.00679029      -0.20555674       1.11103272
C       -1.24869513      -0.03626732       0.22398817
C       -0.36737598       0.62148676      -0.86322374
H        1.90766191      -0.78582046      -0.69900893
H        1.02452133      -1.30053987      -0.73531914
H        0.14656224       0.62443715       1.80711307
H        0.15440393      -1.14223118       1.64622992
H       -2.05186530       0.57495110       0.63036005
H       -1.66481313      -0.99036021      -0.09907454
H       -0.34059463       1.71053699      -0.78515269
H       -0.51162752       0.34468144      -1.90620650
13
Frame=6 idx=002252 GeodesicLength=0.5322227696594686 rxn_smarts="[O:1]([C:2]1([H:7])[C:3]([H:8])([H:9])[C:4]([H:10])([H:11])[C:5]1([H:12])[H:13])[H:6]>>[H:6][H:7].[O:1]=[C:2]1[C:3]([H:8])([H:9])[C:4]([H:10])([H:11])[C:5]1([H:12])[H:13]"
O        2.07811694       0.51555995      -0.20013132
C        0.85513613       0.06477062      -0.13280330
C        0.00272083      -0.20255118       1.11366508
C       -1.25264539      -0.03331109       0.22612370
C       -0.37097579       0.62475832      -0.86081071
H        1.93874654      -0.79616664      -0.71103931
H        1.04355771      -1.31140647      -0.74203633
H        0.14159890       0.62634883       1.81116133
H        0.14839155      -1.13985529       1.64850499
H       -2.05569202       0.57833859       0.63220887
H       -1.66898275      -0.98719065      -0.09726496
H       -0.34457972       1.71384959      -0.78402184
H       -0.51539296       0.34685542      -1.90355618
13
Frame=7 idx=002252 GeodesicLength=0.6210421367038996 rxn_smarts="[O:1]([C:2]1([H:7])[C:3]([H:8])([H:9])[C:4]([H:10])([H:11])[C:5]1([H:12])[H:13])[H:6]>>[H:6][H:7].[O:1]=[C:2]1[C:3]([H:8])([H:9])[C:4]([H:10])([H:11])[C:5]1([H:12])[H:13]"
O        2.07200169       0.51212758      -0.20354539
C        0.84911167       0.06301527      -0.13179963
C       -0.00161422      -0.19948106       1.11640595
C       -1.25685060      -0.03023880       0.22835552
C       -0.37482139       0.62809794      -0.85832824
H        1.97125143      -0.80658758      -0.72359267
H        1.06349643      -1.32199844      -0.74871436
H        0.13648439       0.62832047       1.81529368
H        0.14213487      -1.13745823       1.65079951
H       -2.05974895       0.58187716       0.63414874
H       -1.67342459      -0.98390071      -0.09535300
H       -0.34866890       1.71722625      -0.78285376
H       -0.51935183       0.34900016      -1.90081636
13
Frame=8 idx=002252 GeodesicLength=0.709938062575613 rxn_smarts="[O:1]([C:2]1([H:7])[C:3]([H:8])([H:9])[C:4]([H:10])([H:11])[C:5]1([H:12])[H:13])[H:6]>>[H:6][H:7].[O:1]=[C:2]1[C:3]([H:8])([H:9])[C:4]([H:10])([H:11])[C:5]1([H:12])[H:13]"
O        2.06585637       0.50771170      -0.20732349
C        0.84272539       0.06132867      -0.13066424
C       -0.00623610      -0.19634744       1.11926311
C       -1.26133108      -0.02703874       0.23069229
C       -0.37892839       0.63150364      -0.85577255
H        2.00528016      -0.81707265      -0.73671592
H        1.08441418      -1.33228217      -0.75534352
H        0.13121282       0.63035183       1.81951429
H        0.13560714      -1.13504311       1.65311908
H       -2.06404872       0.58558919       0.63618794
H       -1.67817009      -0.98047487      -0.09332642
H       -0.35285907       1.72066481      -0.78164883
H       -0.52352261       0.35110914      -1.89798175
13
Frame=9 idx=002252 GeodesicLength=0.7988392189265697 rxn_smarts="[O:1]([C:2]1([H:7])[C:3]([H:8])([H:9])[C:4]([H:10])([H:11])[C:5]1([H:12])[H:13])[H:6]>>[H:6][H:7].[O:1]=[C:2]1[C:3]([H:8])([H:9])[C:4]([H:10])([H:11])[C:5]1([H:12])[H:13]"
O        2.05966827       0.50224514      -0.21148699
C        0.83596044       0.05969376      -0.12939393
C       -0.01116103      -0.19315556       1.12224093
C       -1.26610340      -0.02369958       0.23314186
C       -0.38330722       0.63496922      -0.85314193
H        2.04091707      -0.82757332      -0.75044234
H        1.10637670      -1.34224739      -0.76191842
H        0.12578386       0.63243873       1.82382386
H        0.12877839      -1.13261109       1.65547120
H       -2.06859643       0.58950045       0.63833491
H       -1.68325094      -0.97689552      -0.09117232
H       -0.35714112       1.72415868      -0.78040943
H       -0.52792460       0.35317647      -1.89504739
13
Frame=10 idx=002252 GeodesicLength=0.8878211804047498 rxn_smarts="[O:1]([C:2]1([H:7])[C:3]([H:8])([H:9])[C:4]([H:10])([H:11])[C:5]1([H:12])[H:13])[H:6]>>[H:6][H:7].[O:1]=[C:2]1[C:3]([H:8])([H:9])[C:4]([H:10])([H:11])[C:5]1([H:12])[H:13]"
O        2.05342266       0.49562538      -0.21607933
C        0.82878490       0.05811536      -0.12797606
C       -0.01641555      -0.18990265       1.12534944
C       -1.27119297      -0.02020534       0.23571497
C       -0.38797996       0.63849792      -0.85043071
H        2.07829993      -0.83810177      -0.76481981
H        1.12948427      -1.35184121      -0.76842979
H        0.12018738       0.63458304       1.82823044
H        0.12162080      -1.13016751       1.65785910
H       -2.07341069       0.59363531       0.64060028
H       -1.68870219      -0.97314516      -0.08887756
H       -0.36151762       1.72771080      -0.77913480
H       -0.53258094       0.35519584      -1.89200616
13
Frame=11 idx=002252 GeodesicLength=0.976846811155138 rxn_smarts="[O:1]([C:2]1([H:7])[C:3]([H:8])([H:9])[C:4]([H:10])([H:11])[C:5]1([H:12])[H:13])[H:6]>>[H:6][H:7].[O:1]=[C:2]1[C:3]([H:8])([H:9])[C:4]([H:10])([H:11])[C:5]1([H:12])[H:13]"
O        2.04709791       0.48776893      -0.22112995
C        0.82117673       0.05657522      -0.12640746
C       -0.02201990      -0.18659295       1.12859419
C       -1.27662065      -0.01654054       0.23842182
C       -0.39296097       0.64208442      -0.84763623
H        2.11753311      -0.84862152      -0.77988043
H        1.15382287      -1.36103275      -0.77487392
H        0.11442365       0.63678084       1.83273548
H        0.11410250      -1.12771793       1.66028838
H       -2.07849908       0.59802553       0.64299529
H       -1.69456248      -0.96920216      -0.08642628
H       -0.36597916       1.73131518      -0.77782786
H       -0.53751454       0.35715773      -1.88885304
13
Frame=12 idx=002252 GeodesicLength=1.0658997170015259 rxn_smarts="[O:1]([C:2]1([H:7])[C:3]([H:8])([H:9])[C:4]([H:10])([H:11])[C:5]1([H:12])[H:13])[H:6]>>[H:6][H:7].[O:1]=[C:2]1[C:3]([H:8])([H:9])[C:4]([H:10])([H:11])[C:5]1([H:12])[H:13]"
O        2.04066724       0.47858715      -0.22667171
C        0.81311247       0.05505155      -0.12468679
C       -0.02799434      -0.18323209       1.13197965
C       -1.28240815      -0.01268735       0.24127359
C       -0.39826507       0.64572238      -0.84475645
H        2.15872910      -0.85908491      -0.79564878
H        1.17948339      -1.36979626      -0.78124993
H        0.10849532       0.63902636       1.83733949
H        0.10618894      -1.12526950       1.66276365
H       -2.08386771       0.60270773       0.64553319
H       -1.70087505      -0.96504149      -0.08380060
H       -0.37051404       1.73496463      -0.77649238
H       -0.54275210       0.35905181      -1.88558291
13
Frame=13 idx=002252 GeodesicLength=1.1549327118481771 rxn_smarts="[O:1]([C:2]1([H:7])[C:3]([H:8])([H:9])[C:4]([H:10])([H:11])[C:5]1([H:12])[H:13])[H:6]>>[H:6][H:7].[O:1]=[C:2]1[C:3]([H:8])([H:9])[C:4]([H:10])([H:11])[C:5]1([H:12])[H:13]"
O        2.03409595       0.46800107      -0.23273549
C        0.80457460       0.05351403      -0.12281974
C       -0.03435301      -0.17982772       1.13550660
C       -1.28857265      -0.00862791       0.24428056
C       -0.40390258       0.64940344      -0.84179120
H        2.20197965      -0.86942034      -0.81211818
H        1.20654065      -1.37812366      -0.78756881
H        0.10241261       0.64131143       1.84203905
H        0.09784888      -1.12283124       1.66528796
H       -2.08951551       0.60772022       0.64822781
H       -1.70768155      -0.96063712      -0.08098257
H       -0.37510575       1.73864959      -0.77513377
H       -0.54832129       0.36086821      -1.88219223
13
Frame=14 idx=002252 GeodesicLength=1.2439093808321453 rxn_smarts="[O:1]([C:2]1([H:7])[C:3]([H:8])([H:9])[C:4]([H:10])([H:11])[C:5]1([H:12])[H:13])[H:6]>>[H:6][H:7].[O:1]=[C:2]1[C:3]([H:8])([H:9])[C:4]([H:10])([H:11])[C:5]1([H:12])[H:13]"
O        2.02734351       0.45592513      -0.23935608
C        0.79554384       0.05191647      -0.12081951
C       -0.04110973      -0.17639299       1.13917298
C       -1.29513362      -0.00434034       0.24745577
C       -0.40988477       0.65311332      -0.83874241
H        2.24738793      -0.87952219      -0.82925564
H        1.23507221      -1.38600934      -0.79385452
H        0.09619477       0.64362244       1.84682619
H        0.08904544      -1.12041624       1.66786293
H       -2.09543649       0.61311341       0.65109819
H       -1.71503576      -0.95595521      -0.07794798
H       -0.37973045       1.74235413      -0.77376119
H       -0.55425687       0.36259141      -1.87867875
13
Frame=15 idx=002252 GeodesicLength=1.3328045914292785 rxn_smarts="[O:1]([C:2]1([H:7])[C:3]([H:8])([H:9])[C:4]([H:10])([H:11])[C:5]1([H:12])[H:13])[H:6]>>[H:6][H:7].[O:1]=[C:2]1[C:3]([H:8])([H:9])[C:4]([H:10])([H:11])[C:5]1([H:12])[H:13]"
O        2.02036180       0.44229394      -0.24656535
C        0.78600634       0.05021026      -0.11870537
C       -0.04827001      -0.17294227       1.14297184
C       -1.30210437       0.00019682       0.25081104
C       -0.41621865       0.65683787      -0.83561402
H        2.29503302      -0.88928041      -0.84699415
H        1.26513629      -1.39346431      -0.80014328
H        0.08986805       0.64594296       1.85168967
H        0.07974845      -1.11803915       1.67048642
H       -2.10161708       0.61893663       0.65416437
H       -1.72298675      -0.95096218      -0.07467367
H       -0.38436320       1.74606207      -0.77238525
H       -0.56059389       0.36420777      -1.87504224
13
Frame=16 idx=002252 GeodesicLength=1.4215858531422945 rxn_smarts="[O:1]([C:2]1([H:7])[C:3]([H:8])([H:9])[C:4]([H:10])([H:11])[C:5]1([H:12])[H:13])[H:6]>>[H:6][H:7].[O:1]=[C:2]1[C:3]([H:8])([H:9])[C:4]([H:10])([H:11])[C:5]1([H:12])[H:13]"
O        2.01309461       0.42704533      -0.25440298
C        0.77595060       0.04832989      -0.11651109
C       -0.05583187      -0.16949622       1.14688908
C       -1.30949517       0.00500751       0.25435944
C       -0.42291001       0.66055835      -0.83241387
H        2.34498702      -0.89853831      -0.86520098
H        1.29677159      -1.40051903      -0.80649454
H        0.08347486       0.64824937       1.85661000
H        0.06992989      -1.11572033       1.67315057
H       -2.10803300       0.62524797       0.65745261
H       -1.73159030      -0.94561811      -0.07113204
H       -0.38897169       1.74975180      -0.77102035
H       -0.56737653       0.36570178      -1.87128584
