19
Frame=0 idx=010404 GeodesicLength=0.0 rxn_smarts="[C:1]([C:2]1([H:11])[C:3]([H:12])([H:13])[C:4]2([C:5]([H:14])([H:15])[C:6]2([H:16])[H:17])[C:7]1([H:18])[H:19])([H:8])([H:9])[H:10]>>[C:1]([C:2]1([C:5]([H:11])([H:14])[H:15])[C:3]([H:12])([H:13])[C:4](=[C:6]([H:16])[H:17])[C:7]1([H:18])[H:19])([H:8])([H:9])[H:10]"
C       -2.42813592      -0.00989304       0.23771939
C       -0.93835383      -0.14348004       0.01835512
C       -0.17146668       0.99156452      -0.70961887
C        0.95744293       0.75335887       0.26789021
C        1.06048368      -2.25709122      -1.22346354
C        2.26884577       0.89984968       0.20514469
C        0.02645833       0.03611689       1.21959323
H       -2.96960034      -0.03872185      -0.71030485
H       -2.66561389       0.93634837       0.73192837
H       -2.80758314      -0.82058847       0.86351554
H       -0.71582954      -1.09932504      -0.48005220
H        0.03516573       0.88179523      -1.77454882
H       -0.65062219       1.96032036      -0.53773151
H        1.66563806      -1.57455650      -1.85368521
H        1.67732828      -2.31790879      -0.30411292
H        2.74116800       1.37382224      -0.64779026
H        2.91342122       0.55635609       1.00619211
H       -0.39428049       0.72471126       1.95881567
H        0.39553396      -0.85267857       1.73215381
19
Frame=1 idx=010404 GeodesicLength=0.15800521209347707 rxn_smarts="[C:1]([C:2]1([H:11])[C:3]([H:12])([H:13])[C:4]2([C:5]([H:14])([H:15])[C:6]2([H:16])[H:17])[C:7]1([H:18])[H:19])([H:8])([H:9])[H:10]>>[C:1]([C:2]1([C:5]([H:11])([H:14])[H:15])[C:3]([H:12])([H:13])[C:4](=[C:6]([H:16])[H:17])[C:7]1([H:18])[H:19])([H:8])([H:9])[H:10]"
C       -2.42669462      -0.01132789       0.24064494
C       -0.93871168      -0.15475237       0.01073313
C       -0.17416686       0.98420641      -0.71529904
C        0.96087084       0.72502868       0.25048105
C        1.05675105      -2.16494212      -1.17958334
C        2.27706508       0.86260752       0.18339361
C        0.02574381       0.02699699       1.21300997
H       -2.97401801      -0.03640740      -0.70419243
H       -2.65699913       0.93615230       0.73574089
H       -2.80641654      -0.82038135       0.86850307
H       -0.73840089      -1.12162928      -0.51305524
H        0.02071138       0.88543297      -1.78352156
H       -0.64399233       1.95550870      -0.53343931
H        1.68677295      -1.53645171      -1.83667309
H        1.67095113      -2.31610878      -0.27152273
H        2.74284159       1.37501530      -0.65070365
H        2.91736956       0.54502164       0.99837921
H       -0.38579507       0.72417754       1.94919647
H        0.38611775      -0.85814716       1.73790805
19
Frame=2 idx=010404 GeodesicLength=0.3160399467906456 rxn_smarts="[C:1]([C:2]1([H:11])[C:3]([H:12])([H:13])[C:4]2([C:5]([H:14])([H:15])[C:6]2([H:16])[H:17])[C:7]1([H:18])[H:19])([H:8])([H:9])[H:10]>>[C:1]([C:2]1([C:5]([H:11])([H:14])[H:15])[C:3]([H:12])([H:13])[C:4](=[C:6]([H:16])[H:17])[C:7]1([H:18])[H:19])([H:8])([H:9])[H:10]"
C       -2.42357974      -0.01504377       0.24236485
C       -0.93701170      -0.16538387       0.00362996
C       -0.17596107       0.97879359      -0.71971223
C        0.96430049       0.70113630       0.23561422
C        1.05334541      -2.07769509      -1.13615077
C        2.28546119       0.82802861       0.16344334
C        0.02564462       0.02050166       1.20789341
H       -2.97564068      -0.03731304      -0.69985816
H       -2.64905799       0.93319109       0.73810864
H       -2.80265095      -0.82327795       0.87177824
H       -0.75693874      -1.14221265      -0.54630986
H        0.00840730       0.89066294      -1.79074085
H       -0.63831146       1.95172150      -0.52872851
H        1.69790979      -1.50132848      -1.82226186
H        1.65754135      -2.31458662      -0.24228201
H        2.74546549       1.37257663      -0.65340127
H        2.92132529       0.53526265       0.99113034
H       -0.37863135       0.72540391       1.94055928
H        0.37838275      -0.86043741       1.74492325
19
Frame=3 idx=010404 GeodesicLength=0.4741437173335507 rxn_smarts="[C:1]([C:2]1([H:11])[C:3]([H:12])([H:13])[C:4]2([C:5]([H:14])([H:15])[C:6]2([H:16])[H:17])[C:7]1([H:18])[H:19])([H:8])([H:9])[H:10]>>[C:1]([C:2]1([C:5]([H:11])([H:14])[H:15])[C:3]([H:12])([H:13])[C:4](=[C:6]([H:16])[H:17])[C:7]1([H:18])[H:19])([H:8])([H:9])[H:10]"
C       -2.41903636      -0.02091571       0.24298040
C       -0.93345360      -0.17533792      -0.00291589
C       -0.17699848       0.97523272      -0.72290120
C        0.96774562       0.68149648       0.22321093
C        1.04999512      -1.99488695      -1.09329349
C        2.29397212       0.79595705       0.14525244
C        0.02604192       0.01653694       1.20421692
H       -2.97477336      -0.04131781      -0.69720019
H       -2.64194957       0.92763657       0.73915926
H       -2.79656174      -0.82911533       0.87347243
H       -0.77142768      -1.16115904      -0.57980498
H       -0.00198378       0.89731465      -1.79631520
H       -0.63368311       1.94895109      -0.52359993
H        1.70053115      -1.46853849      -1.80963301
H        1.63754874      -2.31295127      -0.21607380
H        2.74916948       1.36648124      -0.65656611
H        2.92558818       0.52599664       0.98396098
H       -0.37285164       0.72835793       1.93293635
H        0.37212699      -0.85973881       1.75311407
19
Frame=4 idx=010404 GeodesicLength=0.6323628421926806 rxn_smarts="[C:1]([C:2]1([H:11])[C:3]([H:12])([H:13])[C:4]2([C:5]([H:14])([H:15])[C:6]2([H:16])[H:17])[C:7]1([H:18])[H:19])([H:8])([H:9])[H:10]>>[C:1]([C:2]1([C:5]([H:11])([H:14])[H:15])[C:3]([H:12])([H:13])[C:4](=[C:6]([H:16])[H:17])[C:7]1([H:18])[H:19])([H:8])([H:9])[H:10]"
C       -2.41327440      -0.02875522       0.24260856
C       -0.92825160      -0.18459660      -0.00887499
C       -0.17738546       0.97336706      -0.72494764
C        0.97124417       0.66577708       0.21310252
C        1.04645491      -1.91616479      -1.05109060
C        2.30255782       0.76607563       0.12867938
C        0.02684956       0.01491499       1.20188855
H       -2.97169813      -0.04819970      -0.69607480
H       -2.63570749       0.91972963       0.73901450
H       -2.78842530      -0.83764436       0.87374473
H       -0.78195901      -1.17860415      -0.61348303
H       -0.01068480       0.90515985      -1.80037638
H       -0.63007597       1.94714733      -0.51809974
H        1.69577001      -1.43765138      -1.79810517
H        1.61152947      -2.31093748      -0.19276391
H        2.75397394       1.35703113      -0.66056383
H        2.93033584       0.51677402       0.97672917
H       -0.36839996       0.73292376       1.92628427
H        0.36714639      -0.85634680       1.76232841
19
Frame=5 idx=010404 GeodesicLength=0.7907041872880501 rxn_smarts="[C:1]([C:2]1([H:11])[C:3]([H:12])([H:13])[C:4]2([C:5]([H:14])([H:15])[C:6]2([H:16])[H:17])[C:7]1([H:18])[H:19])([H:8])([H:9])[H:10]>>[C:1]([C:2]1([C:5]([H:11])([H:14])[H:15])[C:3]([H:12])([H:13])[C:4](=[C:6]([H:16])[H:17])[C:7]1([H:18])[H:19])([H:8])([H:9])[H:10]"
C       -2.40646417      -0.03832150       0.24139579
C       -0.92161677      -0.19313760      -0.01423328
C       -0.17722590       0.97298517      -0.72597477
C        0.97481239       0.65356013       0.20505378
C        1.04257209      -1.84125951      -1.00967062
C        2.31114950       0.73802388       0.11351549
C        0.02799389       0.01542619       1.20078879
H       -2.96666412      -0.05767747      -0.69630018
H       -2.63030277       0.90975451       0.73783428
H       -2.77846605      -0.84852512       0.87280489
H       -0.78865709      -1.19468756      -0.64728810
H       -0.01792097       0.91391010      -1.80310589
H       -0.62743281       1.94619920      -0.51230216
H        1.68478771      -1.40841769      -1.78703238
H        1.57996516      -2.30827530      -0.17230296
H        2.75976335       1.34479175      -0.66545232
H        2.93562794       0.50724667       0.96932962
H       -0.36518124       0.73896770       1.92054985
H        0.36325988      -0.85056357       1.77239016
19
Frame=6 idx=010404 GeodesicLength=0.9491775926922678 rxn_smarts="[C:1]([C:2]1([H:11])[C:3]([H:12])([H:13])[C:4]2([C:5]([H:14])([H:15])[C:6]2([H:16])[H:17])[C:7]1([H:18])[H:19])([H:8])([H:9])[H:10]>>[C:1]([C:2]1([C:5]([H:11])([H:14])[H:15])[C:3]([H:12])([H:13])[C:4](=[C:6]([H:16])[H:17])[C:7]1([H:18])[H:19])([H:8])([H:9])[H:10]"
C       -2.39879047      -0.04937224       0.23947128
C       -0.91378101      -0.20095114      -0.01897461
C       -0.17660040       0.97389030      -0.72611041
C        0.97848687       0.64441449       0.19882161
C        1.03819335      -1.76996238      -0.96909130
C        2.31971344       0.71147638       0.09957498
C        0.02942378       0.01783301       1.20078581
H       -2.95994180      -0.06945986      -0.69770709
H       -2.62568270       0.89801232       0.73573108
H       -2.76694848      -0.86142819       0.87085216
H       -0.79171969      -1.20959222      -0.68110911
H       -0.02390451       0.92330862      -1.80467568
H       -0.62563501       1.94602600      -0.50630850
H        1.66849654      -1.38062725      -1.77590204
H        1.54352654      -2.30471153      -0.15469891
H        2.76640164       1.33026660      -0.67118639
H        2.94150186       0.49727521       0.96175808
H       -0.36304222       0.74633306       1.91564420
H        0.36030227      -0.84273115       1.78312486
19
Frame=7 idx=010404 GeodesicLength=1.107780322812142 rxn_smarts="[C:1]([C:2]1([H:11])[C:3]([H:12])([H:13])[C:4]2([C:5]([H:14])([H:15])[C:6]2([H:16])[H:17])[C:7]1([H:18])[H:19])([H:8])([H:9])[H:10]>>[C:1]([C:2]1([C:5]([H:11])([H:14])[H:15])[C:3]([H:12])([H:13])[C:4](=[C:6]([H:16])[H:17])[C:7]1([H:18])[H:19])([H:8])([H:9])[H:10]"
C       -2.39040641      -0.06164898       0.23697603
C       -0.90496791      -0.20801536      -0.02308963
C       -0.17559622       0.97587778      -0.72548900
C        0.98226264       0.63790412       0.19415180
C        1.03321966      -1.70208124      -0.92943040
C        2.32816950       0.68613777       0.08666252
C        0.03107859       0.02190986       1.20174683
H       -2.95175750      -0.08324250      -0.70011334
H       -2.62177488       0.88480479       0.73283838
H       -2.75408810      -0.87598965       0.86810368
H       -0.79134663      -1.22348151      -0.71484100
H       -0.02884079       0.93309544      -1.80526700
H       -0.62457837       1.94651963      -0.50021558
H        1.64787354      -1.35414762      -1.76425484
H        1.50289228      -2.29995333      -0.13997080
H        2.77369732       1.31395115      -0.67762580
H        2.94789774       0.48665842       0.95396864
H       -0.36184751       0.75486260       1.91148935
H        0.35811307      -0.83316137       1.79436016
19
Frame=8 idx=010404 GeodesicLength=1.2665040913496977 rxn_smarts="[C:1]([C:2]1([H:11])[C:3]([H:12])([H:13])[C:4]2([C:5]([H:14])([H:15])[C:6]2([H:16])[H:17])[C:7]1([H:18])[H:19])([H:8])([H:9])[H:10]>>[C:1]([C:2]1([C:5]([H:11])([H:14])[H:15])[C:3]([H:12])([H:13])[C:4](=[C:6]([H:16])[H:17])[C:7]1([H:18])[H:19])([H:8])([H:9])[H:10]"
C       -2.38146905      -0.07490198       0.23404067
C       -0.89540479      -0.21431260      -0.02656913
C       -0.17429426       0.97876700      -0.72423919
C        0.98612871       0.63362028       0.19080338
C        1.02756238      -1.63744349      -0.89075012
C        2.33644137       0.66175102       0.07460734
C        0.03290187       0.02743709       1.20354419
H       -2.94233599      -0.09873175      -0.70334900
H       -2.61851380       0.87043152       0.72926947
H       -2.74010907      -0.89186312       0.86476793
H       -0.78775957      -1.23653313      -0.74836600
H       -0.03292290       0.94304764      -1.80504948
H       -0.62415240       1.94759767      -0.49412198
H        1.62379081      -1.32885338      -1.75174261
H        1.45885600      -2.29373678      -0.12811925
H        2.78146160       1.29624259      -0.68460514
H        2.95473588       0.47523475       0.94593716
H       -0.36146039       0.76440493       1.90800266
H        0.35654358      -0.82215825       1.80593909
19
Frame=9 idx=010404 GeodesicLength=1.425341982904301 rxn_smarts="[C:1]([C:2]1([H:11])[C:3]([H:12])([H:13])[C:4]2([C:5]([H:14])([H:15])[C:6]2([H:16])[H:17])[C:7]1([H:18])[H:19])([H:8])([H:9])[H:10]>>[C:1]([C:2]1([C:5]([H:11])([H:14])[H:15])[C:3]([H:12])([H:13])[C:4](=[C:6]([H:16])[H:17])[C:7]1([H:18])[H:19])([H:8])([H:9])[H:10]"
C       -2.37211638      -0.08889825       0.23078310
C       -0.88530788      -0.21982589      -0.02941804
C       -0.17277249       0.98237995      -0.72247313
C        0.99006296       0.63116558       0.18856071
C        1.02112652      -1.57589181      -0.85310907
C        2.34444267       0.63808797       0.06324093
C        0.03484710       0.03420570       1.20605519
H       -2.93188549      -0.11564971      -0.70725005
H       -2.61582129       0.85515655       0.72513902
H       -2.72520175      -0.90871826       0.86102542
H       -0.78120582      -1.24888403      -0.78160402
H       -0.03633405       0.95295555      -1.80416935
H       -0.62425497       1.94915971      -0.48809733
H        1.59717190      -1.30465672      -1.73808912
H        1.41213168      -2.28569937      -0.11904900
H        2.78948916       1.27753614      -0.69198436
H        2.96189978       0.46277372       0.93761625
H       -0.36173651       0.77480364       1.90511251
H        0.35546484      -0.81000044       1.81771035
19
Frame=10 idx=010404 GeodesicLength=1.5842930299917415 rxn_smarts="[C:1]([C:2]1([H:11])[C:3]([H:12])([H:13])[C:4]2([C:5]([H:14])([H:15])[C:6]2([H:16])[H:17])[C:7]1([H:18])[H:19])([H:8])([H:9])[H:10]>>[C:1]([C:2]1([C:5]([H:11])([H:14])[H:15])[C:3]([H:12])([H:13])[C:4](=[C:6]([H:16])[H:17])[C:7]1([H:18])[H:19])([H:8])([H:9])[H:10]"
C       -2.36249226      -0.10341177       0.22731729
C       -0.87489169      -0.22453643      -0.03162734
C       -0.17110672       0.98658339      -0.72029627
C        0.99401684       0.63021026       0.18721311
C        1.01384209      -1.51724957      -0.81655576
C        2.35207453       0.61494454       0.05242035
C        0.03684134       0.04203295       1.20916485
H       -2.92058462      -0.13373483      -0.71166746
H       -2.61365328       0.83924878       0.72053553
H       -2.70957978      -0.92624085       0.85706183
H       -0.77190274      -1.26070279      -0.81443593
H       -0.03923444       0.96267117      -1.80276000
H       -0.62479098       1.95114974      -0.48221851
H        1.56868115      -1.28142104      -1.72316147
H        1.36375685      -2.27565511      -0.11264969
H        2.79763570       1.25804117      -0.69957254
H        2.96925232       0.44907878       0.92895547
H       -0.36258860       0.78592683       1.90273699
H        0.35472429      -0.79693522       1.82953955
19
Frame=11 idx=010404 GeodesicLength=1.7433418863047212 rxn_smarts="[C:1]([C:2]1([H:11])[C:3]([H:12])([H:13])[C:4]2([C:5]([H:14])([H:15])[C:6]2([H:16])[H:17])[C:7]1([H:18])[H:19])([H:8])([H:9])[H:10]>>[C:1]([C:2]1([C:5]([H:11])([H:14])[H:15])[C:3]([H:12])([H:13])[C:4](=[C:6]([H:16])[H:17])[C:7]1([H:18])[H:19])([H:8])([H:9])[H:10]"
C       -2.35272878      -0.11824898       0.22373825
C       -0.86435151      -0.22842887      -0.03320693
C       -0.16937125       0.99126274      -0.71779759
C        0.99794880       0.63045011       0.18658154
C        1.00564248      -1.46135231      -0.78114237
C        2.35925400       0.59213543       0.04200444
C        0.03883474       0.05075155       1.21277380
H       -2.90861238      -0.15275331      -0.71647162
H       -2.61197076       0.82292712       0.71555281
H       -2.69342242      -0.94416564       0.85302361
H       -0.76007795      -1.27210961      -0.84680826
H       -0.04178156       0.97208291      -1.80093813
H       -0.62568669       1.95351276      -0.47652667
H        1.53902596      -1.25904382      -1.70691163
H        1.31458188      -2.26339255      -0.10867667
H        2.80576678       1.23797478      -0.70724350
H        2.97665583       0.43393515       0.91991282
H       -0.36391454       0.79764769       1.90081862
H        0.35420739      -0.78318517       1.84131748
19
Frame=12 idx=010404 GeodesicLength=1.9024771543288022 rxn_smarts="[C:1]([C:2]1([H:11])[C:3]([H:12])([H:13])[C:4]2([C:5]([H:14])([H:15])[C:6]2([H:16])[H:17])[C:7]1([H:18])[H:19])([H:8])([H:9])[H:10]>>[C:1]([C:2]1([C:5]([H:11])([H:14])[H:15])[C:3]([H:12])([H:13])[C:4](=[C:6]([H:16])[H:17])[C:7]1([H:18])[H:19])([H:8])([H:9])[H:10]"
C       -2.34294311      -0.13324033       0.22012676
C       -0.85386200      -0.23149326      -0.03416904
C       -0.16763301       0.99633045      -0.71504986
C        1.00181359       0.63162910       0.18650873
C        0.99647678      -1.40802057      -0.74692589
C        2.36589435       0.56949522       0.03187008
C        0.04077999       0.06021701       1.21679112
H       -2.89611924      -0.17250139      -0.72154973
H       -2.61074326       0.80638704       0.71026882
H       -2.67689300      -0.96226078       0.84903591
H       -0.74592954      -1.28322096      -0.87867908
H       -0.04411554       0.98111931      -1.79879762
H       -0.62687715       1.95621414      -0.47104673
H        1.50877794      -1.23740499      -1.68939562
H        1.26546285      -2.24880391      -0.10681181
H        2.81376844       1.21748302      -0.71487746
H        2.98396317       0.41715272       0.91045239
H       -0.36563057       0.80985877       1.89930144
H        0.35380930      -0.76894060       1.85294758
19
Frame=13 idx=010404 GeodesicLength=2.061682695371191 rxn_smarts="[C:1]([C:2]1([H:11])[C:3]([H:12])([H:13])[C:4]2([C:5]([H:14])([H:15])[C:6]2([H:16])[H:17])[C:7]1([H:18])[H:19])([H:8])([H:9])[H:10]>>[C:1]([C:2]1([C:5]([H:11])([H:14])[H:15])[C:3]([H:12])([H:13])[C:4](=[C:6]([H:16])[H:17])[C:7]1([H:18])[H:19])([H:8])([H:9])[H:10]"
C       -2.33323573      -0.14824570       0.21654972
C       -0.84357290      -0.23372102      -0.03453263
C       -0.16595461       1.00172573      -0.71211279
C        1.00556662       0.63353647       0.18685797
C        0.98631803      -1.35706313      -0.71396383
C        2.37191581       0.54688063       0.02190554
C        0.04263875       0.07030716       1.22113804
H       -2.88323293      -0.19280438      -0.72680721
H       -2.60994928       0.78978479       0.70475730
H       -2.66012751      -0.98033832       0.84519833
H       -0.72962110      -1.29413002      -0.91003371
H       -0.04636435       0.98975023      -1.79641682
H       -0.62831532       1.95923254      -0.46578409
H        1.47843143      -1.21638988      -1.67074789
H        1.21714239      -2.23186936      -0.10666452
H        2.82155672       1.19667014      -0.72238121
H        2.99102319       0.39856985       0.90054422
H       -0.36766451       0.82246561       1.89814168
H        0.35344529      -0.75436136       1.86435190
19
Frame=14 idx=010404 GeodesicLength=2.220941346071166 rxn_smarts="[C:1]([C:2]1([H:11])[C:3]([H:12])([H:13])[C:4]2([C:5]([H:14])([H:15])[C:6]2([H:16])[H:17])[C:7]1([H:18])[H:19])([H:8])([H:9])[H:10]>>[C:1]([C:2]1([C:5]([H:11])([H:14])[H:15])[C:3]([H:12])([H:13])[C:4](=[C:6]([H:16])[H:17])[C:7]1([H:18])[H:19])([H:8])([H:9])[H:10]"
C       -2.32369314      -0.16314927       0.21305739
C       -0.83361029      -0.23511032      -0.03431886
C       -0.16439002       1.00740861      -0.70903153
C        1.00917001       0.63600288       0.18751557
C        0.97515729      -1.30828067      -0.68231181
C        2.37724347       0.52417105       0.01201786
C        0.04438190       0.08091955       1.22574586
H       -2.87005685      -0.21352125      -0.73216974
H       -2.60957624       0.77325432       0.69907021
H       -2.64324672      -0.99824143       0.84158935
H       -0.71127843      -1.30493198      -0.94085741
H       -0.04864067       0.99797617      -1.79385479
H       -0.62996233       1.96256247      -0.46073054
H        1.44835269      -1.19587638      -1.65116232
H        1.17029884      -2.21264804      -0.10781750
H        2.82906627       1.17560399      -0.72967463
H        2.99769103       0.37804969       0.89016766
H       -0.36995529       0.83539034       1.89730013
H        0.35304848      -0.73957973       1.87546509
19
Frame=15 idx=010404 GeodesicLength=2.3802356520873946 rxn_smarts="[C:1]([C:2]1([H:11])[C:3]([H:12])([H:13])[C:4]2([C:5]([H:14])([H:15])[C:6]2([H:16])[H:17])[C:7]1([H:18])[H:19])([H:8])([H:9])[H:10]>>[C:1]([C:2]1([C:5]([H:11])([H:14])[H:15])[C:3]([H:12])([H:13])[C:4](=[C:6]([H:16])[H:17])[C:7]1([H:18])[H:19])([H:8])([H:9])[H:10]"
C       -2.31438085      -0.17786366       0.20968888
C       -0.82407268      -0.23565983      -0.03355377
C       -0.16298715       1.01335951      -0.70584170
C        1.01259081       0.63889972       0.18838383
C        0.96301184      -1.26146518      -0.65202098
C        2.38181068       0.50127261       0.00212758
C        0.04599204       0.09197236       1.23055544
H       -2.85666836      -0.23454124      -0.73757736
H       -2.60961403       0.75689185       0.69325576
H       -2.62633874      -1.01585356       0.83826690
H       -0.69098122      -1.31570405      -0.97115096
H       -0.05104466       1.00582577      -1.79115860
H       -0.63179411       1.96620644      -0.45586507
H        1.41884592      -1.17575770      -1.63086087
H        1.12542761      -2.19127455      -0.10984305
H        2.83625534       1.15432824      -0.73669805
H        3.00382175       0.35549672       0.87930975
H       -0.37244876       0.84856672       1.89674747
H        0.35257458      -0.72470016       1.88623481
19
Frame=16 idx=010404 GeodesicLength=2.539550753555371 rxn_smarts="[C:1]([C:2]1([H:11])[C:3]([H:12])([H:13])[C:4]2([C:5]([H:14])([H:15])[C:6]2([H:16])[H:17])[C:7]1([H:18])[H:19])([H:8])([H:9])[H:10]>>[C:1]([C:2]1([C:5]([H:11])([H:14])[H:15])[C:3]([H:12])([H:13])[C:4](=[C:6]([H:16])[H:17])[C:7]1([H:18])[H:19])([H:8])([H:9])[H:10]"
C       -2.30534655      -0.19232299       0.20647251
C       -0.81503478      -0.23537115      -0.03226531
C       -0.16178668       1.01957322      -0.70257050
C        1.01580244       0.64213316       0.18938085
C        0.94991839      -1.21640671      -0.62313439
C        2.38555712       0.47811784      -0.00782791
C        0.04746187       0.10340040       1.23551549
H       -2.84312044      -0.25578042      -0.74298344
H       -2.61005361       0.74076919       0.68735111
H       -2.60946875      -1.03308622       0.83527329
H       -0.66876442      -1.32652269      -1.00091064
H       -0.05366352       1.01334477      -1.78836384
H       -0.63379507       1.97017475      -0.45115995
H        1.39013657      -1.15593845      -1.61007322
H        1.08288351      -2.16793937      -0.11234451
H        2.84309833       1.13286750      -0.74340270
H        3.00927437       0.33085256       0.86796599
H       -0.37509683       0.86193972       1.89646021
H        0.35199805      -0.70980509       1.89661696
