12
Frame=0 idx=005337 GeodesicLength=0.0 rxn_smarts="[C:1]([C@@:2]1([H:10])[C:3]([H:11])([H:12])[C:4](=[O:5])[O:6]1)([H:7])([H:8])[H:9]>>[C:1]([C:2](=[O:6])[H:10])([H:7])([H:8])[H:9].[C:3](=[C:4]=[O:5])([H:11])[H:12]"
C       -1.71275497      -0.15386901       0.23828252
C       -0.37048481      -0.58570541      -0.23819334
C        1.21401684       0.98134389      -0.00839263
C        1.79610823      -0.27208733      -0.10737262
O        2.64568947      -0.91649199      -0.57937153
O        0.44262650      -1.17194414       0.54028679
H       -1.69015882       0.08971049       1.29915423
H       -2.40453851      -0.98926031       0.08756976
H       -2.08073627       0.69046271      -0.34359355
H       -0.23934760      -0.67409087      -1.32066361
H        1.78415034       1.80399920      -0.42810574
H        0.61542957       1.19793281       0.86039967
12
Frame=1 idx=005337 GeodesicLength=0.04921731592029171 rxn_smarts="[C:1]([C@@:2]1([H:10])[C:3]([H:11])([H:12])[C:4](=[O:5])[O:6]1)([H:7])([H:8])[H:9]>>[C:1]([C:2](=[O:6])[H:10])([H:7])([H:8])[H:9].[C:3](=[C:4]=[O:5])([H:11])[H:12]"
C       -1.71354809      -0.14987926       0.23451889
C       -0.37425207      -0.58904062      -0.24430986
C        1.21194869       0.98002785       0.00129892
C        1.80473828      -0.26946629      -0.10482077
O        2.65951030      -0.90424431      -0.58153113
O        0.44178404      -1.18363121       0.52968686
H       -1.68414090       0.10973714       1.29140626
H       -2.41008897      -0.98369880       0.09933694
H       -2.08195642       0.68690129      -0.35840980
H       -0.25709615      -0.69873526      -1.32694061
H        1.76582692       1.80883055      -0.42770049
H        0.63727438       1.19319894       0.88746480
12
Frame=2 idx=005337 GeodesicLength=0.0984178741202546 rxn_smarts="[C:1]([C@@:2]1([H:10])[C:3]([H:11])([H:12])[C:4](=[O:5])[O:6]1)([H:7])([H:8])[H:9]>>[C:1]([C:2](=[O:6])[H:10])([H:7])([H:8])[H:9].[C:3](=[C:4]=[O:5])([H:11])[H:12]"
C       -1.71423770      -0.14582217       0.23063308
C       -0.37801973      -0.59232892      -0.25074326
C        1.20993384       0.97866148       0.01130494
C        1.81346719      -0.26671740      -0.10218964
O        2.67322711      -0.89171884      -0.58386437
O        0.44093673      -1.19508366       0.51885937
H       -1.67780731       0.12999817       1.28317830
H       -2.41540061      -0.97792416       0.11138685
H       -2.08343383       0.68302214      -0.37335322
H       -0.27562363      -0.72413016      -1.33292740
H        1.74745376       1.81355083      -0.42633921
H        0.65950418       1.18849269       0.91405454
12
Frame=3 idx=005337 GeodesicLength=0.14758276756545652 rxn_smarts="[C:1]([C@@:2]1([H:10])[C:3]([H:11])([H:12])[C:4](=[O:5])[O:6]1)([H:7])([H:8])[H:9]>>[C:1]([C:2](=[O:6])[H:10])([H:7])([H:8])[H:9].[C:3](=[C:4]=[O:5])([H:11])[H:12]"
C       -1.71483300      -0.14171561       0.22662218
C       -0.38178616      -0.59555780      -0.25751010
C        1.20799204       0.97725054       0.02160070
C        1.82230505      -0.26383851      -0.09946610
O        2.68683470      -0.87892801      -0.58636230
O        0.44007810      -1.20628036       0.50781237
H       -1.67118437       0.15041746       1.27447062
H       -2.42046057      -0.97194088       0.12366386
H       -2.08519162       0.67883611      -0.38837194
H       -0.29496918      -0.75026927      -1.33855933
H        1.72912269       1.81816300      -0.42401282
H        0.68209232       1.18386332       0.94011284
12
Frame=4 idx=005337 GeodesicLength=0.19675943479814265 rxn_smarts="[C:1]([C@@:2]1([H:10])[C:3]([H:11])([H:12])[C:4](=[O:5])[O:6]1)([H:7])([H:8])[H:9]>>[C:1]([C:2](=[O:6])[H:10])([H:7])([H:8])[H:9].[C:3](=[C:4]=[O:5])([H:11])[H:12]"
C       -1.71534115      -0.13758245       0.22248274
C       -0.38555433      -0.59872973      -0.26464088
C        1.20615294       0.97581979       0.03217255
C        1.83126641      -0.26083140      -0.09662054
O        2.70033272      -0.86590059      -0.58900362
O        0.43919085      -1.21722916       0.49655433
H       -1.66429905       0.17088607       1.26530852
H       -2.42526784      -0.96575884       0.13608167
H       -2.08722820       0.67438811      -0.40339721
H       -0.31516679      -0.77713504      -1.34377212
H        1.71090263       1.82267701      -0.42077493
H        0.70501181       1.17939623       0.96560949
12
Frame=5 idx=005337 GeodesicLength=0.2457848921416425 rxn_smarts="[C:1]([C@@:2]1([H:10])[C:3]([H:11])([H:12])[C:4](=[O:5])[O:6]1)([H:7])([H:8])[H:9]>>[C:1]([C:2](=[O:6])[H:10])([H:7])([H:8])[H:9].[C:3](=[C:4]=[O:5])([H:11])[H:12]"
C       -1.71574420      -0.13340394       0.21822366
C       -0.38928777      -0.60170373      -0.27217163
C        1.20440601       0.97429948       0.04307357
C        1.84036265      -0.25771889      -0.09357008
O        2.71375971      -0.85263468      -0.59165204
O        0.43829004      -1.22787656       0.48501013
H       -1.65716552       0.19128643       1.25569332
H       -2.42977777      -0.95935665       0.14853254
H       -2.08952005       0.66973415      -0.41829338
H       -0.33617456      -0.80461966      -1.34857760
H        1.69257611       1.82689194      -0.41695548
H        0.72827534       1.17510213       0.99068699
12
Frame=6 idx=005337 GeodesicLength=0.2947966940918854 rxn_smarts="[C:1]([C@@:2]1([H:10])[C:3]([H:11])([H:12])[C:4](=[O:5])[O:6]1)([H:7])([H:8])[H:9]>>[C:1]([C:2](=[O:6])[H:10])([H:7])([H:8])[H:9].[C:3](=[C:4]=[O:5])([H:11])[H:12]"
C       -1.71605373      -0.12920577       0.21381766
C       -0.39302638      -0.60461995      -0.28011674
C        1.20276500       0.97274671       0.05424306
C        1.84959192      -0.25447238      -0.09037786
O        2.72709849      -0.83911102      -0.59440059
O        0.43735223      -1.23827712       0.47321253
H       -1.64977637       0.21167416       1.24560799
H       -2.43401027      -0.95274240       0.16107547
H       -2.09209789       0.66484140      -0.43315585
H       -0.35809938      -0.83282597      -1.35284813
H        1.67440920       1.83100368      -0.41224735
H        0.75184718       1.17098865       1.01518981
12
Frame=7 idx=005337 GeodesicLength=0.34376285628197356 rxn_smarts="[C:1]([C@@:2]1([H:10])[C:3]([H:11])([H:12])[C:4](=[O:5])[O:6]1)([H:7])([H:8])[H:9]>>[C:1]([C:2](=[O:6])[H:10])([H:7])([H:8])[H:9].[C:3](=[C:4]=[O:5])([H:11])[H:12]"
C       -1.71623472      -0.12496393       0.20923615
C       -0.39673727      -0.60743682      -0.28855921
C        1.20122728       0.97110345       0.06574622
C        1.85897079      -0.25111280      -0.08700894
O        2.74036982      -0.82528789      -0.59723402
O        0.43638249      -1.24841765       0.46110078
H       -1.64209233       0.23208047       1.23500116
H       -2.43792353      -0.94589536       0.17372848
H       -2.09496832       0.65970026      -0.44800762
H       -0.38100193      -0.86175103      -1.35650998
H        1.65626084       1.83493281      -0.40671944
H        0.77574687       1.16704849       1.03922643
12
Frame=8 idx=005337 GeodesicLength=0.39270424779592206 rxn_smarts="[C:1]([C@@:2]1([H:10])[C:3]([H:11])([H:12])[C:4](=[O:5])[O:6]1)([H:7])([H:8])[H:9]>>[C:1]([C:2](=[O:6])[H:10])([H:7])([H:8])[H:9].[C:3](=[C:4]=[O:5])([H:11])[H:12]"
C       -1.71628745      -0.12068382       0.20448912
C       -0.40043645      -0.61013228      -0.29751330
C        1.19978539       0.96937813       0.07759007
C        1.86850139      -0.24764856      -0.08341704
O        2.75360602      -0.81120333      -0.60005755
O        0.43537692      -1.25832607       0.44863730
H       -1.63414110       0.25238909       1.22391061
H       -2.44151206      -0.93880215       0.18639773
H       -2.09808778       0.65438802      -0.46274540
H       -0.40482034      -0.89130455      -1.35955252
H        1.63803457       1.83862771      -0.40059060
H        0.79998088       1.16331781       1.06285159
12
Frame=9 idx=005337 GeodesicLength=0.4416425718801089 rxn_smarts="[C:1]([C@@:2]1([H:10])[C:3]([H:11])([H:12])[C:4](=[O:5])[O:6]1)([H:7])([H:8])[H:9]>>[C:1]([C:2](=[O:6])[H:10])([H:7])([H:8])[H:9].[C:3](=[C:4]=[O:5])([H:11])[H:12]"
C       -1.71617544      -0.11635701       0.19953956
C       -0.40411124      -0.61274733      -0.30708029
C        1.19842101       0.96754210       0.08976186
C        1.87818762      -0.24408037      -0.07961445
O        2.76681421      -0.79680480      -0.60287944
O        0.43433818      -1.26799737       0.43579453
H       -1.62587670       0.27258978       1.21230924
H       -2.44475586      -0.93143054       0.19907728
H       -2.10144658       0.64892185      -0.47739105
H       -0.42967980      -0.92156871      -1.36181638
H        1.61975508       1.84210644      -0.39374252
H        0.82452950       1.15982598       1.08604165
12
Frame=10 idx=005337 GeodesicLength=0.4904599304630766 rxn_smarts="[C:1]([C@@:2]1([H:10])[C:3]([H:11])([H:12])[C:4](=[O:5])[O:6]1)([H:7])([H:8])[H:9]>>[C:1]([C:2](=[O:6])[H:10])([H:7])([H:8])[H:9].[C:3](=[C:4]=[O:5])([H:11])[H:12]"
C       -1.71589858      -0.11200093       0.19440369
C       -0.40775641      -0.61527923      -0.31725217
C        1.19713386       0.96555748       0.10223503
C        1.88803820      -0.24040814      -0.07556011
O        2.78003210      -0.78208414      -0.60559010
O        0.43326089      -1.27741718       0.42254098
H       -1.61730746       0.29258704       1.20023816
H       -2.44765608      -0.92378090       0.21170230
H       -2.10503473       0.64333974      -0.49186342
H       -0.45554901      -0.95235387      -1.36326166
H        1.60139795       1.84527815      -0.38630927
H        0.84933928       1.15656198       1.10871659
12
Frame=11 idx=005337 GeodesicLength=0.5392538769994565 rxn_smarts="[C:1]([C@@:2]1([H:10])[C:3]([H:11])([H:12])[C:4](=[O:5])[O:6]1)([H:7])([H:8])[H:9]>>[C:1]([C:2](=[O:6])[H:10])([H:7])([H:8])[H:9].[C:3](=[C:4]=[O:5])([H:11])[H:12]"
C       -1.71546665      -0.10761742       0.18909849
C       -0.41140086      -0.61769345      -0.32804546
C        1.19591816       0.96345052       0.11502177
C        1.89804468      -0.23664494      -0.07121185
O        2.79327179      -0.76708997      -0.60809718
O        0.43215307      -1.28663483       0.40882786
H       -1.60846459       0.31233277       1.18776588
H       -2.45017667      -0.91589725       0.22423335
H       -2.10886473       0.63770608      -0.50611099
H       -0.48236775      -0.98359505      -1.36395238
H        1.58290940       1.84810242      -0.37843094
H        0.87444417       1.15358112       1.13090144
12
Frame=12 idx=005337 GeodesicLength=0.5880923592153536 rxn_smarts="[C:1]([C@@:2]1([H:10])[C:3]([H:11])([H:12])[C:4](=[O:5])[O:6]1)([H:7])([H:8])[H:9]>>[C:1]([C:2](=[O:6])[H:10])([H:7])([H:8])[H:9].[C:3](=[C:4]=[O:5])([H:11])[H:12]"
C       -1.71481735      -0.10320285       0.18358173
C       -0.41504199      -0.62005885      -0.33960701
C        1.19472507       0.96118471       0.12811944
C        1.90821137      -0.23283865      -0.06656839
O        2.80656031      -0.75184223      -0.61043075
O        0.43099439      -1.29567759       0.39460472
H       -1.59929232       0.33173430       1.17484455
H       -2.45233159      -0.90769691       0.23662201
H       -2.11280708       0.63207653      -0.52009829
H       -0.51015546      -1.01528453      -1.36363356
H        1.56414645       1.85060322      -0.37014218
H        0.89980822       1.15100285       1.15270773
12
Frame=13 idx=005337 GeodesicLength=0.6367053133509408 rxn_smarts="[C:1]([C@@:2]1([H:10])[C:3]([H:11])([H:12])[C:4](=[O:5])[O:6]1)([H:7])([H:8])[H:9]>>[C:1]([C:2](=[O:6])[H:10])([H:7])([H:8])[H:9].[C:3](=[C:4]=[O:5])([H:11])[H:12]"
C       -1.71394631      -0.09876303       0.17785866
C       -0.41867518      -0.62238268      -0.35188924
C        1.19354727       0.95864597       0.14148379
C        1.91852749      -0.22893394      -0.06162807
O        2.81992995      -0.73617308      -0.61242431
O        0.42980441      -1.30446353       0.37984130
H       -1.58975969       0.35083206       1.16148026
H       -2.45408072      -0.89919672       0.24891399
H       -2.11695455       0.62638667      -0.53384908
H       -0.53897110      -1.04718852      -1.36228447
H        1.54516974       1.85258327      -0.36137913
H        0.92540868       1.14865354       1.17387628
12
Frame=14 idx=005337 GeodesicLength=0.6853910825437988 rxn_smarts="[C:1]([C@@:2]1([H:10])[C:3]([H:11])([H:12])[C:4](=[O:5])[O:6]1)([H:7])([H:8])[H:9]>>[C:1]([C:2](=[O:6])[H:10])([H:7])([H:8])[H:9].[C:3](=[C:4]=[O:5])([H:11])[H:12]"
C       -1.71283649      -0.09429965       0.17194036
C       -0.42232711      -0.62469478      -0.36496527
C        1.19234164       0.95590368       0.15512915
C        1.92898786      -0.22500178      -0.05634878
O        2.83340809      -0.72024665      -0.61405445
O        0.42859325      -1.31311998       0.36449685
H       -1.57989556       0.36941681       1.14781176
H       -2.45546139      -0.89038059       0.26092703
H       -2.12114438       0.62087262      -0.54722629
H       -0.56869243      -1.07934239      -1.35988420
H        1.52577314       1.85410187      -0.35240516
H        0.95125338       1.14679084       1.19457900
12
Frame=15 idx=005337 GeodesicLength=0.7340874291131279 rxn_smarts="[C:1]([C@@:2]1([H:10])[C:3]([H:11])([H:12])[C:4](=[O:5])[O:6]1)([H:7])([H:8])[H:9]>>[C:1]([C:2](=[O:6])[H:10])([H:7])([H:8])[H:9].[C:3](=[C:4]=[O:5])([H:11])[H:12]"
C       -1.71146780      -0.08981123       0.16581972
C       -0.42600747      -0.62703574      -0.37887081
C        1.19107620       0.95288293       0.16904207
C        1.93958143      -0.22105372      -0.05073111
O        2.84702318      -0.70401288      -0.61525165
O        0.42736690      -1.32164931       0.34853008
H       -1.56966557       0.38755983       1.13382116
H       -2.45642393      -0.88125763       0.27275010
H       -2.12543424       0.61547492      -0.56028449
H       -0.59928837      -1.11152842      -1.35637366
H        1.50591986       1.85506752      -0.34318973
H        0.97731981       1.14536370       1.21473833
12
Frame=16 idx=005337 GeodesicLength=0.7827784339631554 rxn_smarts="[C:1]([C@@:2]1([H:10])[C:3]([H:11])([H:12])[C:4](=[O:5])[O:6]1)([H:7])([H:8])[H:9]>>[C:1]([C:2](=[O:6])[H:10])([H:7])([H:8])[H:9].[C:3](=[C:4]=[O:5])([H:11])[H:12]"
C       -1.70981094      -0.08529690       0.15948692
C       -0.42973311      -0.62943644      -0.39361488
C        1.18971945       0.94951789       0.18324845
C        1.95029054      -0.21710258      -0.04475500
O        2.86077813      -0.68742440      -0.61597002
O        0.42612544      -1.33006030       0.33189161
H       -1.55905356       0.40520356       1.11950795
H       -2.45697485      -0.87178635       0.28433593
H       -2.12973679       0.61023497      -0.57298814
H       -0.63068790      -1.14361245      -1.35166309
H        1.48543007       1.85535300      -0.33383388
H        1.00365353       1.14441000       1.23435415
