14
Frame=0 idx=009987 GeodesicLength=0.0 rxn_smarts="[O:1]([C:2]([C@@:3]1([C:6](=[O:7])[H:14])[C:4]([H:11])([H:12])[N:5]1[H:13])([H:9])[H:10])[H:8]>>[O:1]([C:2]([C@@:3]1([C:6](=[O:7])[H:14])[C-:4]([H:12])[N+:5]1([H:11])[H:13])([H:9])[H:10])[H:8]"
O        2.26661169      -0.29145604       0.00183200
C        1.24516609       0.43397455      -0.61639522
C       -0.12267294       0.08834552      -0.05422262
C       -0.31521148      -1.26930506       0.53589285
N       -0.30782003       0.23384272       1.37234612
C       -1.29929180       0.59830141      -0.83144394
O       -2.35875854       0.86800885      -0.33101122
H        1.90208863      -1.16525317       0.20057190
H        1.45307049       1.49701486      -0.46952799
H        1.21533365       0.24210856      -1.70004471
H        0.11022323      -0.80685552       1.72232231
H       -1.36509424      -1.56713013       0.50914220
H       -1.28265629       0.43997477       1.58180309
H       -1.14098849       0.69842866      -1.92126477
14
Frame=1 idx=009987 GeodesicLength=0.08380471731687802 rxn_smarts="[O:1]([C:2]([C@@:3]1([C:6](=[O:7])[H:14])[C:4]([H:11])([H:12])[N:5]1[H:13])([H:9])[H:10])[H:8]>>[O:1]([C:2]([C@@:3]1([C:6](=[O:7])[H:14])[C-:4]([H:12])[N+:5]1([H:11])[H:13])([H:9])[H:10])[H:8]"
O        2.28498841      -0.26036748      -0.00159155
C        1.24051189       0.41996150      -0.62946237
C       -0.12534618       0.08709207      -0.06012524
C       -0.33418764      -1.27396291       0.51611975
N       -0.30825728       0.20164744       1.36900864
C       -1.30088984       0.62300066      -0.82122030
O       -2.35542763       0.89756299      -0.31257130
H        1.94308541      -1.11089731       0.30262047
H        1.43721368       1.49121070      -0.53045970
H        1.21644539       0.18572970      -1.70462981
H        0.11712425      -0.84917057       1.71257485
H       -1.38525133      -1.56620820       0.48283340
H       -1.27633211       0.42585117       1.58921664
H       -1.15367701       0.72855024      -1.91231347
14
Frame=2 idx=009987 GeodesicLength=0.16707133942335173 rxn_smarts="[O:1]([C:2]([C@@:3]1([C:6](=[O:7])[H:14])[C:4]([H:11])([H:12])[N:5]1[H:13])([H:9])[H:10])[H:8]>>[O:1]([C:2]([C@@:3]1([C:6](=[O:7])[H:14])[C-:4]([H:12])[N+:5]1([H:11])[H:13])([H:9])[H:10])[H:8]"
O        2.30122307      -0.23344327      -0.00738456
C        1.23611467       0.40470821      -0.64217509
C       -0.12797683       0.08563242      -0.06569227
C       -0.35292969      -1.27867773       0.49658865
N       -0.30919068       0.16916667       1.36532175
C       -1.30163508       0.64736491      -0.81057149
O       -2.35120334       0.92656540      -0.29377430
H        1.98190461      -1.04511651       0.40397936
H        1.42321614       1.48154292      -0.59093093
H        1.21710242       0.12934394      -1.70739549
H        0.12366069      -0.89207035       1.70179497
H       -1.40516320      -1.56505184       0.45643363
H       -1.27000244       0.41118236       1.59649316
H       -1.16512034       0.75885285      -1.90268740
14
Frame=3 idx=009987 GeodesicLength=0.24979723441312915 rxn_smarts="[O:1]([C:2]([C@@:3]1([C:6](=[O:7])[H:14])[C:4]([H:11])([H:12])[N:5]1[H:13])([H:9])[H:10])[H:8]>>[O:1]([C:2]([C@@:3]1([C:6](=[O:7])[H:14])[C-:4]([H:12])[N+:5]1([H:11])[H:13])([H:9])[H:10])[H:8]"
O        2.31537101      -0.21097402      -0.01449001
C        1.23203916       0.38808065      -0.65452457
C       -0.13056773       0.08387168      -0.07091327
C       -0.37175460      -1.28362257       0.47717810
N       -0.31062207       0.13612660       1.36133107
C       -1.30149709       0.67163021      -0.79936009
O       -2.34608646       0.95525680      -0.27443664
H        2.01848091      -0.96648892       0.50369580
H        1.41111054       1.46800641      -0.65119341
H        1.21759924       0.07229279      -1.70828849
H        0.13016711      -0.93586368       1.68965258
H       -1.42522754      -1.56365032       0.42988334
H       -1.26366960       0.39576476       1.60373350
H       -1.17534288       0.78956960      -1.89226791
14
Frame=4 idx=009987 GeodesicLength=0.33167202692031156 rxn_smarts="[O:1]([C:2]([C@@:3]1([C:6](=[O:7])[H:14])[C:4]([H:11])([H:12])[N:5]1[H:13])([H:9])[H:10])[H:8]>>[O:1]([C:2]([C@@:3]1([C:6](=[O:7])[H:14])[C-:4]([H:12])[N+:5]1([H:11])[H:13])([H:9])[H:10])[H:8]"
O        2.32718818      -0.19402041      -0.02237570
C        1.22827033       0.36993450      -0.66637294
C       -0.13311155       0.08168465      -0.07579570
C       -0.39101788      -1.28882480       0.45776047
N       -0.31251803       0.10229010       1.35705003
C       -1.30025346       0.69600813      -0.78748251
O       -2.33987941       0.98363990      -0.25450361
H        2.05238939      -0.87319603       0.60084719
H        1.40115986       1.45040481      -0.71054334
H        1.21786317       0.01477815      -1.70731963
H        0.13719544      -0.98065740       1.67563934
H       -1.44579125      -1.56178654       0.40314587
H       -1.25717552       0.37951830       1.61100446
H       -1.18431927       0.82022665      -1.88105392
14
Frame=5 idx=009987 GeodesicLength=0.4127956868306177 rxn_smarts="[O:1]([C:2]([C@@:3]1([C:6](=[O:7])[H:14])[C:4]([H:11])([H:12])[N:5]1[H:13])([H:9])[H:10])[H:8]>>[O:1]([C:2]([C@@:3]1([C:6](=[O:7])[H:14])[C-:4]([H:12])[N+:5]1([H:11])[H:13])([H:9])[H:10])[H:8]"
O        2.33640745      -0.18198717      -0.02861840
C        1.22484030       0.34999253      -0.67767265
C       -0.13571520       0.07874812      -0.08039693
C       -0.41120986      -1.29461944       0.43822227
N       -0.31487234       0.06719240       1.35247501
C       -1.29789502       0.72059919      -0.77483556
O       -2.33238008       1.01241908      -0.23364576
H        2.08369226      -0.76382350       0.69320092
H        1.39303522       1.42860942      -0.76954171
H        1.21855640      -0.04447681      -1.70412605
H        0.14541326      -1.02688437       1.65908383
H       -1.46751220      -1.55939631       0.37630824
H       -1.25045646       0.36217435       1.61844189
H       -1.19190374       0.85145250      -1.86889509
14
Frame=6 idx=009987 GeodesicLength=0.49319038722629466 rxn_smarts="[O:1]([C:2]([C@@:3]1([C:6](=[O:7])[H:14])[C:4]([H:11])([H:12])[N:5]1[H:13])([H:9])[H:10])[H:8]>>[O:1]([C:2]([C@@:3]1([C:6](=[O:7])[H:14])[C-:4]([H:12])[N+:5]1([H:11])[H:13])([H:9])[H:10])[H:8]"
O        2.34221858      -0.17348235      -0.03055130
C        1.22148912       0.32806245      -0.68813207
C       -0.13855393       0.07464351      -0.08478088
C       -0.43287393      -1.30121388       0.41841741
N       -0.31758125       0.03041105       1.34750869
C       -1.29423371       0.74521911      -0.76134249
O       -2.32293321       1.04218264      -0.21157346
H        2.11226201      -0.63788274       0.77777934
H        1.38606421       1.40235796      -0.82844197
H        1.22023394      -0.10665288      -1.69785371
H        0.15555765      -1.07476212       1.63903860
H       -1.49093876      -1.55621729       0.34945197
H       -1.24313281       0.34364706       1.62601571
H       -1.19757791       0.88368749      -1.85553586
14
Frame=7 idx=009987 GeodesicLength=0.5730935770251891 rxn_smarts="[O:1]([C:2]([C@@:3]1([C:6](=[O:7])[H:14])[C:4]([H:11])([H:12])[N:5]1[H:13])([H:9])[H:10])[H:8]>>[O:1]([C:2]([C@@:3]1([C:6](=[O:7])[H:14])[C-:4]([H:12])[N+:5]1([H:11])[H:13])([H:9])[H:10])[H:8]"
O        2.34481652      -0.16547557      -0.02524993
C        1.21844213       0.30442648      -0.69740174
C       -0.14164761       0.06916334      -0.08905829
C       -0.45647575      -1.30868549       0.39831965
N       -0.32039720      -0.00834077       1.34215242
C       -1.28919719       0.76994770      -0.74694013
O       -2.31126714       1.07331722      -0.18792705
H        2.13661753      -0.49761920       0.85073530
H        1.37971639       1.37176911      -0.88794537
H        1.22433651      -0.17255824      -1.68738667
H        0.16792780      -1.12458291       1.61490945
H       -1.51668209      -1.55196544       0.32290055
H       -1.23477000       0.32397260       1.63393661
H       -1.20141992       0.91663119      -1.84104480
14
Frame=8 idx=009987 GeodesicLength=0.6526679683343226 rxn_smarts="[O:1]([C:2]([C@@:3]1([C:6](=[O:7])[H:14])[C:4]([H:11])([H:12])[N:5]1[H:13])([H:9])[H:10])[H:8]>>[O:1]([C:2]([C@@:3]1([C:6](=[O:7])[H:14])[C-:4]([H:12])[N+:5]1([H:11])[H:13])([H:9])[H:10])[H:8]"
O        2.34458724      -0.15462490      -0.01127708
C        1.21591842       0.27951278      -0.70516430
C       -0.14487711       0.06223933      -0.09338303
C       -0.48207031      -1.31690309       0.37785673
N       -0.32297367      -0.04900669       1.33622572
C       -1.28253841       0.79485062      -0.73143206
O       -2.29694417       1.10583073      -0.16227654
H        2.15437705      -0.34666194       0.90936228
H        1.37346042       1.33690576      -0.94851217
H        1.23211128      -0.24234516      -1.67154243
H        0.18208397      -1.17640939       1.58633269
H       -1.54476915      -1.54633458       0.29686870
H       -1.22474919       0.30333596       1.64226644
H       -1.20361637       0.94961057      -1.82532496
14
Frame=9 idx=009987 GeodesicLength=0.7323580563755193 rxn_smarts="[O:1]([C:2]([C@@:3]1([C:6](=[O:7])[H:14])[C:4]([H:11])([H:12])[N:5]1[H:13])([H:9])[H:10])[H:8]>>[O:1]([C:2]([C@@:3]1([C:6](=[O:7])[H:14])[C-:4]([H:12])[N+:5]1([H:11])[H:13])([H:9])[H:10])[H:8]"
O        2.34160474      -0.13874160       0.01105410
C        1.21399676       0.25361184      -0.71132066
C       -0.14818358       0.05382221      -0.09793685
C       -0.50945049      -1.32569433       0.35706911
N       -0.32504017      -0.09135070       1.32953160
C       -1.27412448       0.81976277      -0.71475128
O       -2.27971516       1.13937744      -0.13443885
H        2.16406517      -0.18814295       0.95267895
H        1.36709307       1.29760946      -1.01001702
H        1.24419523      -0.31549477      -1.64956695
H        0.19715561      -1.23014757       1.55337038
H       -1.57490400      -1.53918753       0.27164164
H       -1.21259288       0.28190950       1.65093868
H       -1.20409981       0.98266622      -1.80825285
14
Frame=10 idx=009987 GeodesicLength=0.8123049525733441 rxn_smarts="[O:1]([C:2]([C@@:3]1([C:6](=[O:7])[H:14])[C:4]([H:11])([H:12])[N:5]1[H:13])([H:9])[H:10])[H:8]>>[O:1]([C:2]([C@@:3]1([C:6](=[O:7])[H:14])[C-:4]([H:12])[N+:5]1([H:11])[H:13])([H:9])[H:10])[H:8]"
O        2.33608732      -0.11570658       0.04041720
C        1.21271334       0.22719396      -0.71577550
C       -0.15159193       0.04400389      -0.10283021
C       -0.53825634      -1.33480569       0.33632906
N       -0.32646804      -0.13484820       1.32204532
C       -1.26409784       0.84428038      -0.69715424
O       -2.25974273       1.17338944      -0.10471677
H        2.16533529      -0.02677154       0.98054279
H        1.36027485       1.25398632      -1.07213039
H        1.26092128      -0.39093055      -1.62083923
H        0.21233631      -1.28534549       1.51660744
H       -1.60665716      -1.53053110       0.24767024
H       -1.19819948       0.25988358       1.65983247
H       -1.20265488       1.01620158      -1.78999819
14
Frame=11 idx=009987 GeodesicLength=0.8926076394419011 rxn_smarts="[O:1]([C:2]([C@@:3]1([C:6](=[O:7])[H:14])[C:4]([H:11])([H:12])[N:5]1[H:13])([H:9])[H:10])[H:8]>>[O:1]([C:2]([C@@:3]1([C:6](=[O:7])[H:14])[C-:4]([H:12])[N+:5]1([H:11])[H:13])([H:9])[H:10])[H:8]"
O        2.32772411      -0.08547490       0.07497447
C        1.21214818       0.20042841      -0.71853949
C       -0.15506978       0.03292671      -0.10817319
C       -0.56814558      -1.34399752       0.31576141
N       -0.32723083      -0.17914155       1.31364614
C       -1.25238260       0.86833847      -0.67864573
O       -2.23710979       1.20726118      -0.07323960
H        2.15780700       0.13561144       0.99345396
H        1.35339865       1.20591035      -1.13394314
H        1.28217477      -0.46731154      -1.58515139
H        0.22686588      -1.34174186       1.47634679
H       -1.63955891      -1.52037433       0.22518767
H       -1.18148506       0.23734212       1.66881689
H       -1.19913604       1.05022302      -1.77049478
14
Frame=12 idx=009987 GeodesicLength=0.9734207772234157 rxn_smarts="[O:1]([C:2]([C@@:3]1([C:6](=[O:7])[H:14])[C:4]([H:11])([H:12])[N:5]1[H:13])([H:9])[H:10])[H:8]>>[O:1]([C:2]([C@@:3]1([C:6](=[O:7])[H:14])[C-:4]([H:12])[N+:5]1([H:11])[H:13])([H:9])[H:10])[H:8]"
O        2.31618256      -0.04781136       0.11313789
C        1.21233985       0.17335385      -0.71960986
C       -0.15862790       0.02072329      -0.11404813
C       -0.59879181      -1.35310447       0.29548258
N       -0.32736032      -0.22394301       1.30428604
C       -1.23899713       0.89182299      -0.65927083
O       -2.21191873       1.24057600      -0.04014744
H        2.14123549       0.29730044       0.99192133
H        1.34657958       1.15313497      -1.19492129
H        1.30782978      -0.54374578      -1.54214496
H        0.24039820      -1.39901879       1.43281756
H       -1.67317124      -1.50879538       0.20433137
H       -1.16251529       0.21417657       1.67779444
H       -1.19318302       1.08533066      -1.74962871
14
Frame=13 idx=009987 GeodesicLength=1.0554317082520923 rxn_smarts="[O:1]([C:2]([C@@:3]1([C:6](=[O:7])[H:14])[C:4]([H:11])([H:12])[N:5]1[H:13])([H:9])[H:10])[H:8]>>[O:1]([C:2]([C@@:3]1([C:6](=[O:7])[H:14])[C-:4]([H:12])[N+:5]1([H:11])[H:13])([H:9])[H:10])[H:8]"
O        2.30080491      -0.00259998       0.15369472
C        1.21331199       0.14582809      -0.71895026
C       -0.16232969       0.00745122      -0.12049637
C       -0.63001944      -1.36212021       0.27548597
N       -0.32699931      -0.26927872       1.29394258
C       -1.22392408       0.91471994      -0.63891583
O       -2.18421129       1.27308400      -0.00535797
H        2.11549038       0.45811217       0.97596234
H        1.34006131       1.09497449      -1.25498831
H        1.33775311      -0.61986230      -1.49107590
H        0.25276935      -1.45710703       1.38595970
H       -1.70722046      -1.49593856       0.18500155
H       -1.14145876       0.19003580       1.68673814
H       -1.18402801       1.12270110      -1.72700036
14
Frame=14 idx=009987 GeodesicLength=1.1388484508319778 rxn_smarts="[O:1]([C:2]([C@@:3]1([C:6](=[O:7])[H:14])[C:4]([H:11])([H:12])[N:5]1[H:13])([H:9])[H:10])[H:8]>>[O:1]([C:2]([C@@:3]1([C:6](=[O:7])[H:14])[C-:4]([H:12])[N+:5]1([H:11])[H:13])([H:9])[H:10])[H:8]"
O        2.28093278       0.04891609       0.19515082
C        1.21501172       0.11818917      -0.71638695
C       -0.16624770      -0.00656839      -0.12744754
C       -0.66135657      -1.37079539       0.25612286
N       -0.32636950      -0.31456767       1.28271827
C       -1.20738087       0.93674013      -0.61784710
O       -2.15463014       1.30394841       0.03043035
H        2.08178273       0.61564387       0.94525592
H        1.33426016       1.03203020      -1.31240815
H        1.37111941      -0.69378397      -1.43208557
H        0.26390429      -1.51515617       1.33635648
H       -1.74109158      -1.48207657       0.16738715
H       -1.11881316       0.16504277       1.69541123
H       -1.17112157       1.16243752      -1.70265778
14
Frame=15 idx=009987 GeodesicLength=1.2237283381259152 rxn_smarts="[O:1]([C:2]([C@@:3]1([C:6](=[O:7])[H:14])[C:4]([H:11])([H:12])[N:5]1[H:13])([H:9])[H:10])[H:8]>>[O:1]([C:2]([C@@:3]1([C:6](=[O:7])[H:14])[C-:4]([H:12])[N+:5]1([H:11])[H:13])([H:9])[H:10])[H:8]"
O        2.25641808       0.10610831       0.23587233
C        1.21739923       0.09085170      -0.71182643
C       -0.17041662      -0.02102210      -0.13486740
C       -0.69230040      -1.37899348       0.23770434
N       -0.32571621      -0.35925213       1.27071710
C       -1.18970437       0.95753492      -0.59643149
O       -2.12366538       1.33279667       0.06663453
H        2.04095976       0.76653991       0.90053794
H        1.32918302       0.96514285      -1.36599503
H        1.40722967      -0.76371133      -1.36563244
H        0.27392048      -1.57231692       1.28459162
H       -1.77419112      -1.46756405       0.15180103
H       -1.09507563       0.13946345       1.70363499
H       -1.15404051       1.20442221      -1.67674108
14
Frame=16 idx=009987 GeodesicLength=1.309915765155826 rxn_smarts="[O:1]([C:2]([C@@:3]1([C:6](=[O:7])[H:14])[C:4]([H:11])([H:12])[N:5]1[H:13])([H:9])[H:10])[H:8]>>[O:1]([C:2]([C@@:3]1([C:6](=[O:7])[H:14])[C-:4]([H:12])[N+:5]1([H:11])[H:13])([H:9])[H:10])[H:8]"
O        2.22728578       0.16677963       0.27453543
C        1.22032167       0.06447526      -0.70517909
C       -0.17489252      -0.03537122      -0.14251955
C       -0.72221279      -1.38649922       0.22063776
N       -0.32537857      -0.40251144       1.25824336
C       -1.17156787       0.97668482      -0.57521936
O       -2.09254644       1.35883928       0.10218314
H        1.99605013       0.90764701       0.84281132
H        1.32508406       0.89612005      -1.41399780
H        1.44455225      -0.82752723      -1.29314881
H        0.28292011      -1.62748103       1.23176364
H       -1.80579897      -1.45299209       0.13828456
H       -1.07116130       0.11371417       1.71119288
H       -1.13265554       1.24812200      -1.64958748
