14
Frame=0 idx=003800 GeodesicLength=0.0 rxn_smarts="[C:1]([C@@:2]1([H:10])[C@@:3]2([H:11])[C:4]([H:12])([H:13])[O:5][C@@:6]12[H:14])([H:7])([H:8])[H:9]>>[C:1](=[C:2]([C@@:6]1([H:14])[C:3]([H:11])=[C:4]([H:13])[O:5]1)[H:10])([H:7])[H:8].[H:9][H:12]"
C        1.49090202      -0.09900262       0.63945504
C        0.79731978       0.85337344      -0.07737968
C       -0.94472782       0.22761817      -1.04221335
C       -1.30262955      -0.75580811      -0.14571733
O       -1.19814801       0.05623456       0.98978733
C       -0.64824570       1.09722791       0.13243924
H        1.24360576      -0.25636948       1.68223765
H        2.51948610      -0.30072456       0.36297618
H        0.76256511      -1.34461095       0.29587635
H        1.24387191       1.34872038      -0.93179635
H       -0.85618483       0.32732177      -2.10923549
H       -0.06099461      -1.64371981       0.04211824
H       -1.98488910      -1.59457124      -0.16366306
H       -1.06193104       2.08431048       0.32511527
14
Frame=1 idx=003800 GeodesicLength=0.08677029523648196 rxn_smarts="[C:1]([C@@:2]1([H:10])[C@@:3]2([H:11])[C:4]([H:12])([H:13])[O:5][C@@:6]12[H:14])([H:7])([H:8])[H:9]>>[C:1](=[C:2]([C@@:6]1([H:14])[C:3]([H:11])=[C:4]([H:13])[O:5]1)[H:10])([H:7])[H:8].[H:9][H:12]"
C        1.49947953      -0.09937084       0.63286176
C        0.79760072       0.84718253      -0.08812244
C       -0.93790831       0.22511015      -1.04533407
C       -1.30338341      -0.75985054      -0.14880066
O       -1.19858149       0.05304824       0.98702005
C       -0.64620854       1.09333651       0.13218525
H        1.24495692      -0.25661473       1.67410386
H        2.53965542      -0.26474812       0.37576336
H        0.77244767      -1.36986489       0.30947371
H        1.24596491       1.36363463      -0.92882732
H       -0.87357420       0.33954329      -2.11261589
H       -0.06660151      -1.67969362       0.06214055
H       -2.01644391      -1.57286766      -0.17456914
H       -1.05740379       2.08115504       0.32472097
14
Frame=2 idx=003800 GeodesicLength=0.173476994683621 rxn_smarts="[C:1]([C@@:2]1([H:10])[C@@:3]2([H:11])[C:4]([H:12])([H:13])[O:5][C@@:6]12[H:14])([H:7])([H:8])[H:9]>>[C:1](=[C:2]([C@@:6]1([H:14])[C:3]([H:11])=[C:4]([H:13])[O:5]1)[H:10])([H:7])[H:8].[H:9][H:12]"
C        1.50826559      -0.10016645       0.62556730
C        0.79805108       0.84072625      -0.09929232
C       -0.93115772       0.22252877      -1.04869364
C       -1.30404461      -0.76408997      -0.15212576
O       -1.19883883       0.04971539       0.98401286
C       -0.64392259       1.08925773       0.13171435
H        1.24648292      -0.25737607       1.66522116
H        2.55895604      -0.22721655       0.38956007
H        0.78239704      -1.39558108       0.32331862
H        1.24793851       1.37850724      -0.92556849
H       -0.89166302       0.35211268      -2.11548877
H       -0.07288351      -1.71614107       0.08325175
H       -2.04706657      -1.55009667      -0.18576752
H       -1.05251432       2.07781979       0.32429040
14
Frame=3 idx=003800 GeodesicLength=0.2601157571864489 rxn_smarts="[C:1]([C@@:2]1([H:10])[C@@:3]2([H:11])[C:4]([H:12])([H:13])[O:5][C@@:6]12[H:14])([H:7])([H:8])[H:9]>>[C:1](=[C:2]([C@@:6]1([H:14])[C:3]([H:11])=[C:4]([H:13])[O:5]1)[H:10])([H:7])[H:8].[H:9][H:12]"
C        1.51728900      -0.10137886       0.61752436
C        0.79867445       0.83403294      -0.11090596
C       -0.92449005       0.21991562      -1.05230183
C       -1.30461496      -0.76849972      -0.15570625
O       -1.19889710       0.04624130       0.98076399
C       -0.64137739       1.08500793       0.13103183
H        1.24819458      -0.25867757       1.65553389
H        2.57714485      -0.18818126       0.40438203
H        0.79241490      -1.42174056       0.33739798
H        1.24978698       1.39332114      -0.92202083
H       -0.91038273       0.36500515      -2.11781051
H       -0.07987980      -1.75301810       0.10548800
H       -2.07661356      -1.52634474      -0.19722958
H       -1.04724917       2.07431673       0.32385289
14
Frame=4 idx=003800 GeodesicLength=0.3466853880278932 rxn_smarts="[C:1]([C@@:2]1([H:10])[C@@:3]2([H:11])[C:4]([H:12])([H:13])[O:5][C@@:6]12[H:14])([H:7])([H:8])[H:9]>>[C:1](=[C:2]([C@@:6]1([H:14])[C:3]([H:11])=[C:4]([H:13])[O:5]1)[H:10])([H:7])[H:8].[H:9][H:12]"
C        1.52657737      -0.10297932       0.60869515
C        0.79947097       0.82714547      -0.12297230
C       -0.91791775       0.21731854      -1.05616577
C       -1.30509003      -0.77304982      -0.15955467
O       -1.19873552       0.04263403       0.97727404
C       -0.63856753       1.08061005       0.13014668
H        1.25009972      -0.26053774       1.64499308
H        2.59395475      -0.14775511       0.42020677
H        0.80251216      -1.44831226       0.35169556
H        1.25150351       1.40806935      -0.91818088
H       -0.92963866       0.37818590      -2.11954563
H       -0.08762211      -1.79027130       0.12888865
H       -2.10494192      -1.50172058      -0.20892104
H       -1.04160495       2.07066278       0.32344038
14
Frame=5 idx=003800 GeodesicLength=0.4331836463039882 rxn_smarts="[C:1]([C@@:2]1([H:10])[C@@:3]2([H:11])[C:4]([H:12])([H:13])[O:5][C@@:6]12[H:14])([H:7])([H:8])[H:9]>>[C:1](=[C:2]([C@@:6]1([H:14])[C:3]([H:11])=[C:4]([H:13])[O:5]1)[H:10])([H:7])[H:8].[H:9][H:12]"
C        1.53615333      -0.10491535       0.59905946
C        0.80043507       0.82012393      -0.13548798
C       -0.91145006       0.21479068      -1.06028865
C       -1.30545651      -0.77770786      -0.16368213
O       -1.19833850       0.03890394       0.97354480
C       -0.63549564       1.07609298       0.12907206
H        1.25220227      -0.26296345       1.63356349
H        2.60910648      -0.10613323       0.43695453
H        0.81271186      -1.47524877       0.36619826
H        1.25307809       1.42275065      -0.91404210
H       -0.94931401       0.39161999      -2.12066754
H       -0.09613159      -1.82783544       0.15350523
H       -2.13190723      -1.47635606      -0.22081462
H       -1.03559357       2.06687798       0.32308520
14
Frame=6 idx=003800 GeodesicLength=0.5196117621256746 rxn_smarts="[C:1]([C@@:2]1([H:10])[C@@:3]2([H:11])[C:4]([H:12])([H:13])[O:5][C@@:6]12[H:14])([H:7])([H:8])[H:9]>>[C:1](=[C:2]([C@@:6]1([H:14])[C:3]([H:11])=[C:4]([H:13])[O:5]1)[H:10])([H:7])[H:8].[H:9][H:12]"
C        1.54603213      -0.10711172       0.58861700
C        0.80155566       0.81304527      -0.14843571
C       -0.90509185       0.21238883      -1.06467046
C       -1.30569302      -0.78244165      -0.16809995
O       -1.19769742       0.03506205       0.96957907
C       -0.63217354       1.07149095       0.12782540
H        1.25450089      -0.26595072       1.62122702
H        2.62233253      -0.06358638       0.45448650
H        0.82304822      -1.50248971       0.38089422
H        1.25449785       1.43737591      -0.90959023
H       -0.96926934       0.40526589      -2.12116404
H       -0.10541908      -1.86563629       0.17939540
H       -2.15737844      -1.45039748      -0.23288451
H       -1.02924459       2.06298507       0.32282030
14
Frame=7 idx=003800 GeodesicLength=0.6059684114303616 rxn_smarts="[C:1]([C@@:2]1([H:10])[C@@:3]2([H:11])[C:4]([H:12])([H:13])[O:5][C@@:6]12[H:14])([H:7])([H:8])[H:9]>>[C:1](=[C:2]([C@@:6]1([H:14])[C:3]([H:11])=[C:4]([H:13])[O:5]1)[H:10])([H:7])[H:8].[H:9][H:12]"
C        1.55621620      -0.10947250       0.57739100
C        0.80281404       0.80600112      -0.16178300
C       -0.89884261       0.21017229      -1.06930750
C       -1.30576911      -0.78721958      -0.17282003
O       -1.19681253       0.03111912       0.96537776
C       -0.62862359       1.06684156       0.12642701
H        1.25698711      -0.26948279       1.60798563
H        2.63340218      -0.02045991       0.47260518
H        0.83356661      -1.52996284       0.39577818
H        1.25574500       1.45195990      -0.90480798
H       -0.98935762       0.41909075      -2.12103436
H       -0.11548511      -1.90359029       0.20662955
H       -2.18123378      -1.42400392      -0.24511737
H       -1.02260678       2.05900710       0.32267593
14
Frame=8 idx=003800 GeodesicLength=0.6922623444374194 rxn_smarts="[C:1]([C@@:2]1([H:10])[C@@:3]2([H:11])[C:4]([H:12])([H:13])[O:5][C@@:6]12[H:14])([H:7])([H:8])[H:9]>>[C:1](=[C:2]([C@@:6]1([H:14])[C:3]([H:11])=[C:4]([H:13])[O:5]1)[H:10])([H:7])[H:8].[H:9][H:12]"
C        1.56669713      -0.11188655       0.56542537
C        0.80418834       0.79909488      -0.17548409
C       -0.89269714       0.20820005      -1.07419513
C       -1.30565153      -0.79201442      -0.17785722
O       -1.19569616       0.02708415       0.96094130
C       -0.62487755       1.06218516       0.12490049
H        1.25964654      -0.27353087       1.59386211
H        2.64215074       0.02285508       0.49107042
H        0.84431895      -1.55759274       0.41085042
H        1.25680281       1.46652418      -0.89967548
H       -1.00943366       0.43306684      -2.12029303
H       -0.12632630      -1.94161195       0.23528144
H       -2.20337667      -1.39734273      -0.25750905
H       -1.01574550       2.05496891       0.32268242
14
Frame=9 idx=003800 GeodesicLength=0.7785016629684629 rxn_smarts="[C:1]([C@@:2]1([H:10])[C@@:3]2([H:11])[C:4]([H:12])([H:13])[O:5][C@@:6]12[H:14])([H:7])([H:8])[H:9]>>[C:1](=[C:2]([C@@:6]1([H:14])[C:3]([H:11])=[C:4]([H:13])[O:5]1)[H:10])([H:7])[H:8].[H:9][H:12]"
C        1.57745661      -0.11423994       0.55277492
C        0.80565296       0.79243381      -0.18948166
C       -0.88664835       0.20652934      -1.07932521
C       -1.30530783      -0.79680237      -0.18322880
O       -1.19436658       0.02296196       0.95627157
C       -0.62097427       1.05756054       0.12327458
H        1.26246584      -0.27806091       1.57889176
H        2.64848758       0.06596561       0.50961214
H        0.85535304      -1.58530758       0.42611677
H        1.25764876       1.48110215      -0.89416202
H       -1.02933662       0.44715027      -2.11897544
H       -0.13794379      -1.97961732       0.26541432
H       -2.22374909      -1.37056760      -0.27005703
H       -1.00873825       2.05089205       0.32287412
14
Frame=10 idx=003800 GeodesicLength=0.8646948746893646 rxn_smarts="[C:1]([C@@:2]1([H:10])[C@@:3]2([H:11])[C:4]([H:12])([H:13])[O:5][C@@:6]12[H:14])([H:7])([H:8])[H:9]>>[C:1](=[C:2]([C@@:6]1([H:14])[C:3]([H:11])=[C:4]([H:13])[O:5]1)[H:10])([H:7])[H:8].[H:9][H:12]"
C        1.58846391      -0.11642691       0.53949797
C        0.80717954       0.78612169      -0.20371704
C       -0.88068662       0.20521471      -1.08469126
C       -1.30470334      -0.80156305      -0.18895494
O       -1.19285101       0.01875421       0.95136289
C       -0.61695585       1.05300266       0.12157373
H        1.26542553      -0.28304303       1.56311202
H        2.65241389       0.10849755       0.52798248
H        0.86672125      -1.61304549       0.44158579
H        1.25826321       1.49571199      -0.88825525
H       -1.04895738       0.46134734      -2.11711359
H       -0.15034865      -2.01752353       0.29712595
H       -2.24229917      -1.34384288      -0.28278647
H       -1.00166532       2.04679476       0.32327773
14
Frame=11 idx=003800 GeodesicLength=0.9508494291064362 rxn_smarts="[C:1]([C@@:2]1([H:10])[C@@:3]2([H:11])[C:4]([H:12])([H:13])[O:5][C@@:6]12[H:14])([H:7])([H:8])[H:9]>>[C:1](=[C:2]([C@@:6]1([H:14])[C:3]([H:11])=[C:4]([H:13])[O:5]1)[H:10])([H:7])[H:8].[H:9][H:12]"
C        1.59968529      -0.11835610       0.52564499
C        0.80874048       0.78025429      -0.21813161
C       -0.87480293       0.20430584      -1.09028551
C       -1.30380767      -0.80628054      -0.19505809
O       -1.19117683       0.01445719       0.94621012
C       -0.61286398       1.04854076       0.11982428
H        1.26851058      -0.28845374       1.54655477
H        2.65399954       0.15013591       0.54595933
H        0.87846701      -1.64076012       0.45726571
H        1.25862518       1.51037761      -0.88194056
H       -1.06819255       0.47565647      -2.11475050
H       -0.16356777      -2.05525397       0.33050575
H       -2.25901124      -1.31731359      -0.29572280
H       -0.99460510       2.04269000       0.32392413
14
Frame=12 idx=003800 GeodesicLength=1.0369741704876807 rxn_smarts="[C:1]([C@@:2]1([H:10])[C@@:3]2([H:11])[C:4]([H:12])([H:13])[O:5][C@@:6]12[H:14])([H:7])([H:8])[H:9]>>[C:1](=[C:2]([C@@:6]1([H:14])[C:3]([H:11])=[C:4]([H:13])[O:5]1)[H:10])([H:7])[H:8].[H:9][H:12]"
C        1.61108783      -0.11995225       0.51125678
C        0.81031102       0.77491737      -0.23267065
C       -0.86898862       0.20384707      -1.09610107
C       -1.30259441      -0.81094384      -0.20156324
O       -1.18937013       0.01006077       0.94080726
C       -0.60873760       1.04419739       0.11805182
H        1.27171078      -0.29427773       1.52924370
H        2.65336989       0.19063096       0.56336183
H        0.89062852      -1.66842112       0.47316700
H        1.25871599       1.52512172      -0.87520912
H       -1.08696216       0.49008293      -2.11193368
H       -0.17764387      -2.09273945       0.36563875
H       -2.27389683      -1.29110879      -0.30889464
H       -0.98763042       2.03858497       0.32484526
14
Frame=13 idx=003800 GeodesicLength=1.1230755976324267 rxn_smarts="[C:1]([C@@:2]1([H:10])[C@@:3]2([H:11])[C:4]([H:12])([H:13])[O:5][C@@:6]12[H:14])([H:7])([H:8])[H:9]>>[C:1](=[C:2]([C@@:6]1([H:14])[C:3]([H:11])=[C:4]([H:13])[O:5]1)[H:10])([H:7])[H:8].[H:9][H:12]"
C        1.62264137      -0.12115593       0.49636122
C        0.81186919       0.77018534      -0.24728593
C       -0.86323503       0.20387701      -1.10213183
C       -1.30103909      -0.81554627      -0.20849711
O       -1.18745276       0.00554903       0.93514644
C       -0.60461128       1.03998782       0.11627979
H        1.27502023      -0.30050997       1.51118905
H        2.65068531       0.22979712       0.58005580
H        0.90324122      -1.69601248       0.48930013
H        1.25851898       1.53996573      -0.86805752
H       -1.10521036       0.50464032      -2.10870978
H       -0.19263580      -2.12991661       0.40260969
H       -2.28698588      -1.26534151      -0.32233292
H       -0.98080610       2.03448040       0.32607297
14
Frame=14 idx=003800 GeodesicLength=1.2091592995629177 rxn_smarts="[C:1]([C@@:2]1([H:10])[C@@:3]2([H:11])[C:4]([H:12])([H:13])[O:5][C@@:6]12[H:14])([H:7])([H:8])[H:9]>>[C:1](=[C:2]([C@@:6]1([H:14])[C:3]([H:11])=[C:4]([H:13])[O:5]1)[H:10])([H:7])[H:8].[H:9][H:12]"
C        1.63432168      -0.12192257       0.48097107
C        0.81339648       0.76612081      -0.26193791
C       -0.85753456       0.20442822      -1.10837255
C       -1.29911898      -0.82008488      -0.21588669
O       -1.18544090       0.00090163       0.92921876
C       -0.60051369       1.03592046       0.11452908
H        1.27843708      -0.30716010       1.49238329
H        2.64612327       0.26751466       0.59596280
H        0.91634203      -1.72353213       0.50566672
H        1.25802060       1.55492778      -0.86049068
H       -1.12290559       0.51934984      -2.10512076
H       -0.20861978      -2.16672499       0.44150903
H       -2.29832133      -1.24011004      -0.33607091
H       -0.97418631       2.03037131       0.32763874
14
Frame=15 idx=003800 GeodesicLength=1.2952297700995345 rxn_smarts="[C:1]([C@@:2]1([H:10])[C@@:3]2([H:11])[C:4]([H:12])([H:13])[O:5][C@@:6]12[H:14])([H:7])([H:8])[H:9]>>[C:1](=[C:2]([C@@:6]1([H:14])[C:3]([H:11])=[C:4]([H:13])[O:5]1)[H:10])([H:7])[H:8].[H:9][H:12]"
C        1.64611157      -0.12221651       0.46508746
C        0.81487805       0.76277752      -0.27659430
C       -0.85187875       0.20552776      -1.11481939
C       -1.29681148      -0.82456105      -0.22376114
O       -1.18334391      -0.00390784       0.92301388
C       -0.59646838       1.03199702       0.11281830
H        1.28196526      -0.31424622       1.47280446
H        2.63986308       0.30370931       0.61103923
H        0.92996997      -1.75098756       0.52226776
H        1.25720897       1.57003114      -0.85251161
H       -1.14003114       0.53423284      -2.10120641
H       -0.22568803      -2.20310661       0.48242731
H       -2.30795720      -1.21549575      -0.35013977
H       -0.96781800       2.02624593       0.32957422
14
Frame=16 idx=003800 GeodesicLength=1.3812902876532709 rxn_smarts="[C:1]([C@@:2]1([H:10])[C@@:3]2([H:11])[C:4]([H:12])([H:13])[O:5][C@@:6]12[H:14])([H:7])([H:8])[H:9]>>[C:1](=[C:2]([C@@:6]1([H:14])[C:3]([H:11])=[C:4]([H:13])[O:5]1)[H:10])([H:7])[H:8].[H:9][H:12]"
C        1.65800046      -0.12200759       0.44870149
C        0.81630192       0.76020236      -0.29122937
C       -0.84625858       0.20719798      -1.12146972
C       -1.29409336      -0.82897975      -0.23215119
O       -1.18116461      -0.00891092       0.91652014
C       -0.59249433       1.02821349       0.11116390
H        1.28561332      -0.32179488       1.45241608
H        2.63207863       0.33834218       0.62527248
H        0.94417008      -1.77839356       0.53909979
H        1.25607361       1.58530282      -0.84412171
H       -1.15658324       0.54931091      -2.09700222
H       -0.24394970      -2.23900292       0.52545942
H       -2.31595236      -1.19156659      -0.36456995
H       -0.96174185       2.02208648       0.33191087
