13
Frame=0 idx=003375 GeodesicLength=0.0 rxn_smarts="[C:1]([C@@:2]1([H:10])[N:3]([H:11])[C@:4]1([C:5]#[C:6][H:13])[H:12])([H:7])([H:8])[H:9]>>[C:1]([C+:2]1[N:3]([H:11])[C@:4]1([C-:5]=[C:6]([H:10])[H:13])[H:12])([H:7])([H:8])[H:9]"
C       -1.01984912      -0.67697950       0.72879923
C       -0.62393453       0.24600621      -0.38932399
N       -0.81999495       1.61462449      -0.06467076
C        0.55294264       1.23246340      -0.46307963
C        1.44306062       0.23579967      -0.04405527
C        1.58691644      -0.92621773      -0.54163030
H       -0.68552849      -0.30453208       1.70490990
H       -2.11382648      -0.71595330       0.73393687
H       -0.63447751      -1.68365068       0.58140963
H        0.16751368      -0.73982304      -1.18509601
H       -0.98557387       1.74034872       0.93225499
H        0.81249050       1.69050867      -1.40832224
H        2.32026102      -1.71259486      -0.58513240
13
Frame=1 idx=003375 GeodesicLength=0.0699150128212018 rxn_smarts="[C:1]([C@@:2]1([H:10])[N:3]([H:11])[C@:4]1([C:5]#[C:6][H:13])[H:12])([H:7])([H:8])[H:9]>>[C:1]([C+:2]1[N:3]([H:11])[C@:4]1([C-:5]=[C:6]([H:10])[H:13])[H:12])([H:7])([H:8])[H:9]"
C       -1.03141621      -0.67828670       0.72434868
C       -0.63505788       0.24845987      -0.39074235
N       -0.81829278       1.61533068      -0.05436320
C        0.54608201       1.22899034      -0.47572387
C        1.44850689       0.24453002      -0.05202163
C        1.60433751      -0.92042586      -0.53848967
H       -0.67554694      -0.32172643       1.69864772
H       -2.12538935      -0.70647964       0.74500463
H       -0.66462257      -1.69006960       0.56424789
H        0.16500483      -0.75138632      -1.19354257
H       -0.95357918       1.74265738       0.94743167
H        0.79718782       1.69146268      -1.42112005
H        2.34278585      -1.70305643      -0.55367725
13
Frame=2 idx=003375 GeodesicLength=0.13985001883662998 rxn_smarts="[C:1]([C@@:2]1([H:10])[N:3]([H:11])[C@:4]1([C:5]#[C:6][H:13])[H:12])([H:7])([H:8])[H:9]>>[C:1]([C+:2]1[N:3]([H:11])[C@:4]1([C-:5]=[C:6]([H:10])[H:13])[H:12])([H:7])([H:8])[H:9]"
C       -1.04324286      -0.67948905       0.72001310
C       -0.64636521       0.25096860      -0.39203866
N       -0.81609558       1.61594940      -0.04390783
C        0.53920150       1.22517166      -0.48827463
C        1.45404397       0.25326412      -0.06002833
C        1.62202746      -0.91455890      -0.53491893
H       -0.66571008      -0.33932025       1.69189426
H       -2.13687881      -0.69670483       0.75656752
H       -0.69568440      -1.69607800       0.54715585
H        0.16245189      -0.76341314      -1.20183392
H       -0.92129254       1.74437417       0.96186232
H        0.78191086       1.69218856      -1.43366440
H        2.36563382      -1.69235236      -0.52282635
13
Frame=3 idx=003375 GeodesicLength=0.20977695803750512 rxn_smarts="[C:1]([C@@:2]1([H:10])[N:3]([H:11])[C@:4]1([C:5]#[C:6][H:13])[H:12])([H:7])([H:8])[H:9]>>[C:1]([C+:2]1[N:3]([H:11])[C@:4]1([C-:5]=[C:6]([H:10])[H:13])[H:12])([H:7])([H:8])[H:9]"
C       -1.05527348      -0.68059811       0.71579603
C       -0.65784817       0.25354482      -0.39322065
N       -0.81343102       1.61646906      -0.03332974
C        0.53230530       1.22103063      -0.50071967
C        1.45970061       0.26203812      -0.06812758
C        1.64004798      -0.90850405      -0.53106393
H       -0.65602586      -0.35730447       1.68465218
H       -2.14822934      -0.68671412       0.76859912
H       -0.72754348      -1.70164521       0.53017121
H        0.15986991      -0.77586100      -1.21002882
H       -0.88878381       1.74547686       0.97556781
H        0.76666956       1.69277516      -1.44592311
H        2.38854179      -1.68070771      -0.49237285
13
Frame=4 idx=003375 GeodesicLength=0.27974657330671515 rxn_smarts="[C:1]([C@@:2]1([H:10])[N:3]([H:11])[C@:4]1([C:5]#[C:6][H:13])[H:12])([H:7])([H:8])[H:9]>>[C:1]([C+:2]1[N:3]([H:11])[C@:4]1([C-:5]=[C:6]([H:10])[H:13])[H:12])([H:7])([H:8])[H:9]"
C       -1.06749274      -0.68162887       0.71165849
C       -0.66953053       0.25621140      -0.39429168
N       -0.81028202       1.61689003      -0.02259339
C        0.52535973       1.21659371      -0.51308922
C        1.46547430       0.27089534      -0.07641872
C        1.65841600      -0.90223132      -0.52701482
H       -0.64639444      -0.37577934       1.67681600
H       -2.15938175      -0.67648538       0.78119052
H       -0.76028967      -1.70676230       0.51317280
H        0.15721171      -0.78873105      -1.21817119
H       -0.85600420       1.74594882       0.98860255
H        0.75139038       1.69326747      -1.45791063
H        2.41152326      -1.66818851      -0.46195072
13
Frame=5 idx=003375 GeodesicLength=0.3494542952408085 rxn_smarts="[C:1]([C@@:2]1([H:10])[N:3]([H:11])[C@:4]1([C:5]#[C:6][H:13])[H:12])([H:7])([H:8])[H:9]>>[C:1]([C+:2]1[N:3]([H:11])[C@:4]1([C-:5]=[C:6]([H:10])[H:13])[H:12])([H:7])([H:8])[H:9]"
C       -1.07971733      -0.68262677       0.70755172
C       -0.68137195       0.25900977      -0.39526730
N       -0.80664293       1.61719787      -0.01170654
C        0.51830947       1.21191453      -0.52539938
C        1.47133789       0.27989374      -0.08503728
C        1.67713491      -0.89556737      -0.52298648
H       -0.63664006      -0.39482888       1.66826689
H       -2.17009326      -0.66614646       0.79432186
H       -0.79368994      -1.71141662       0.49611480
H        0.15448770      -0.80188922      -1.22634022
H       -0.82291792       1.74570771       1.00093885
H        0.73595033       1.69383718      -1.46958058
H        2.43385308      -1.65508548      -0.43087634
13
Frame=6 idx=003375 GeodesicLength=0.419252894815796 rxn_smarts="[C:1]([C@@:2]1([H:10])[N:3]([H:11])[C@:4]1([C:5]#[C:6][H:13])[H:12])([H:7])([H:8])[H:9]>>[C:1]([C+:2]1[N:3]([H:11])[C@:4]1([C-:5]=[C:6]([H:10])[H:13])[H:12])([H:7])([H:8])[H:9]"
C       -1.09216885      -0.68352458       0.70356367
C       -0.69341868       0.26189168      -0.39612313
N       -0.80253222       1.61737528      -0.00074681
C        0.51125060       1.20689463      -0.53757654
C        1.47734668       0.28893382      -0.09378948
C        1.69628378      -0.88865265      -0.51877989
H       -0.62708844      -0.41431335       1.65914276
H       -2.18062253      -0.65559484       0.80798909
H       -0.82799210      -1.71554231       0.47917673
H        0.15169337      -0.81553684      -1.23442722
H       -0.78968545       1.74484949       1.01258471
H        0.72058782       1.69430341      -1.48089971
H        2.45634603      -1.64108373      -0.40011419
13
Frame=7 idx=003375 GeodesicLength=0.4890740350353327 rxn_smarts="[C:1]([C@@:2]1([H:10])[N:3]([H:11])[C@:4]1([C:5]#[C:6][H:13])[H:12])([H:7])([H:8])[H:9]>>[C:1]([C+:2]1[N:3]([H:11])[C@:4]1([C-:5]=[C:6]([H:10])[H:13])[H:12])([H:7])([H:8])[H:9]"
C       -1.10487853      -0.68430322       0.69969799
C       -0.70567213       0.26486223      -0.39684501
N       -0.79793679       1.61741951       0.01024596
C        0.50418375       1.20147840      -0.54958464
C        1.48346853       0.29795062      -0.10261424
C        1.71584095      -0.88152329      -0.51431104
H       -0.61779837      -0.43423182       1.64940257
H       -2.19096237      -0.64478723       0.82218031
H       -0.86326789      -1.71910526       0.46240753
H        0.14882052      -0.82971677      -1.24238148
H       -0.75633354       1.74339542       1.02350055
H        0.70533582       1.69461885      -1.49180752
H        2.47920004      -1.62605743      -0.36989099
13
Frame=8 idx=003375 GeodesicLength=0.559099926927562 rxn_smarts="[C:1]([C@@:2]1([H:10])[N:3]([H:11])[C@:4]1([C:5]#[C:6][H:13])[H:12])([H:7])([H:8])[H:9]>>[C:1]([C+:2]1[N:3]([H:11])[C@:4]1([C-:5]=[C:6]([H:10])[H:13])[H:12])([H:7])([H:8])[H:9]"
C       -1.11785395      -0.68497984       0.69595405
C       -0.71815931       0.26792040      -0.39744130
N       -0.79287824       1.61731669       0.02129394
C        0.49712294       1.19568108      -0.56144699
C        1.48977476       0.30700441      -0.11158889
C        1.73591776      -0.87408237      -0.50971302
H       -0.60874604      -0.45460433       1.63901860
H       -2.20112939      -0.63377276       0.83696214
H       -0.89954639      -1.72209024       0.44577217
H        0.14586829      -0.84444052      -1.25028302
H       -0.72287388       1.74134249       1.03375806
H        0.69019875       1.69482083      -1.50232757
H        2.50230469      -1.61011584      -0.33995818
13
Frame=9 idx=003375 GeodesicLength=0.6284835335006789 rxn_smarts="[C:1]([C@@:2]1([H:10])[N:3]([H:11])[C@:4]1([C:5]#[C:6][H:13])[H:12])([H:7])([H:8])[H:9]>>[C:1]([C+:2]1[N:3]([H:11])[C@:4]1([C-:5]=[C:6]([H:10])[H:13])[H:12])([H:7])([H:8])[H:9]"
C       -1.13100589      -0.68553042       0.69230620
C       -0.73076802       0.27110845      -0.39786347
N       -0.78723062       1.61701023       0.03225692
C        0.49004965       1.18944089      -0.57309836
C        1.49601274       0.31596514      -0.12061462
C        1.75624035      -0.86638965      -0.50484867
H       -0.60007799      -0.47549484       1.62788303
H       -2.21082819      -0.62250809       0.85217957
H       -0.93675231      -1.72437855       0.42940835
H        0.14276311      -0.85966786      -1.25786030
H       -0.68931439       1.73858553       1.04317270
H        0.67520875       1.69489186      -1.51231435
H        2.52570279      -1.59303269      -0.31060702
13
Frame=10 idx=003375 GeodesicLength=0.6982186688721664 rxn_smarts="[C:1]([C@@:2]1([H:10])[N:3]([H:11])[C@:4]1([C:5]#[C:6][H:13])[H:12])([H:7])([H:8])[H:9]>>[C:1]([C+:2]1[N:3]([H:11])[C@:4]1([C-:5]=[C:6]([H:10])[H:13])[H:12])([H:7])([H:8])[H:9]"
C       -1.14445631      -0.68596483       0.68876984
C       -0.74364671       0.27441104      -0.39817414
N       -0.78115114       1.61656277       0.04326749
C        0.48297502       1.18279564      -0.58460451
C        1.50246823       0.32495001      -0.12979861
C        1.77718528      -0.85835710      -0.49987869
H       -0.59166576      -0.49691532       1.61604747
H       -2.22034743      -0.61098332       0.86804147
H       -0.97507143      -1.72602167       0.41313826
H        0.13957672      -0.87551590      -1.26539693
H       -0.65567281       1.73523141       1.05200186
H        0.66031185       1.69483678      -1.52192516
H        2.54949448      -1.57502953      -0.28148836
13
Frame=11 idx=003375 GeodesicLength=0.7679395203337547 rxn_smarts="[C:1]([C@@:2]1([H:10])[N:3]([H:11])[C@:4]1([C:5]#[C:6][H:13])[H:12])([H:7])([H:8])[H:9]>>[C:1]([C+:2]1[N:3]([H:11])[C@:4]1([C-:5]=[C:6]([H:10])[H:13])[H:12])([H:7])([H:8])[H:9]"
C       -1.15807784      -0.68634481       0.68528865
C       -0.75674141       0.27785346      -0.39835595
N       -0.77452613       1.61589001       0.05433601
C        0.47586925       1.17579849      -0.59603952
C        1.50906859       0.33407875      -0.13933949
C        1.79869604      -0.84980458      -0.49497734
H       -0.58336540      -0.51905842       1.60327572
H       -2.22939501      -0.59928512       0.88466461
H       -1.01450681      -1.72695463       0.39686044
H        0.13626117      -0.89189241      -1.27287614
H       -0.62178985       1.73111461       1.06021518
H        0.64540783       1.69475486      -1.53117898
H        2.57309957      -1.55615020      -0.25187320
13
Frame=12 idx=003375 GeodesicLength=0.8374951992875901 rxn_smarts="[C:1]([C@@:2]1([H:10])[N:3]([H:11])[C@:4]1([C:5]#[C:6][H:13])[H:12])([H:7])([H:8])[H:9]>>[C:1]([C+:2]1[N:3]([H:11])[C@:4]1([C-:5]=[C:6]([H:10])[H:13])[H:12])([H:7])([H:8])[H:9]"
C       -1.17183346      -0.68661739       0.68185422
C       -0.77004356       0.28147186      -0.39839785
N       -0.76740385       1.61501201       0.06539353
C        0.46869041       1.16837714      -0.60731469
C        1.51575319       0.34321959      -0.14912696
C        1.82077399      -0.84079079      -0.49007878
H       -0.57524461      -0.54187952       1.58953488
H       -2.23788013      -0.58736173       0.90192303
H       -1.05495035      -1.72709269       0.38068389
H        0.13282303      -0.90881695      -1.28023027
H       -0.58779172       1.72627136       1.06774391
H        0.63048352       1.69461440      -1.53994270
H        2.59662355      -1.53640729      -0.22204220
13
Frame=13 idx=003375 GeodesicLength=0.9072882706444998 rxn_smarts="[C:1]([C@@:2]1([H:10])[N:3]([H:11])[C@:4]1([C:5]#[C:6][H:13])[H:12])([H:7])([H:8])[H:9]>>[C:1]([C+:2]1[N:3]([H:11])[C@:4]1([C-:5]=[C:6]([H:10])[H:13])[H:12])([H:7])([H:8])[H:9]"
C       -1.18587611      -0.68678321       0.67851557
C       -0.78360353       0.28523864      -0.39830404
N       -0.75980568       1.61392414       0.07645037
C        0.46153115       1.16051132      -0.61843541
C        1.52263855       0.35238972      -0.15913386
C        1.84357930      -0.83130198      -0.48522206
H       -0.56750294      -0.56532412       1.57490544
H       -2.24599683      -0.57524985       0.91987827
H       -1.09657329      -1.72641163       0.36466189
H        0.12925770      -0.92642390      -1.28750723
H       -0.55373984       1.72076300       1.07470284
H        0.61569575       1.69435531      -1.54826909
H        2.62039578      -1.51568743      -0.19224270
13
Frame=14 idx=003375 GeodesicLength=0.9769093104975726 rxn_smarts="[C:1]([C@@:2]1([H:10])[N:3]([H:11])[C@:4]1([C:5]#[C:6][H:13])[H:12])([H:7])([H:8])[H:9]>>[C:1]([C+:2]1[N:3]([H:11])[C@:4]1([C-:5]=[C:6]([H:10])[H:13])[H:12])([H:7])([H:8])[H:9]"
C       -1.20001229      -0.68688032       0.67523083
C       -0.79735127       0.28920321      -0.39805298
N       -0.75165452       1.61258565       0.08750735
C        0.45435248       1.15223250      -0.62944548
C        1.52964080       0.36163581      -0.16953590
C        1.86706801      -0.82118835      -0.48061658
H       -0.56002965      -0.58949355       1.55923482
H       -2.25343694      -0.56308112       0.93849141
H       -1.13915290      -1.72485258       0.34878333
H        0.12552457      -0.94460193      -1.29470292
H       -0.51954398       1.71447816       1.08106502
H        0.60091446       1.69408289      -1.55614427
H        2.64368123      -1.49412036      -0.16181465
13
Frame=15 idx=003375 GeodesicLength=1.0463279135186514 rxn_smarts="[C:1]([C@@:2]1([H:10])[N:3]([H:11])[C@:4]1([C:5]#[C:6][H:13])[H:12])([H:7])([H:8])[H:9]>>[C:1]([C+:2]1[N:3]([H:11])[C@:4]1([C-:5]=[C:6]([H:10])[H:13])[H:12])([H:7])([H:8])[H:9]"
C       -1.21452465      -0.68682845       0.67202761
C       -0.81128878       0.29332669      -0.39762029
N       -0.74291547       1.61094633       0.09842065
C        0.44722822       1.14338370      -0.64019442
C        1.53668447       0.37080170      -0.17994947
C        1.89112785      -0.81059062      -0.47574572
H       -0.55322606      -0.61435841       1.54248635
H       -2.26038249      -0.55065485       0.95774566
H       -1.18314341      -1.72227047       0.33321022
H        0.12164308      -0.96355053      -1.30151717
H       -0.48531890       1.70742265       1.08668002
H        0.58642396       1.69353094      -1.56342862
H        2.66769217      -1.47115869      -0.13211483
13
Frame=16 idx=003375 GeodesicLength=1.1158955820871619 rxn_smarts="[C:1]([C@@:2]1([H:10])[N:3]([H:11])[C@:4]1([C:5]#[C:6][H:13])[H:12])([H:7])([H:8])[H:9]>>[C:1]([C+:2]1[N:3]([H:11])[C@:4]1([C-:5]=[C:6]([H:10])[H:13])[H:12])([H:7])([H:8])[H:9]"
C       -1.22934164      -0.68663783       0.66888927
C       -0.82547754       0.29764981      -0.39701797
N       -0.73366962       1.60902984       0.10930257
C        0.44013348       1.13399912      -0.65075217
C        1.54390635       0.37994927      -0.19058683
C        1.91602561      -0.79940087      -0.47095225
H       -0.54698326      -0.63993256       1.52462988
H       -2.26679624      -0.53805506       0.97769830
H       -1.22840659      -1.71862394       0.31784464
H        0.11759878      -0.98327747      -1.30815262
H       -0.45105968       1.69960982       1.09174644
H        0.57207238       1.69275326      -1.57020968
H        2.69199796      -1.44706339      -0.10243956
