12
Frame=0 idx=000790 GeodesicLength=0.0 rxn_smarts="[N:1]([C:2](=[O:3])[C@@:4]1([H:9])[C:5]([H:10])([H:11])[N:6]1[H:12])([H:7])[H:8]>>[N:1]([C:2]1=[C:4]([H:9])[C:5]([H:10])([H:11])[N:6]([H:12])[O:3]1)([H:7])[H:8]"
N        1.94919009       0.92433050       0.01952254
C        0.90409857       0.05091152       0.22779115
O        1.12008355      -1.07899240       0.67388781
C       -0.39756252       0.50338677      -0.14829480
C       -1.40614088      -0.54757428      -0.40188237
N       -1.19800259      -1.51237851       0.57627360
H        2.86275773       0.51928217       0.12941394
H        1.86280160       1.62922220      -0.68942012
H       -0.63127362       1.55397068      -0.26041823
H       -1.44983875      -0.96524565      -1.41236911
H       -2.36528350      -0.03079695      -0.19715204
H       -1.25082968      -1.04611602       1.48264767
12
Frame=1 idx=000790 GeodesicLength=0.06568057418091608 rxn_smarts="[N:1]([C:2](=[O:3])[C@@:4]1([H:9])[C:5]([H:10])([H:11])[N:6]1[H:12])([H:7])[H:8]>>[N:1]([C:2]1=[C:4]([H:9])[C:5]([H:10])([H:11])[N:6]([H:12])[O:3]1)([H:7])[H:8]"
N        1.94787510       0.92356762       0.05821030
C        0.91207105       0.02221561       0.15417491
O        1.13526153      -1.12702792       0.55293037
C       -0.39520169       0.48372532      -0.18276249
C       -1.42593144      -0.55357722      -0.40011517
N       -1.18373862      -1.47034231       0.61949673
H        2.86517613       0.52891626       0.17455539
H        1.86977231       1.68132748      -0.59528973
H       -0.62805585       1.53354311      -0.30367409
H       -1.48409622      -1.01677599      -1.38912929
H       -2.38008335      -0.02911468      -0.19879990
H       -1.23304895      -0.97645729       1.51040297
12
Frame=2 idx=000790 GeodesicLength=0.13167933720028535 rxn_smarts="[N:1]([C:2](=[O:3])[C@@:4]1([H:9])[C:5]([H:10])([H:11])[N:6]1[H:12])([H:7])[H:8]>>[N:1]([C:2]1=[C:4]([H:9])[C:5]([H:10])([H:11])[N:6]([H:12])[O:3]1)([H:7])[H:8]"
N        1.94220539       0.91783512       0.09999806
C        0.91907116      -0.00057683       0.07592061
O        1.14657419      -1.16717445       0.42821644
C       -0.39421805       0.46666225      -0.21988564
C       -1.44402613      -0.55897251      -0.39636129
N       -1.15953639      -1.42583497       0.65910298
H        2.86144328       0.53094780       0.22508538
H        1.87281440       1.72534666      -0.49206894
H       -0.62569094       1.51435128      -0.35920145
H       -1.52008398      -1.06661664      -1.36141040
H       -2.39360399      -0.02985316      -0.19389109
H       -1.20494896      -0.90611455       1.53449532
12
Frame=3 idx=000790 GeodesicLength=0.19790505709745357 rxn_smarts="[N:1]([C:2](=[O:3])[C@@:4]1([H:9])[C:5]([H:10])([H:11])[N:6]1[H:12])([H:7])[H:8]>>[N:1]([C:2]1=[C:4]([H:9])[C:5]([H:10])([H:11])[N:6]([H:12])[O:3]1)([H:7])[H:8]"
N        1.93367388       0.90724049       0.14053815
C        0.92480011      -0.01535215       0.00218420
O        1.15432329      -1.19773776       0.30863634
C       -0.39467613       0.45342583      -0.25468341
C       -1.45881659      -0.56334860      -0.39163156
N       -1.12735590      -1.38056787       0.69331769
H        2.85357938       0.52431230       0.27187698
H        1.86965868       1.75898986      -0.38678742
H       -0.62513902       1.49747376      -0.41975308
H       -1.55108082      -1.11249393      -1.33157232
H       -2.40569091      -0.03339617      -0.18631295
H       -1.17327594      -0.83854577       1.55418739
12
Frame=4 idx=000790 GeodesicLength=0.26526563619870214 rxn_smarts="[N:1]([C:2](=[O:3])[C@@:4]1([H:9])[C:5]([H:10])([H:11])[N:6]1[H:12])([H:7])[H:8]>>[N:1]([C:2]1=[C:4]([H:9])[C:5]([H:10])([H:11])[N:6]([H:12])[O:3]1)([H:7])[H:8]"
N        1.92317758       0.89263649       0.17878360
C        0.92931714      -0.02288073      -0.06630402
O        1.15887174      -1.21954769       0.19492478
C       -0.39634120       0.44369869      -0.28714528
C       -1.47052574      -0.56699620      -0.38633286
N       -1.08941511      -1.33456641       0.72248202
H        2.84284546       0.51088396       0.31448492
H        1.86173777       1.78267907      -0.28153370
H       -0.62660236       1.48258162      -0.48194146
H       -1.57657146      -1.15532660      -1.30013387
H       -2.41651019      -0.03972164      -0.17723590
H       -1.13998363      -0.77344059       1.56995178
12
Frame=5 idx=000790 GeodesicLength=0.3342985249737046 rxn_smarts="[N:1]([C:2](=[O:3])[C@@:4]1([H:9])[C:5]([H:10])([H:11])[N:6]1[H:12])([H:7])[H:8]>>[N:1]([C:2]1=[C:4]([H:9])[C:5]([H:10])([H:11])[N:6]([H:12])[O:3]1)([H:7])[H:8]"
N        1.91202428       0.87434647       0.21359435
C        0.93303073      -0.02495428      -0.12830861
O        1.16052819      -1.23388489       0.09070110
C       -0.39834707       0.43649694      -0.31730560
C       -1.47905679      -0.57013437      -0.38114215
N       -1.04817699      -1.28738390       0.74721450
H        2.83174246       0.49206216       0.34621965
H        1.84684413       1.79822060      -0.17379748
H       -0.62951508       1.46883547      -0.54245813
H       -1.59535848      -1.19577958      -1.26789221
H       -2.42559266      -0.04806395      -0.16895487
H       -1.10812273      -0.70976067       1.58212946
12
Frame=6 idx=000790 GeodesicLength=0.40433624896664794 rxn_smarts="[N:1]([C:2](=[O:3])[C@@:4]1([H:9])[C:5]([H:10])([H:11])[N:6]1[H:12])([H:7])[H:8]>>[N:1]([C:2]1=[C:4]([H:9])[C:5]([H:10])([H:11])[N:6]([H:12])[O:3]1)([H:7])[H:8]"
N        1.90118585       0.85410803       0.24382784
C        0.93588805      -0.02226800      -0.18341566
O        1.15989588      -1.24188167      -0.00379478
C       -0.40092143       0.43187437      -0.34416704
C       -1.48500291      -0.57284816      -0.37642815
N       -1.00583261      -1.24002819       0.76749162
H        2.82107324       0.47062038       0.37069201
H        1.82892060       1.80496437      -0.07017925
H       -0.63430261       1.45700433      -0.59751568
H       -1.60758347      -1.23369360      -1.23577845
H       -2.43383739      -0.05877936      -0.16193231
H       -1.07948320      -0.64907250       1.59119985
12
Frame=7 idx=000790 GeodesicLength=0.47513332459618046 rxn_smarts="[N:1]([C:2](=[O:3])[C@@:4]1([H:9])[C:5]([H:10])([H:11])[N:6]1[H:12])([H:7])[H:8]>>[N:1]([C:2]1=[C:4]([H:9])[C:5]([H:10])([H:11])[N:6]([H:12])[O:3]1)([H:7])[H:8]"
N        1.89095910       0.83320266       0.26967130
C        0.93790998      -0.01572243      -0.23212154
O        1.15745929      -1.24464058      -0.08947300
C       -0.40403905       0.42953585      -0.36742503
C       -1.48891846      -0.57517503      -0.37221783
N       -0.96356038      -1.19306679       0.78361551
H        2.81067110       0.44786838       0.39108333
H        1.81034617       1.80380503       0.02586257
H       -0.64085291       1.44699376      -0.64661230
H       -1.61415524      -1.26887633      -1.20429177
H       -2.44147904      -0.07168044      -0.15586225
H       -1.05434055      -0.59224411       1.59777101
12
Frame=8 idx=000790 GeodesicLength=0.5469573925471296 rxn_smarts="[N:1]([C:2](=[O:3])[C@@:4]1([H:9])[C:5]([H:10])([H:11])[N:6]1[H:12])([H:7])[H:8]>>[N:1]([C:2]1=[C:4]([H:9])[C:5]([H:10])([H:11])[N:6]([H:12])[O:3]1)([H:7])[H:8]"
N        1.88213518       0.81096367       0.29175675
C        0.93969522      -0.00710908      -0.27546307
O        1.15346820      -1.24408788      -0.16609749
C       -0.40686985       0.42836252      -0.38886371
C       -1.49110249      -0.57723063      -0.36849955
N       -0.92237030      -1.14524061       0.79705332
H        2.80312636       0.42525062       0.40019686
H        1.78670928       1.79630652       0.12459884
H       -0.64771956       1.43752818      -0.69292859
H       -1.61595788      -1.30247341      -1.17269036
H       -2.44815739      -0.08558384      -0.15141717
H       -1.03295675      -0.53668607       1.60235417
12
Frame=9 idx=000790 GeodesicLength=0.6193247849411353 rxn_smarts="[N:1]([C:2](=[O:3])[C@@:4]1([H:9])[C:5]([H:10])([H:11])[N:6]1[H:12])([H:7])[H:8]>>[N:1]([C:2]1=[C:4]([H:9])[C:5]([H:10])([H:11])[N:6]([H:12])[O:3]1)([H:7])[H:8]"
N        1.87410993       0.78917839       0.31028661
C        0.94089113       0.00395584      -0.31428988
O        1.14834560      -1.24016407      -0.23633269
C       -0.41005587       0.42882977      -0.40758176
C       -1.49205319      -0.57898056      -0.36510183
N       -0.88232191      -1.09789285       0.80742397
H        2.79582686       0.40278825       0.40802858
H        1.76382312       1.78259228       0.21626120
H       -0.65578048       1.42922245      -0.73522350
H       -1.61399586      -1.33371806      -1.14155554
H       -2.45442219      -0.10110618      -0.14728416
H       -1.01436714      -0.48470525       1.60536901
12
Frame=10 idx=000790 GeodesicLength=0.6923375259528424 rxn_smarts="[N:1]([C:2](=[O:3])[C@@:4]1([H:9])[C:5]([H:10])([H:11])[N:6]1[H:12])([H:7])[H:8]>>[N:1]([C:2]1=[C:4]([H:9])[C:5]([H:10])([H:11])[N:6]([H:12])[O:3]1)([H:7])[H:8]"
N        1.86719845       0.76768387       0.32563968
C        0.94179816       0.01663412      -0.34932567
O        1.14229652      -1.23386236      -0.30049587
C       -0.41324696       0.43042538      -0.42454818
C       -1.49199331      -0.58044916      -0.36197586
N       -0.84377895      -1.05046698       0.81547605
H        2.78980929       0.38113589       0.41188439
H        1.73969573       1.76323865       0.30554352
H       -0.66439302       1.42144986      -0.77522441
H       -1.60891545      -1.36314557      -1.11047619
H       -2.46013330      -0.11761309      -0.14359377
H       -0.99833716      -0.43503060       1.60709630
12
Frame=11 idx=000790 GeodesicLength=0.7660377527286766 rxn_smarts="[N:1]([C:2](=[O:3])[C@@:4]1([H:9])[C:5]([H:10])([H:11])[N:6]1[H:12])([H:7])[H:8]>>[N:1]([C:2]1=[C:4]([H:9])[C:5]([H:10])([H:11])[N:6]([H:12])[O:3]1)([H:7])[H:8]"
N        1.86133510       0.74686963       0.33793105
C        0.94245460       0.03068546      -0.38124109
O        1.13551036      -1.22554980      -0.35949050
C       -0.41643565       0.43303166      -0.44009318
C       -1.49107715      -0.58163122      -0.35904911
N       -0.80676415      -1.00292876       0.82149977
H        2.78472147       0.36034386       0.41309573
H        1.71462289       1.73842242       0.39241553
H       -0.67350678       1.41405068      -0.81340699
H       -1.60118152      -1.39084101      -1.07932845
H       -2.46527151      -0.13498804      -0.14008251
H       -0.98440765      -0.38746487       1.60774973
12
Frame=12 idx=000790 GeodesicLength=0.8404472187893196 rxn_smarts="[N:1]([C:2](=[O:3])[C@@:4]1([H:9])[C:5]([H:10])([H:11])[N:6]1[H:12])([H:7])[H:8]>>[N:1]([C:2]1=[C:4]([H:9])[C:5]([H:10])([H:11])[N:6]([H:12])[O:3]1)([H:7])[H:8]"
N        1.85641207       0.72712457       0.34735919
C        0.94289123       0.04596838      -0.41055803
O        1.12816613      -1.21547825      -0.41407972
C       -0.41963846       0.43656704      -0.45447908
C       -1.48943125      -0.58253363      -0.35626300
N       -0.77124830      -0.95529053       0.82570646
H        2.78016985       0.34024898       0.41292452
H        1.68892225       1.70834474       0.47654695
H       -0.68314066       1.40692192      -0.85009248
H       -1.59114993      -1.41685683      -1.04805043
H       -2.46982399      -0.15314640      -0.13651399
H       -0.97212894      -0.34186998       1.60749962
12
Frame=13 idx=000790 GeodesicLength=0.9153624083374094 rxn_smarts="[N:1]([C:2](=[O:3])[C@@:4]1([H:9])[C:5]([H:10])([H:11])[N:6]1[H:12])([H:7])[H:8]>>[N:1]([C:2]1=[C:4]([H:9])[C:5]([H:10])([H:11])[N:6]([H:12])[O:3]1)([H:7])[H:8]"
N        1.85196575       0.70896823       0.35457751
C        0.94295469       0.06273780      -0.43754257
O        1.12038484      -1.20342988      -0.46541028
C       -0.42308584       0.44117538      -0.46741583
C       -1.48716834      -0.58320822      -0.35356358
N       -0.73710326      -0.90811563       0.82805801
H        2.77477214       0.31951398       0.41494216
H        1.66483204       1.67464376       0.55421539
H       -0.69366713       1.40012193      -0.88506743
H       -1.57906948      -1.44097184      -1.01697513
H       -2.47383092      -0.17234898      -0.13242688
H       -0.96098449      -0.29908654       1.60660863
12
Frame=14 idx=000790 GeodesicLength=0.9912280791767693 rxn_smarts="[N:1]([C:2](=[O:3])[C@@:4]1([H:9])[C:5]([H:10])([H:11])[N:6]1[H:12])([H:7])[H:8]>>[N:1]([C:2]1=[C:4]([H:9])[C:5]([H:10])([H:11])[N:6]([H:12])[O:3]1)([H:7])[H:8]"
N        1.84838026       0.69229933       0.35922179
C        0.94290327       0.08046681      -0.46272441
O        1.11229219      -1.19004861      -0.51324787
C       -0.42648249       0.44651144      -0.47983093
C       -1.48428585      -0.58360703      -0.35090147
N       -0.70435818      -0.86055142       0.82906021
H        2.76966142       0.29922306       0.41579946
H        1.63953543       1.63570504       0.63059289
H       -0.70455588       1.39325796      -0.91946977
H       -1.56511174      -1.46364064      -0.98547383
H       -2.47711130      -0.19210526      -0.12806804
H       -0.95086712      -0.25751070       1.60504196
12
Frame=15 idx=000790 GeodesicLength=1.0678599207714141 rxn_smarts="[N:1]([C:2](=[O:3])[C@@:4]1([H:9])[C:5]([H:10])([H:11])[N:6]1[H:12])([H:7])[H:8]>>[N:1]([C:2]1=[C:4]([H:9])[C:5]([H:10])([H:11])[N:6]([H:12])[O:3]1)([H:7])[H:8]"
N        1.84526179       0.67738502       0.36211012
C        0.94261814       0.09931672      -0.48606100
O        1.10397386      -1.17519775      -0.55819390
C       -0.42999812       0.45267731      -0.49137322
C       -1.48087704      -0.58377390      -0.34828756
N       -0.67303449      -0.81308850       0.82869314
H        2.76393627       0.27858655       0.41755048
H        1.61485001       1.59284620       0.70274037
H       -0.71600455       1.38635162      -0.95302444
H       -1.54939889      -1.48465215      -0.95393136
H       -2.47971418      -0.21258960      -0.12324199
H       -0.94161280      -0.21786152       1.60301937
12
Frame=16 idx=000790 GeodesicLength=1.1455129065136038 rxn_smarts="[N:1]([C:2](=[O:3])[C@@:4]1([H:9])[C:5]([H:10])([H:11])[N:6]1[H:12])([H:7])[H:8]>>[N:1]([C:2]1=[C:4]([H:9])[C:5]([H:10])([H:11])[N:6]([H:12])[O:3]1)([H:7])[H:8]"
N        1.84259213       0.66423077       0.36346659
C        0.94217746       0.11909823      -0.50773456
O        1.09551956      -1.15913314      -0.60028708
C       -0.43355363       0.45954469      -0.50233865
C       -1.47696616      -0.58369250      -0.34570279
N       -0.64316363      -0.76548713       0.82718035
H        2.75783491       0.25808347       0.41920427
H        1.59010198       1.54546495       0.77192843
H       -0.72780269       1.37923105      -0.98609383
H       -1.53202977      -1.50411341      -0.92218415
H       -2.48156516      -0.23361621      -0.11801990
H       -0.93314502      -0.17961077       1.60058132
