12
Frame=0 idx=005361 GeodesicLength=0.0 rxn_smarts="[O:1]([C@@:2]1([H:8])[C:3]([H:9])([H:10])[C@:4]1([C:5](=[O:6])[H:12])[H:11])[H:7]>>[O:1]([C@@:2]([C:3]([H:9])([H:10])[H:12])([C:4](=[C:5]=[O:6])[H:11])[H:8])[H:7]"
O       -1.78530598       0.52744003       0.48821955
C       -0.78161464      -0.18000463      -0.19518604
C        0.17860339       0.60274230      -0.96759985
C        0.18104992      -0.92908078       0.64332156
C        1.35181830      -0.20674383       0.90976227
O        2.43057507      -0.47510707       1.37500555
H       -2.41432422       0.86977079      -0.15233066
H       -1.20454974      -0.94672635      -0.86755242
H        0.67268324       0.12650851      -1.80456945
H        0.20845424       1.68622890      -0.93156359
H        0.03364499      -1.96260434       0.93501722
H        1.12896538       0.88757642       0.56747582
12
Frame=1 idx=005361 GeodesicLength=0.09607800739676897 rxn_smarts="[O:1]([C@@:2]1([H:8])[C:3]([H:9])([H:10])[C@:4]1([C:5](=[O:6])[H:12])[H:11])[H:7]>>[O:1]([C@@:2]([C:3]([H:9])([H:10])[H:12])([C:4](=[C:5]=[O:6])[H:11])[H:8])[H:7]"
O       -1.76159542       0.53633238       0.51359058
C       -0.78728609      -0.18383695      -0.19756943
C        0.18375421       0.58444693      -0.97462143
C        0.19250732      -0.93490697       0.62001007
C        1.34006052      -0.19858101       0.94197387
O        2.39784464      -0.45340038       1.45665424
H       -2.39130121       0.90453428      -0.11157230
H       -1.23502471      -0.94100573      -0.86298247
H        0.66554607       0.10107164      -1.81492628
H        0.19574428       1.66884816      -0.96741790
H        0.07964085      -1.98717069       0.85329253
H        1.12010953       0.90366835       0.54356851
12
Frame=2 idx=005361 GeodesicLength=0.19219987284377196 rxn_smarts="[O:1]([C@@:2]1([H:8])[C:3]([H:9])([H:10])[C@:4]1([C:5](=[O:6])[H:12])[H:11])[H:7]>>[O:1]([C@@:2]([C:3]([H:9])([H:10])[H:12])([C:4](=[C:5]=[O:6])[H:11])[H:8])[H:7]"
O       -1.73799749       0.54426312       0.53782374
C       -0.79274642      -0.18751648      -0.19944035
C        0.18836252       0.56703994      -0.98115036
C        0.20407189      -0.93950811       0.59766868
C        1.32731513      -0.19165305       0.97354729
O        2.36103367      -0.43442718       1.53716297
H       -2.36743614       0.93699212      -0.07230888
H       -1.26391327      -0.93561163      -0.85720566
H        0.65682433       0.07727196      -1.82557775
H        0.18253864       1.65135018      -1.00146649
H        0.12752258      -2.00592508       0.77288321
H        1.11442457       0.91772420       0.51806361
12
Frame=3 idx=005361 GeodesicLength=0.2883840764145215 rxn_smarts="[O:1]([C@@:2]1([H:8])[C:3]([H:9])([H:10])[C@:4]1([C:5](=[O:6])[H:12])[H:11])[H:7]>>[O:1]([C@@:2]([C:3]([H:9])([H:10])[H:12])([C:4](=[C:5]=[O:6])[H:11])[H:8])[H:7]"
O       -1.71450784       0.55130010       0.56091895
C       -0.79793988      -0.19109766      -0.20087893
C        0.19248216       0.55053280      -0.98728013
C        0.21578029      -0.94301596       0.57620881
C        1.31383277      -0.18600050       1.00429665
O        2.32045789      -0.41810467       1.61612625
H       -2.34288677       0.96721676      -0.03456766
H       -1.29121683      -0.93065477      -0.85034180
H        0.64659661       0.05512521      -1.83656580
H        0.16891021       1.63385221      -1.03369312
H        0.17684822      -2.01895541       0.69448418
H        1.11164316       0.92980191       0.49129261
12
Frame=4 idx=005361 GeodesicLength=0.3846416139589429 rxn_smarts="[O:1]([C@@:2]1([H:8])[C:3]([H:9])([H:10])[C@:4]1([C:5](=[O:6])[H:12])[H:11])[H:7]>>[O:1]([C@@:2]([C:3]([H:9])([H:10])[H:12])([C:4](=[C:5]=[O:6])[H:11])[H:8])[H:7]"
O       -1.69116416       0.55753171       0.58283194
C       -0.80282004      -0.19461493      -0.20193981
C        0.19619078       0.53492262      -0.99304311
C        0.22762410      -0.94549402       0.55563594
C        1.29983085      -0.18161582       1.03413794
O        2.27659844      -0.40444274       1.69286232
H       -2.31781194       0.99527851       0.00154178
H       -1.31690256      -0.92623060      -0.84249207
H        0.63503624       0.03459431      -1.84780202
H        0.15492830       1.61645364      -1.06410384
H        0.22714649      -2.02645475       0.61871637
H        1.11134350       0.94007207       0.46365454
12
Frame=5 idx=005361 GeodesicLength=0.4809386804240715 rxn_smarts="[O:1]([C@@:2]1([H:8])[C:3]([H:9])([H:10])[C@:4]1([C:5](=[O:6])[H:12])[H:11])[H:7]>>[O:1]([C@@:2]([C:3]([H:9])([H:10])[H:12])([C:4](=[C:5]=[O:6])[H:11])[H:8])[H:7]"
O       -1.66807892       0.56303811       0.60348306
C       -0.80737014      -0.19809011      -0.20269499
C        0.19958975       0.52021200      -0.99844343
C        0.23956397      -0.94697149       0.53598326
C        1.28546811      -0.17844900       1.06309703
O        2.23028510      -0.39355628       1.76650898
H       -2.29243676       1.02123135       0.03585522
H       -1.34094419      -0.92241425      -0.83381640
H        0.62243460       0.01562902      -1.85912722
H        0.14067014       1.59925211      -1.09272057
H        0.27783571      -2.02870954       0.54626149
H        1.11298263       0.94882809       0.43561356
12
Frame=6 idx=005361 GeodesicLength=0.5772705270894235 rxn_smarts="[O:1]([C@@:2]1([H:8])[C:3]([H:9])([H:10])[C@:4]1([C:5](=[O:6])[H:12])[H:11])[H:7]>>[O:1]([C@@:2]([C:3]([H:9])([H:10])[H:12])([C:4](=[C:5]=[O:6])[H:11])[H:8])[H:7]"
O       -1.64537625       0.56793147       0.62279701
C       -0.81158702      -0.20152255      -0.20319162
C        0.20278449       0.50638406      -1.00346100
C        0.25153939      -0.94745145       0.51732529
C        1.27085786      -0.17643832       1.09126624
O        2.18246088      -0.38560701       1.83629218
H       -2.26698649       1.04515072       0.06819678
H       -1.36333582      -0.91923834      -0.82444926
H        0.60911573      -0.00187610      -1.87032773
H        0.12618959       1.58230173      -1.11964931
H        0.32839087      -2.02609623       0.47759884
H        1.11594678       0.95646200       0.40760258
12
Frame=7 idx=005361 GeodesicLength=0.673647773981192 rxn_smarts="[O:1]([C@@:2]1([H:8])[C:3]([H:9])([H:10])[C@:4]1([C:5](=[O:6])[H:12])[H:11])[H:7]>>[O:1]([C@@:2]([C:3]([H:9])([H:10])[H:12])([C:4](=[C:5]=[O:6])[H:11])[H:8])[H:7]"
O       -1.62303649       0.57225803       0.64084456
C       -0.81544393      -0.20492556      -0.20348596
C        0.20582692       0.49340051      -1.00817180
C        0.26359826      -0.94698982       0.49956370
C        1.25623070      -0.17557560       1.11855950
O        2.13355554      -0.38053595       1.90221160
H       -2.24149414       1.06725000       0.09866045
H       -1.38414661      -0.91669391      -0.81449401
H        0.59525337      -0.01803474      -1.88134627
H        0.11148543       1.56561672      -1.14508069
H        0.37844289      -2.01912796       0.41295315
H        1.11972806       0.96335828       0.37978577
12
Frame=8 idx=005361 GeodesicLength=0.7700553729441536 rxn_smarts="[O:1]([C@@:2]1([H:8])[C:3]([H:9])([H:10])[C@:4]1([C:5](=[O:6])[H:12])[H:11])[H:7]>>[O:1]([C@@:2]([C:3]([H:9])([H:10])[H:12])([C:4](=[C:5]=[O:6])[H:11])[H:8])[H:7]"
O       -1.60108243       0.57610777       0.65767081
C       -0.81894177      -0.20828920      -0.20361435
C        0.20877659       0.48121756      -1.01262114
C        0.27574583      -0.94560499       0.48265879
C        1.24169502      -0.17582520       1.14504805
O        2.08416043      -0.37837592       1.96418510
H       -2.21605572       1.08769009       0.12728156
H       -1.40345936      -0.91474802      -0.80404137
H        0.58108185      -0.03299673      -1.89207405
H        0.09655177       1.54917920      -1.16923216
H        0.42767668      -2.00829912       0.35242424
H        1.12385111       0.96994455       0.35231451
12
Frame=9 idx=005361 GeodesicLength=0.8664731113655841 rxn_smarts="[O:1]([C@@:2]1([H:8])[C:3]([H:9])([H:10])[C@:4]1([C:5](=[O:6])[H:12])[H:11])[H:7]>>[O:1]([C@@:2]([C:3]([H:9])([H:10])[H:12])([C:4](=[C:5]=[O:6])[H:11])[H:8])[H:7]"
O       -1.57949361       0.57957124       0.67335824
C       -0.82208026      -0.21159970      -0.20360014
C        0.21166864       0.46978602      -1.01687228
C        0.28801409      -0.94331515       0.46653893
C        1.22734724      -0.17716371       1.17080327
O        2.03465872      -0.37911461       2.02237427
H       -2.19072339       1.10664524       0.15416190
H       -1.42137965      -0.91335376      -0.79314593
H        0.56678203      -0.04692348      -1.90244475
H        0.08135687       1.53294770      -1.19233707
H        0.47589326      -1.99409980       0.29595355
H        1.12795606       0.97662001       0.32521001
12
Frame=10 idx=005361 GeodesicLength=0.9628907474670533 rxn_smarts="[O:1]([C@@:2]1([H:8])[C:3]([H:9])([H:10])[C@:4]1([C:5](=[O:6])[H:12])[H:11])[H:7]>>[O:1]([C@@:2]([C:3]([H:9])([H:10])[H:12])([C:4](=[C:5]=[O:6])[H:11])[H:8])[H:7]"
O       -1.55825008       0.58275754       0.68797950
C       -0.82485868      -0.21483137      -0.20344286
C        0.21453265       0.45906170      -1.02097074
C        0.30042555      -0.94011231       0.45116078
C        1.21321302      -0.17956784       1.19595962
O        1.98539453      -0.38279032       2.07693600
H       -2.16556073       1.12425004       0.17937561
H       -1.43799500      -0.91245297      -0.78182293
H        0.55253191      -0.05997899      -1.91237821
H        0.06585487       1.51685751      -1.21463274
H        0.52295835      -1.97694866       0.24340155
H        1.13175359       0.98375568       0.29843441
12
Frame=11 idx=005361 GeodesicLength=1.0593178614232663 rxn_smarts="[O:1]([C@@:2]1([H:8])[C:3]([H:9])([H:10])[C@:4]1([C:5](=[O:6])[H:12])[H:11])[H:7]>>[O:1]([C@@:2]([C:3]([H:9])([H:10])[H:12])([C:4](=[C:5]=[O:6])[H:11])[H:8])[H:7]"
O       -1.53724959       0.58573170       0.70166984
C       -0.82726026      -0.21797901      -0.20314137
C        0.21735432       0.44899851      -1.02501243
C        0.31306880      -0.93601092       0.43640254
C        1.19936909      -0.18305199       1.22057560
O        1.93628967      -0.38931682       2.12834795
H       -2.14050553       1.14070717       0.20312182
H       -1.45341227      -0.91200583      -0.77004649
H        0.53837550      -0.07230685      -1.92190139
H        0.04998258       1.50084425      -1.23633100
H        0.56889485      -1.95724847       0.19452211
H        1.13509284       0.99163826       0.27179282
12
Frame=12 idx=005361 GeodesicLength=1.1557424729695849 rxn_smarts="[O:1]([C@@:2]1([H:8])[C:3]([H:9])([H:10])[C@:4]1([C:5](=[O:6])[H:12])[H:11])[H:7]>>[O:1]([C@@:2]([C:3]([H:9])([H:10])[H:12])([C:4](=[C:5]=[O:6])[H:11])[H:8])[H:7]"
O       -1.51642751       0.58859645       0.71451641
C       -0.82927672      -0.22101957      -0.20267622
C        0.22012999       0.43956116      -1.02905537
C        0.32599755      -0.93098352       0.42220940
C        1.18579997      -0.18761988       1.24479374
O        1.88739434      -0.39871549       2.17690680
H       -2.11557112       1.15614356       0.22550700
H       -1.46770945      -0.91196734      -0.75777359
H        0.52439589      -0.08405170      -1.93099371
H        0.03367640       1.48483150      -1.25762505
H        0.61373062      -1.93529970       0.14908053
H        1.13786003       1.00052453       0.24511006
12
Frame=13 idx=005361 GeodesicLength=1.2521576870538091 rxn_smarts="[O:1]([C@@:2]1([H:8])[C:3]([H:9])([H:10])[C@:4]1([C:5](=[O:6])[H:12])[H:11])[H:7]>>[O:1]([C@@:2]([C:3]([H:9])([H:10])[H:12])([C:4](=[C:5]=[O:6])[H:11])[H:8])[H:7]"
O       -1.49571283       0.59144227       0.72660336
C       -0.83089570      -0.22393677      -0.20202383
C        0.22284431       0.43071818      -1.03315848
C        0.33927248      -0.92499187       0.40852847
C        1.17246242      -0.19329423       1.26875701
O        1.83867408      -0.41100511       2.22290455
H       -2.09074117       1.17069527       0.24663820
H       -1.48094759      -0.91230857      -0.74494403
H        0.51064050      -0.09534579      -1.93965407
H        0.01688006       1.46874185      -1.27867214
H        0.65754445      -1.91134198       0.10684351
H        1.13997899       1.01062674       0.21817746
12
Frame=14 idx=005361 GeodesicLength=1.3485580312111691 rxn_smarts="[O:1]([C@@:2]1([H:8])[C:3]([H:9])([H:10])[C@:4]1([C:5](=[O:6])[H:12])[H:11])[H:7]>>[O:1]([C@@:2]([C:3]([H:9])([H:10])[H:12])([C:4](=[C:5]=[O:6])[H:11])[H:8])[H:7]"
O       -1.47504297       0.59437967       0.73799273
C       -0.83210185      -0.22670684      -0.20115065
C        0.22548241       0.42244961      -1.03736950
C        0.35295759      -0.91797250       0.39533385
C        1.15930057      -0.20010839       1.29262202
O        1.79010193      -0.42627354       2.26658198
H       -2.06603184       1.18447119       0.26657962
H       -1.49316745      -0.91300783      -0.73147882
H        0.49715374      -0.10631518      -1.94787199
H       -0.00047409       1.45249615      -1.29962250
H        0.70042547      -1.88555299       0.06760310
H        1.14139649       1.02214065       0.19078016
12
Frame=15 idx=005361 GeodesicLength=1.4449327648124646 rxn_smarts="[O:1]([C@@:2]1([H:8])[C:3]([H:9])([H:10])[C@:4]1([C:5](=[O:6])[H:12])[H:11])[H:7]>>[O:1]([C@@:2]([C:3]([H:9])([H:10])[H:12])([C:4](=[C:5]=[O:6])[H:11])[H:8])[H:7]"
O       -1.45435467       0.59751748       0.74873599
C       -0.83287551      -0.22930748      -0.20001999
C        0.22802469       0.41473814      -1.04173416
C        0.36711881      -0.90984258       0.38261115
C        1.14622475      -0.20811418       1.31654890
O        1.74162915      -0.44463327       2.30814319
H       -2.04144897       1.19758125       0.28538148
H       -1.50439022      -0.91405426      -0.71728624
H        0.48396151      -0.11707862      -1.95564348
H       -0.01844708       1.43600987      -1.32059977
H        0.74248871      -1.85805123       0.03117588
H        1.14206881       1.03523489       0.16268704
12
Frame=16 idx=005361 GeodesicLength=1.5412684199549065 rxn_smarts="[O:1]([C@@:2]1([H:8])[C:3]([H:9])([H:10])[C@:4]1([C:5](=[O:6])[H:12])[H:11])[H:7]>>[O:1]([C@@:2]([C:3]([H:9])([H:10])[H:12])([C:4](=[C:5]=[O:6])[H:11])[H:8])[H:7]"
O       -1.43359028       0.60097987       0.75886715
C       -0.83319230      -0.23171015      -0.19858805
C        0.23045395       0.40757349      -1.04629003
C        0.38182255      -0.90049200       0.37036945
C        1.13312023      -0.21738435       1.34070532
O        1.69323588      -0.46625663       2.34773474
H       -2.01701820       1.21012181       0.30306174
H       -1.51461575      -0.91543993      -0.70226238
H        0.47109780      -0.12775350      -1.96295186
H       -0.03710482       1.41918842      -1.34172482
H        0.78384641      -1.82890194      -0.00258476
H        1.14194453       1.05007492       0.13366350
