16
Frame=0 idx=010359 GeodesicLength=0.0 rxn_smarts="[C:1]([C:2]1([C:3]([H:11])([H:12])[H:13])[C:4]([H:14])([H:15])[O:5]/[C:6]1=[N:7]\[H:16])([H:8])([H:9])[H:10]>>[C:1]([C:2]1([C:3]([H:11])([H:12])[H:13])[C:4]([H:14])([H:15])[O:5]1)([H:8])([H:9])[H:10].[C:6]=[N:7][H:16]"
C       -1.06774556      -0.25928511       1.19359915
C       -0.41356813      -0.02890429      -0.11885146
C       -0.38093237      -1.13994706      -1.10285076
C       -0.31609004       1.35196522      -0.61540117
O        1.00569143       1.43144749      -0.21514344
C        1.61957933      -0.34118229       0.60712279
N        2.76107205      -0.12736711       0.89055648
H       -0.82117753       0.53227442       1.89823937
H       -2.14840055      -0.21430955       1.00542731
H       -0.81654699      -1.23004627       1.61570155
H       -0.15546059      -2.09828482      -0.63963335
H       -1.38357560      -1.17813198      -1.54859693
H        0.32743123      -0.93439292      -1.90291207
H       -0.99123410       2.05180105      -0.09891204
H       -0.47116850       1.44139053      -1.70183155
H        3.25212587       0.74297266       0.73348615
16
Frame=1 idx=010359 GeodesicLength=0.07451141226418409 rxn_smarts="[C:1]([C:2]1([C:3]([H:11])([H:12])[H:13])[C:4]([H:14])([H:15])[O:5]/[C:6]1=[N:7]\[H:16])([H:8])([H:9])[H:10]>>[C:1]([C:2]1([C:3]([H:11])([H:12])[H:13])[C:4]([H:14])([H:15])[O:5]1)([H:8])([H:9])[H:10].[C:6]=[N:7][H:16]"
C       -1.04817431      -0.25900563       1.19322932
C       -0.39517611      -0.03310158      -0.12323420
C       -0.40918778      -1.14450769      -1.11046481
C       -0.30862708       1.34737488      -0.62714874
O        1.01134793       1.41243215      -0.21231749
C        1.66825644      -0.37526195       0.53009951
N        2.76350993      -0.10342852       0.92511861
H       -0.79437809       0.53164192       1.89653937
H       -2.13042126      -0.21380887       1.01609572
H       -0.79751712      -1.22979037       1.61627668
H       -0.19118491      -2.10815833      -0.65404127
H       -1.42121744      -1.17118184      -1.53454476
H        0.28555733      -0.94964084      -1.92519247
H       -0.97821453       2.05110100      -0.11013992
H       -0.45658282       1.44078275      -1.71324667
H        3.20200981       0.80455292       0.83297112
16
Frame=2 idx=010359 GeodesicLength=0.14751445831564894 rxn_smarts="[C:1]([C:2]1([C:3]([H:11])([H:12])[H:13])[C:4]([H:14])([H:15])[O:5]/[C:6]1=[N:7]\[H:16])([H:8])([H:9])[H:10]>>[C:1]([C:2]1([C:3]([H:11])([H:12])[H:13])[C:4]([H:14])([H:15])[O:5]1)([H:8])([H:9])[H:10].[C:6]=[N:7][H:16]"
C       -1.02938213      -0.25782527       1.19311277
C       -0.37634593      -0.03585090      -0.12661094
C       -0.43164754      -1.14749794      -1.11524348
C       -0.30230599       1.34407683      -0.63780827
O        1.01462415       1.39762805      -0.20637967
C        1.71671544      -0.40059604       0.45395584
N        2.75763977      -0.08756366       0.95228681
H       -0.77223546       0.53314228       1.89494136
H       -2.11284417      -0.21541750       1.02541959
H       -0.77688194      -1.22739480       1.61813476
H       -0.21870290      -2.11507334      -0.66444661
H       -1.45166924      -1.16609298      -1.51891492
H        0.24916213      -0.96165027      -1.94381935
H       -0.96840364       2.05061740      -0.12162441
H       -0.44114253       1.44069421      -1.72377136
H        3.14341996       0.84880392       0.92076788
16
Frame=3 idx=010359 GeodesicLength=0.21975808244295242 rxn_smarts="[C:1]([C:2]1([C:3]([H:11])([H:12])[H:13])[C:4]([H:14])([H:15])[O:5]/[C:6]1=[N:7]\[H:16])([H:8])([H:9])[H:10]>>[C:1]([C:2]1([C:3]([H:11])([H:12])[H:13])[C:4]([H:14])([H:15])[O:5]1)([H:8])([H:9])[H:10].[C:6]=[N:7][H:16]"
C       -1.01276467      -0.25585802       1.19324630
C       -0.35775610      -0.03716820      -0.12874372
C       -0.44900253      -1.14940212      -1.11726265
C       -0.29729353       1.34228545      -0.64733995
O        1.01552455       1.38702566      -0.19672539
C        1.76444617      -0.41714631       0.37966183
N        2.74830238      -0.07969528       0.97017896
H       -0.75627296       0.53680264       1.89356079
H       -2.09721311      -0.21931233       1.03281061
H       -0.75613792      -1.22309376       1.62158831
H       -0.23886348      -2.11983458      -0.67078866
H       -1.47583092      -1.16313125      -1.50244035
H        0.21821007      -0.97104091      -1.95857742
H       -0.96221477       2.05067960      -0.13364857
H       -0.42498249       1.44139844      -1.73344525
H        3.08184930       0.87749098       0.99792516
16
Frame=4 idx=010359 GeodesicLength=0.2918429224552052 rxn_smarts="[C:1]([C:2]1([C:3]([H:11])([H:12])[H:13])[C:4]([H:14])([H:15])[O:5]/[C:6]1=[N:7]\[H:16])([H:8])([H:9])[H:10]>>[C:1]([C:2]1([C:3]([H:11])([H:12])[H:13])[C:4]([H:14])([H:15])[O:5]1)([H:8])([H:9])[H:10].[C:6]=[N:7][H:16]"
C       -0.99904372      -0.25328818       1.19355205
C       -0.33966940      -0.03733746      -0.12947572
C       -0.46192826      -1.15056283      -1.11693830
C       -0.29338526       1.34171250      -0.65545361
O        1.01421363       1.37967898      -0.18311915
C        1.81113327      -0.42585004       0.30764744
N        2.73658293      -0.07775039       0.98153901
H       -0.74691271       0.54216344       1.89256477
H       -2.08418591      -0.22506914       1.03796680
H       -0.73667655      -1.21729252       1.62636663
H       -0.25276586      -2.12304215      -0.67374502
H       -1.49449461      -1.16210526      -1.48569789
H        0.19229938      -0.97839678      -1.96978703
H       -0.95908884       2.05125389      -0.14576163
H       -0.40791109       1.44287174      -1.74189635
H        3.02183298       0.89301422       1.06223800
16
Frame=5 idx=010359 GeodesicLength=0.3641853417533471 rxn_smarts="[C:1]([C:2]1([C:3]([H:11])([H:12])[H:13])[C:4]([H:14])([H:15])[O:5]/[C:6]1=[N:7]\[H:16])([H:8])([H:9])[H:10]>>[C:1]([C:2]1([C:3]([H:11])([H:12])[H:13])[C:4]([H:14])([H:15])[O:5]1)([H:8])([H:9])[H:10].[C:6]=[N:7][H:16]"
C       -0.98691418      -0.24969557       1.19414838
C       -0.32208047      -0.03621994      -0.12935102
C       -0.47132289      -1.15103456      -1.11447678
C       -0.29039578       1.34201616      -0.66302552
O        1.01070653       1.37527054      -0.16688979
C        1.85706740      -0.42612243       0.23377387
N        2.72328923      -0.08239572       0.98465116
H       -0.74244115       0.54970793       1.89144698
H       -2.07243559      -0.23247099       1.04221249
H       -0.71667029      -1.20910862       1.63263885
H       -0.26068749      -2.12441862      -0.67357114
H       -1.50890480      -1.16334442      -1.46755678
H        0.16957808      -0.98402597      -1.97851718
H       -0.95886008       2.05182083      -0.15889618
H       -0.38999803       1.44439099      -1.74982311
H        2.96006951       0.89563037       1.12323575
16
Frame=6 idx=010359 GeodesicLength=0.43691035613743523 rxn_smarts="[C:1]([C:2]1([C:3]([H:11])([H:12])[H:13])[C:4]([H:14])([H:15])[O:5]/[C:6]1=[N:7]\[H:16])([H:8])([H:9])[H:10]>>[C:1]([C:2]1([C:3]([H:11])([H:12])[H:13])[C:4]([H:14])([H:15])[O:5]1)([H:8])([H:9])[H:10].[C:6]=[N:7][H:16]"
C       -0.97766849      -0.24547081       1.19495380
C       -0.30499494      -0.03439562      -0.12783869
C       -0.47744503      -1.15126965      -1.11013262
C       -0.28789000       1.34293541      -0.66934723
O        1.00591002       1.37229099      -0.14829454
C        1.90189352      -0.41983829       0.16135777
N        2.71151163      -0.09077537       0.97956880
H       -0.74342079       0.55847680       1.89068022
H       -2.06319389      -0.24053181       1.04460768
H       -0.69908944      -1.19964534       1.64005506
H       -0.26400463      -2.12494401      -0.67071842
H       -1.51923726      -1.16626373      -1.44929437
H        0.15066592      -0.98860286      -1.98444763
H       -0.95975583       2.05291419      -0.17156591
H       -0.37153532       1.44635922      -1.75642924
H        2.89825453       0.88876088       1.17684531
16
Frame=7 idx=010359 GeodesicLength=0.5098533552172275 rxn_smarts="[C:1]([C:2]1([C:3]([H:11])([H:12])[H:13])[C:4]([H:14])([H:15])[O:5]/[C:6]1=[N:7]\[H:16])([H:8])([H:9])[H:10]>>[C:1]([C:2]1([C:3]([H:11])([H:12])[H:13])[C:4]([H:14])([H:15])[O:5]1)([H:8])([H:9])[H:10].[C:6]=[N:7][H:16]"
C       -0.97172972      -0.24072671       1.19592976
C       -0.28863982      -0.03193126      -0.12482400
C       -0.48056650      -1.15133255      -1.10399059
C       -0.28574687       1.34437015      -0.67430036
O        0.99972860       1.37048048      -0.12685115
C        1.94529630      -0.40702379       0.09015980
N        2.70129318      -0.10214779       0.96752199
H       -0.75036707       0.56830340       1.89016133
H       -2.05682701      -0.24936040       1.04500296
H       -0.68450589      -1.18896148       1.64866646
H       -0.26298444      -2.12468442      -0.66533921
H       -1.52580952      -1.17091542      -1.43098472
H        0.13535542      -0.99222138      -1.98769341
H       -0.96181347       2.05441165      -0.18389415
H       -0.35207597       1.44868645      -1.76155277
H        2.83939278       0.87305306       1.22198807
16
Frame=8 idx=010359 GeodesicLength=0.5830697281783271 rxn_smarts="[C:1]([C:2]1([C:3]([H:11])([H:12])[H:13])[C:4]([H:14])([H:15])[O:5]/[C:6]1=[N:7]\[H:16])([H:8])([H:9])[H:10]>>[C:1]([C:2]1([C:3]([H:11])([H:12])[H:13])[C:4]([H:14])([H:15])[O:5]1)([H:8])([H:9])[H:10].[C:6]=[N:7][H:16]"
C       -0.96916037      -0.23556997       1.19705177
C       -0.27305717      -0.02901900      -0.12027679
C       -0.48104619      -1.15138995      -1.09626723
C       -0.28378944       1.34616699      -0.67784672
O        0.99244177       1.36926471      -0.10289912
C        1.98719829      -0.38818744       0.02021385
N        2.69265978      -0.11564613       0.94948961
H       -0.76288104       0.57885505       1.88988422
H       -2.05338212      -0.25858651       1.04342890
H       -0.67349872      -1.17735270       1.65834645
H       -0.25815555      -2.12390039      -0.65775538
H       -1.52906473      -1.17720648      -1.41281812
H        0.12334788      -0.99516527      -1.98851630
H       -0.96445510       2.05637893      -0.19561513
H       -0.33171835       1.45133748      -1.76508298
H        2.78456107       0.85002068       1.25866299
16
Frame=9 idx=010359 GeodesicLength=0.6566912841925587 rxn_smarts="[C:1]([C:2]1([C:3]([H:11])([H:12])[H:13])[C:4]([H:14])([H:15])[O:5]/[C:6]1=[N:7]\[H:16])([H:8])([H:9])[H:10]>>[C:1]([C:2]1([C:3]([H:11])([H:12])[H:13])[C:4]([H:14])([H:15])[O:5]1)([H:8])([H:9])[H:10].[C:6]=[N:7][H:16]"
C       -0.97029336      -0.23001099       1.19825059
C       -0.25847399      -0.02558808      -0.11408399
C       -0.47884315      -1.15139863      -1.08674095
C       -0.28185283       1.34824347      -0.67992042
O        0.98370237       1.36863800      -0.07572814
C        2.02718760      -0.36244054      -0.04968237
N        2.68450418      -0.13165967       0.92554653
H       -0.78128160       0.58993787       1.88963830
H       -2.05305157      -0.26813980       1.03982750
H       -0.66656401      -1.16468750       1.66909471
H       -0.24921562      -2.12230948      -0.64766275
H       -1.52888878      -1.18545518      -1.39443100
H        0.11458213      -0.99737212      -1.98680312
H       -0.96790667       2.05849329      -0.20714407
H       -0.30972123       1.45406968      -1.76686288
H        2.73611653       0.81967969       1.28670207
16
Frame=10 idx=010359 GeodesicLength=0.7311004701469666 rxn_smarts="[C:1]([C:2]1([C:3]([H:11])([H:12])[H:13])[C:4]([H:14])([H:15])[O:5]/[C:6]1=[N:7]\[H:16])([H:8])([H:9])[H:10]>>[C:1]([C:2]1([C:3]([H:11])([H:12])[H:13])[C:4]([H:14])([H:15])[O:5]1)([H:8])([H:9])[H:10].[C:6]=[N:7][H:16]"
C       -0.97427559      -0.22401814       1.19958213
C       -0.24449976      -0.02193707      -0.10640622
C       -0.47452524      -1.15156449      -1.07577803
C       -0.27966849       1.35040485      -0.68077207
O        0.97454095       1.36769814      -0.04727332
C        2.06550717      -0.33107071      -0.11902230
N        2.67892713      -0.14846173       0.89476320
H       -0.80410051       0.60160308       1.88926990
H       -2.05504852      -0.27768678       1.03461790
H       -0.66324569      -1.15114535       1.68092179
H       -0.23723530      -2.12035139      -0.63555876
H       -1.52602700      -1.19516137      -1.37597826
H        0.10846946      -0.99930466      -1.98302991
H       -0.97069526       2.06115246      -0.21781206
H       -0.28707574       1.45691466      -1.76707098
H        2.68895239       0.78292851       1.30954700
16
Frame=11 idx=010359 GeodesicLength=0.8061357679763348 rxn_smarts="[C:1]([C:2]1([C:3]([H:11])([H:12])[H:13])[C:4]([H:14])([H:15])[O:5]/[C:6]1=[N:7]\[H:16])([H:8])([H:9])[H:10]>>[C:1]([C:2]1([C:3]([H:11])([H:12])[H:13])[C:4]([H:14])([H:15])[O:5]1)([H:8])([H:9])[H:10].[C:6]=[N:7][H:16]"
C       -0.98179652      -0.21781903       1.20090546
C       -0.23137691      -0.01822976      -0.09700016
C       -0.46817679      -1.15197126      -1.06337124
C       -0.27710658       1.35257028      -0.68003927
O        0.96492900       1.36610559      -0.01682507
C        2.10167359      -0.29436007      -0.18720900
N        2.67523597      -0.16565665       0.85820915
H       -0.83187856       0.61341897       1.88874742
H       -2.06000274      -0.28707588       1.02733281
H       -0.66476596      -1.13714328       1.69364936
H       -0.22248416      -2.11814656      -0.62145960
H       -1.52049373      -1.20633466      -1.35774366
H        0.10523008      -1.00105453      -1.97703604
H       -0.97273032       2.06435007      -0.22740042
H       -0.26334223       1.45985082      -1.76531246
H        2.64708588       0.74149595       1.32455273
16
Frame=12 idx=010359 GeodesicLength=0.882022938901394 rxn_smarts="[C:1]([C:2]1([C:3]([H:11])([H:12])[H:13])[C:4]([H:14])([H:15])[O:5]/[C:6]1=[N:7]\[H:16])([H:8])([H:9])[H:10]>>[C:1]([C:2]1([C:3]([H:11])([H:12])[H:13])[C:4]([H:14])([H:15])[O:5]1)([H:8])([H:9])[H:10].[C:6]=[N:7][H:16]"
C       -0.99269805      -0.21146134       1.20214842
C       -0.21910228      -0.01457057      -0.08588346
C       -0.45996293      -1.15269049      -1.04959031
C       -0.27405696       1.35466847      -0.67772069
O        0.95511174       1.36354840       0.01528711
C        2.13554363      -0.25258637      -0.25421625
N        2.67291965      -0.18295377       0.81627629
H       -0.86406540       0.62522481       1.88793947
H       -2.06774347      -0.29606735       1.01802237
H       -0.67127890      -1.12286754       1.70712320
H       -0.20524468      -2.11577134      -0.60543408
H       -1.51247309      -1.21892904      -1.33973142
H        0.10474918      -1.00277049      -1.96892496
H       -0.97361779       2.06816001      -0.23570962
H       -0.23866638       1.46281611      -1.76155535
H        2.61058572       0.69625050       1.33196928
16
Frame=13 idx=010359 GeodesicLength=0.9591784064473943 rxn_smarts="[C:1]([C:2]1([C:3]([H:11])([H:12])[H:13])[C:4]([H:14])([H:15])[O:5]/[C:6]1=[N:7]\[H:16])([H:8])([H:9])[H:10]>>[C:1]([C:2]1([C:3]([H:11])([H:12])[H:13])[C:4]([H:14])([H:15])[O:5]1)([H:8])([H:9])[H:10].[C:6]=[N:7][H:16]"
C       -1.00725081      -0.20501834       1.20315366
C       -0.20778594      -0.01102006      -0.07289804
C       -0.44984778      -1.15375713      -1.03421976
C       -0.27030991       1.35664278      -0.67362211
O        0.94508011       1.35982769       0.04946401
C        2.16668761      -0.20542003      -0.32036061
N        2.67114347      -0.20049966       0.76870930
H       -0.90068263       0.63679002       1.88665511
H       -2.07844840      -0.30442056       1.00641603
H       -0.68347208      -1.10849699       1.72114851
H       -0.18551209      -2.11315391      -0.58717043
H       -1.50182497      -1.23307478      -1.32177940
H        0.10715129      -1.00451223      -1.95844868
H       -0.97316526       2.07251321      -0.24272721
H       -0.21263660       1.46568024      -1.75553850
H        2.58087397       0.64791975       1.33121812
16
Frame=14 idx=010359 GeodesicLength=1.0378355670113346 rxn_smarts="[C:1]([C:2]1([C:3]([H:11])([H:12])[H:13])[C:4]([H:14])([H:15])[O:5]/[C:6]1=[N:7]\[H:16])([H:8])([H:9])[H:10]>>[C:1]([C:2]1([C:3]([H:11])([H:12])[H:13])[C:4]([H:14])([H:15])[O:5]1)([H:8])([H:9])[H:10].[C:6]=[N:7][H:16]"
C       -1.02450401      -0.19840852       1.20392731
C       -0.19720748      -0.00764112      -0.05832478
C       -0.43814481      -1.15522141      -1.01751606
C       -0.26588127       1.35846987      -0.66804879
O        0.93542249       1.35469303       0.08439296
C        2.19521646      -0.15363333      -0.38524516
N        2.67035864      -0.21732758       0.71556625
H       -0.94053405       0.64836012       1.88465729
H       -2.09121588      -0.31221216       0.99298198
H       -0.70022588      -1.09394709       1.73566954
H       -0.16385535      -2.11043014      -0.56694043
H       -1.48898088      -1.24849436      -1.30386813
H        0.11211981      -1.00647780      -1.94594512
H       -0.97077699       2.07766120      -0.24811911
H       -0.18603248       1.46845941      -1.74760268
H        2.55424167       0.59614988       1.32441491
16
Frame=15 idx=010359 GeodesicLength=1.11810088868177 rxn_smarts="[C:1]([C:2]1([C:3]([H:11])([H:12])[H:13])[C:4]([H:14])([H:15])[O:5]/[C:6]1=[N:7]\[H:16])([H:8])([H:9])[H:10]>>[C:1]([C:2]1([C:3]([H:11])([H:12])[H:13])[C:4]([H:14])([H:15])[O:5]1)([H:8])([H:9])[H:10].[C:6]=[N:7][H:16]"
C       -1.04461867      -0.19177147       1.20430111
C       -0.18746334      -0.00457601      -0.04208649
C       -0.42499220      -1.15714362      -0.99947872
C       -0.26066308       1.36008088      -0.66080582
O        0.92630059       1.34785395       0.12023844
C        2.22080479      -0.09775571      -0.44838460
N        2.66978566      -0.23331939       0.65736796
H       -0.98350184       0.65969303       1.88183570
H       -2.10617566      -0.31928403       0.97746417
H       -0.72204683      -1.07953116       1.75038407
H       -0.14066597      -2.10770159      -0.54472782
H       -1.47402724      -1.26509157      -1.28612682
H        0.11976147      -1.00877981      -1.93131013
H       -0.96622201       2.08362119      -0.25161237
H       -0.15875421       1.47109849      -1.73755567
H        2.53247855       0.54260683       1.31049701
16
Frame=16 idx=010359 GeodesicLength=1.2002096699584583 rxn_smarts="[C:1]([C:2]1([C:3]([H:11])([H:12])[H:13])[C:4]([H:14])([H:15])[O:5]/[C:6]1=[N:7]\[H:16])([H:8])([H:9])[H:10]>>[C:1]([C:2]1([C:3]([H:11])([H:12])[H:13])[C:4]([H:14])([H:15])[O:5]1)([H:8])([H:9])[H:10].[C:6]=[N:7][H:16]"
C       -1.06722550      -0.18512654       1.20416590
C       -0.17852843      -0.00186536      -0.02429574
C       -0.41052265      -1.15954251      -0.98014919
C       -0.25463546       1.36146445      -0.65195073
O        0.91794669       1.33919297       0.15662898
C        2.24334069      -0.03822249      -0.50948873
N        2.66880898      -0.24828202       0.59439140
H       -1.02894864       0.67076695       1.87802576
H       -2.12294448      -0.32558360       0.95994637
H       -0.74860570      -1.06532774       1.76504361
H       -0.11627367      -2.10500465      -0.52053085
H       -1.45708929      -1.28274342      -1.26852226
H        0.13006822      -1.01150772      -1.91455232
H       -0.95926781       2.09044054      -0.25302762
H       -0.13104155       1.47356368      -1.72548574
H        2.51491860       0.48777747       1.28980116
