17
Frame=0 idx=009665 GeodesicLength=0.0 rxn_smarts="[C:1]([C@@:2]12[C:3]([H:11])([H:12])[C@@:4]([H:13])([C:5]([H:14])([H:15])[C:6]1([H:16])[H:17])[O:7]2)([H:8])([H:9])[H:10]>>[C:1]([C:2][C:6]([C:5]([C@:4]1([H:13])[C:3]([H:11])([H:12])[O:7]1)([H:14])[H:15])([H:16])[H:17])([H:8])([H:9])[H:10]"
C        2.07783645       0.64943514       0.28108309
C        0.69282252       0.14223893       0.48524827
C       -0.34182607      -1.81328188       0.18535702
C       -1.02191500      -0.91383053      -0.73641879
C       -1.62737517       0.35184860      -0.15556072
C       -0.39496917       1.16190138       0.27990480
O        0.39277040      -0.71453620      -0.91493009
H        2.18393905       1.19664921      -0.67303835
H        2.82467576      -0.14571972       0.30637018
H        2.31068484       1.34346636       1.09359750
H       -0.42585567      -1.77444824       1.25626236
H        0.02915481      -2.73830730      -0.24147061
H       -1.47936481      -1.33448412      -1.62697935
H       -2.28258597       0.10287603       0.68120140
H       -2.22416603       0.87748441      -0.90182249
H       -0.13814770       1.88474328      -0.51650013
H       -0.57567829       1.72396465       1.19769592
17
Frame=1 idx=009665 GeodesicLength=0.0317428810374444 rxn_smarts="[C:1]([C@@:2]12[C:3]([H:11])([H:12])[C@@:4]([H:13])([C:5]([H:14])([H:15])[C:6]1([H:16])[H:17])[O:7]2)([H:8])([H:9])[H:10]>>[C:1]([C:2][C:6]([C:5]([C@:4]1([H:13])[C:3]([H:11])([H:12])[O:7]1)([H:14])[H:15])([H:16])[H:17])([H:8])([H:9])[H:10]"
C        2.07925671       0.64756959       0.28088392
C        0.69309528       0.14125654       0.47555014
C       -0.33118643      -1.80319379       0.18731373
C       -1.02374549      -0.91448323      -0.73871660
C       -1.62841924       0.35155125      -0.15760389
C       -0.39569367       1.16124973       0.27691806
O        0.38852005      -0.71417477      -0.93059102
H        2.18906035       1.20693466      -0.66504840
H        2.82437133      -0.14928127       0.29965764
H        2.30987428       1.33018864       1.10389722
H       -0.43370761      -1.76688108       1.25740494
H        0.03939177      -2.73311792      -0.22947339
H       -1.48930804      -1.34295643      -1.62137277
H       -2.28223155       0.10365105       0.68053580
H       -2.22517384       0.87710307      -0.90388643
H       -0.14023742       1.88834870      -0.51520264
H       -0.57386647       1.71623525       1.19973369
17
Frame=2 idx=009665 GeodesicLength=0.06347789215883955 rxn_smarts="[C:1]([C@@:2]12[C:3]([H:11])([H:12])[C@@:4]([H:13])([C:5]([H:14])([H:15])[C:6]1([H:16])[H:17])[O:7]2)([H:8])([H:9])[H:10]>>[C:1]([C:2][C:6]([C:5]([C@:4]1([H:13])[C:3]([H:11])([H:12])[O:7]1)([H:14])[H:15])([H:16])[H:17])([H:8])([H:9])[H:10]"
C        2.08064301       0.64569332       0.28074448
C        0.69334501       0.14040200       0.46591751
C       -0.32067398      -1.79307751       0.18918433
C       -1.02558755      -0.91513655      -0.74093957
C       -1.62947349       0.35125822      -0.15958237
C       -0.39642578       1.16067061       0.27385940
O        0.38416630      -0.71396185      -0.94601322
H        2.19417174       1.21704375      -0.65685456
H        2.82402697      -0.15279825       0.29303086
H        2.30896853       1.31680171       1.11405822
H       -0.44128190      -1.75955246       1.25820870
H        0.04964906      -2.72770822      -0.21758794
H       -1.49909412      -1.35133314      -1.61561763
H       -2.28182441       0.10445424       0.67998466
H       -2.22624866       0.87667280      -0.90587888
H       -0.14232411       1.89187911      -0.51406446
H       -0.57203662       1.70869223       1.20155047
17
Frame=3 idx=009665 GeodesicLength=0.09521725549777241 rxn_smarts="[C:1]([C@@:2]12[C:3]([H:11])([H:12])[C@@:4]([H:13])([C:5]([H:14])([H:15])[C:6]1([H:16])[H:17])[O:7]2)([H:8])([H:9])[H:10]>>[C:1]([C:2][C:6]([C:5]([C@:4]1([H:13])[C:3]([H:11])([H:12])[O:7]1)([H:14])[H:15])([H:16])[H:17])([H:8])([H:9])[H:10]"
C        2.08199765       0.64380579       0.28066530
C        0.69357306       0.13967448       0.45633834
C       -0.31028989      -1.78293237       0.19097022
C       -1.02744542      -0.91579255      -0.74309044
C       -1.63053893       0.35097019      -0.16150208
C       -0.39716630       1.16016357       0.27072409
O        0.37970753      -0.71389913      -0.96120859
H        2.19927751       1.22700599      -0.64843907
H        2.82364295      -0.15627400       0.28646040
H        2.30797074       1.30327331       1.12410849
H       -0.44857904      -1.75244411       1.25869193
H        0.05994582      -2.72207588      -0.20580521
H       -1.50874157      -1.35962812      -1.60970778
H       -2.28136708       0.10528830       0.67954101
H       -2.22739137       0.87619330      -0.90780615
H       -0.14440765       1.89533916      -0.51308866
H       -0.57018800       1.70133208       1.20314819
17
Frame=4 idx=009665 GeodesicLength=0.12694868152078648 rxn_smarts="[C:1]([C@@:2]12[C:3]([H:11])([H:12])[C@@:4]([H:13])([C:5]([H:14])([H:15])[C:6]1([H:16])[H:17])[O:7]2)([H:8])([H:9])[H:10]>>[C:1]([C:2][C:6]([C:5]([C@:4]1([H:13])[C:3]([H:11])([H:12])[O:7]1)([H:14])[H:15])([H:16])[H:17])([H:8])([H:9])[H:10]"
C        2.08331978       0.64190965       0.28064788
C        0.69378209       0.13906702       0.44681671
C       -0.30003839      -1.77276701       0.19266678
C       -1.02931813      -0.91644900      -0.74517282
C       -1.63161357       0.35068595      -0.16335859
C       -0.39791295       1.15972508       0.26751774
O        0.37515027      -0.71399146      -0.97617713
H        2.20437854       1.23679401      -0.63982059
H        2.82322512      -0.15970014       0.27998276
H        2.30687092       1.28964595       1.13402205
H       -0.45559240      -1.74555963       1.25886800
H        0.07025752      -2.71623562      -0.19414289
H       -1.51824534      -1.36782510      -1.60366095
H       -2.28085655       0.10614836       0.67920837
H       -2.22860057       0.87566800      -0.90966044
H       -0.14648668       1.89872821      -0.51227123
H       -0.56831966       1.69415571       1.20453434
17
Frame=5 idx=009665 GeodesicLength=0.15868594772937625 rxn_smarts="[C:1]([C@@:2]12[C:3]([H:11])([H:12])[C@@:4]([H:13])([C:5]([H:14])([H:15])[C:6]1([H:16])[H:17])[O:7]2)([H:8])([H:9])[H:10]>>[C:1]([C:2][C:6]([C:5]([C@:4]1([H:13])[C:3]([H:11])([H:12])[O:7]1)([H:14])[H:15])([H:16])[H:17])([H:8])([H:9])[H:10]"
C        2.08461087       0.64000466       0.28069151
C        0.69397351       0.13857858       0.43733976
C       -0.28991976      -1.76257998       0.19428073
C       -1.03120874      -0.91711010      -0.74718696
C       -1.63269753       0.35040647      -0.16516088
C       -0.39866609       1.15935474       0.26423271
O        0.37049354      -0.71424424      -0.99092859
H        2.20947058       1.24646203      -0.63096613
H        2.82277553      -0.16307682       0.27353735
H        2.30567536       1.27586195       1.14384200
H       -0.46232588      -1.73887830       1.25875899
H        0.08060087      -2.71018649      -0.18258344
H       -1.52762042      -1.37594044      -1.59746861
H       -2.28029497       0.10704084       0.67897714
H       -2.22987399       0.87509636      -0.91145350
H       -0.14856186       1.90205023      -0.51161900
H       -0.56643103       1.68716051       1.20570690
17
Frame=6 idx=009665 GeodesicLength=0.19044312971284666 rxn_smarts="[C:1]([C@@:2]12[C:3]([H:11])([H:12])[C@@:4]([H:13])([C:5]([H:14])([H:15])[C:6]1([H:16])[H:17])[O:7]2)([H:8])([H:9])[H:10]>>[C:1]([C:2][C:6]([C:5]([C@:4]1([H:13])[C:3]([H:11])([H:12])[O:7]1)([H:14])[H:15])([H:16])[H:17])([H:8])([H:9])[H:10]"
C        2.08587349       0.63809026       0.28079768
C        0.69414891       0.13820887       0.42789334
C       -0.27993104      -1.75237031       0.19581678
C       -1.03312091      -0.91778016      -0.74913307
C       -1.63379144       0.35013331      -0.16691705
C       -0.39942669       1.15905338       0.26086117
O        0.36573591      -0.71466163      -1.00547487
H        2.21455302       1.25605875      -0.62183993
H        2.82229484      -0.16640510       0.26707188
H        2.30438859       1.26186826       1.15360534
H       -0.46877868      -1.73238026       1.25838461
H        0.09099031      -2.70392828      -0.17111533
H       -1.53688501      -1.38399437      -1.59111747
H       -2.27968509       0.10797367       0.67883961
H       -2.23121012       0.87447766      -0.91319760
H       -0.15063400       1.90531095      -0.51113909
H       -0.56452209       1.68034500       1.20666402
17
Frame=7 idx=009665 GeodesicLength=0.22223297911387868 rxn_smarts="[C:1]([C@@:2]12[C:3]([H:11])([H:12])[C@@:4]([H:13])([C:5]([H:14])([H:15])[C:6]1([H:16])[H:17])[O:7]2)([H:8])([H:9])[H:10]>>[C:1]([C:2][C:6]([C:5]([C@:4]1([H:13])[C:3]([H:11])([H:12])[O:7]1)([H:14])[H:15])([H:16])[H:17])([H:8])([H:9])[H:10]"
C        2.08710785       0.63616834       0.28096665
C        0.69431145       0.13795631       0.41846324
C       -0.27007187      -1.74213589       0.19727969
C       -1.03505919      -0.91846385      -0.75101105
C       -1.63489343       0.34986694      -0.16863746
C       -0.40019092       1.15881905       0.25739598
O        0.36087318      -0.71524877      -1.01982524
H        2.21961787       1.26563496      -0.61240372
H        2.82178612      -0.16967855       0.26053277
H        2.30301284       1.24761363       1.16334426
H       -0.47495833      -1.72604624       1.25776384
H        0.10143909      -2.69745863      -0.15972368
H       -1.54605998      -1.39200650      -1.58459231
H       -2.27902712       0.10895366       0.67878320
H       -2.23260079       0.87381079      -0.91490724
H       -0.15270179       1.90851479      -0.51083462
H       -0.56258500       1.67369995       1.20740571
17
Frame=8 idx=009665 GeodesicLength=0.25404779981122727 rxn_smarts="[C:1]([C@@:2]12[C:3]([H:11])([H:12])[C@@:4]([H:13])([C:5]([H:14])([H:15])[C:6]1([H:16])[H:17])[O:7]2)([H:8])([H:9])[H:10]>>[C:1]([C:2][C:6]([C:5]([C@:4]1([H:13])[C:3]([H:11])([H:12])[O:7]1)([H:14])[H:15])([H:16])[H:17])([H:8])([H:9])[H:10]"
C        2.08831090       0.63423565       0.28120219
C        0.69445895       0.13781997       0.40904768
C       -0.26033951      -1.73187972       0.19865860
C       -1.03702000      -0.91915559      -0.75282517
C       -1.63600285       0.34960729      -0.17031153
C       -0.40096237       1.15865375       0.25383810
O        0.35591045      -0.71600476      -1.03398546
H        2.22468176       1.27513885      -0.60267767
H        2.82124216      -0.17289995       0.25397602
H        2.30152753       1.23313799       1.17302883
H       -0.48084187      -1.71987820       1.25690499
H        0.11193372      -2.69078578      -0.14843082
H       -1.55513339      -1.39995606      -1.57791052
H       -2.27831337       0.10997549       0.67882125
H       -2.23405883       0.87309601      -0.91655976
H       -0.15476668       1.91166000      -0.51070983
H       -0.56062661       1.66723506       1.20793309
17
Frame=9 idx=009665 GeodesicLength=0.2858996710227879 rxn_smarts="[C:1]([C@@:2]12[C:3]([H:11])([H:12])[C@@:4]([H:13])([C:5]([H:14])([H:15])[C:6]1([H:16])[H:17])[O:7]2)([H:8])([H:9])[H:10]>>[C:1]([C:2][C:6]([C:5]([C@:4]1([H:13])[C:3]([H:11])([H:12])[O:7]1)([H:14])[H:15])([H:16])[H:17])([H:8])([H:9])[H:10]"
C        2.08948802       0.63229334       0.28150443
C        0.69459496       0.13779925       0.39963358
C       -0.25073317      -1.72159911       0.19995812
C       -1.03901076      -0.91985935      -0.75457519
C       -1.63712308       0.34935395      -0.17194793
C       -0.40174009       1.15855739       0.25018094
O        0.35084396      -0.71693147      -1.04796703
H        2.22974449       1.28460987      -0.59262906
H        2.82067300      -0.17606252       0.24736061
H        2.29993939       1.21838970       1.18268709
H       -0.48643876      -1.71385638       1.25582238
H        0.12249457      -2.68390243      -0.13722319
H       -1.56412786      -1.40786163      -1.57105667
H       -2.27754946       0.11104122       0.67894551
H       -2.23558247       0.87233237      -0.91817053
H       -0.15682994       1.91475414      -0.51077047
H       -0.55864279       1.66094169       1.20824740
17
Frame=10 idx=009665 GeodesicLength=0.3178044616226122 rxn_smarts="[C:1]([C@@:2]12[C:3]([H:11])([H:12])[C@@:4]([H:13])([C:5]([H:14])([H:15])[C:6]1([H:16])[H:17])[O:7]2)([H:8])([H:9])[H:10]>>[C:1]([C:2][C:6]([C:5]([C@:4]1([H:13])[C:3]([H:11])([H:12])[O:7]1)([H:14])[H:15])([H:16])[H:17])([H:8])([H:9])[H:10]"
C        2.09063783       0.63034115       0.28187320
C        0.69472092       0.13789561       0.39020386
C       -0.24124826      -1.71129186       0.20118113
C       -1.04103441      -0.92057885      -0.75626148
C       -1.63825369       0.34911028      -0.17355492
C       -0.40252426       1.15853061       0.24641626
O        0.34566846      -0.71803442      -1.06177969
H        2.23480091       1.29409011      -0.58221725
H        2.82007597      -0.17916317       0.24063857
H        2.29824822       1.20330991       1.19234636
H       -0.49174922      -1.70796558       1.25453839
H        0.13314393      -2.67680592      -0.12608852
H       -1.57305848      -1.41574027      -1.56401603
H       -2.27673593       0.11216287       0.67914817
H       -2.23716801       0.87152052      -0.91975248
H       -0.15889374       1.91780201      -0.51102190
H       -0.55663024       1.65481701       1.20834634
17
Frame=11 idx=009665 GeodesicLength=0.3497802684569346 rxn_smarts="[C:1]([C@@:2]12[C:3]([H:11])([H:12])[C@@:4]([H:13])([C:5]([H:14])([H:15])[C:6]1([H:16])[H:17])[O:7]2)([H:8])([H:9])[H:10]>>[C:1]([C:2][C:6]([C:5]([C@:4]1([H:13])[C:3]([H:11])([H:12])[O:7]1)([H:14])[H:15])([H:16])[H:17])([H:8])([H:9])[H:10]"
C        2.09176262       0.62837682       0.28230983
C        0.69483868       0.13810978       0.38074253
C       -0.23188434      -1.70095088       0.20233287
C       -1.04309427      -0.92131943      -0.75788349
C       -1.63939455       0.34887530      -0.17513982
C       -0.40331604       1.15857569       0.24253417
O        0.34038237      -0.71932346      -1.07543646
H        2.23985188       1.30362849      -0.57138701
H        2.81945666      -0.18219145       0.23374691
H        2.29645279       1.18782401       1.20204017
H       -0.49677532      -1.70217472       1.25306123
H        0.14389379      -2.66948675      -0.11500895
H       -1.58193873      -1.42361337      -1.55676934
H       -2.27587050       0.11334388       0.67942287
H       -2.23881589       0.87065539      -0.92131422
H       -0.16096160       1.92080869      -0.51147742
H       -0.55458755       1.64886202       1.20822613
17
Frame=12 idx=009665 GeodesicLength=0.3818319172019552 rxn_smarts="[C:1]([C@@:2]12[C:3]([H:11])([H:12])[C@@:4]([H:13])([C:5]([H:14])([H:15])[C:6]1([H:16])[H:17])[O:7]2)([H:8])([H:9])[H:10]>>[C:1]([C:2][C:6]([C:5]([C@:4]1([H:13])[C:3]([H:11])([H:12])[O:7]1)([H:14])[H:15])([H:16])[H:17])([H:8])([H:9])[H:10]"
C        2.09286224       0.62640183       0.28281306
C        0.69495136       0.13844176       0.37122328
C       -0.22263659      -1.69057860       0.20342389
C       -1.04519119      -0.92208716      -0.75943829
C       -1.64054369       0.34865150      -0.17671561
C       -0.40411303       1.15868773       0.23852167
O        0.33498087      -0.72079664      -1.08894442
H        2.24488022       1.31330010      -0.56007796
H        2.81881737      -0.18513294       0.22660360
H        2.29455721       1.17184156       1.21181235
H       -0.50152004      -1.69644870       1.25142425
H        0.15475529      -2.66194933      -0.10395937
H       -1.59078662      -1.43149627      -1.54930084
H       -2.27495621       0.11459765       0.67975496
H       -2.24051888       0.86973328      -0.92287547
H       -0.16303122       1.92377273      -0.51214151
H       -0.55250710       1.64306149       1.20787642
17
Frame=13 idx=009665 GeodesicLength=0.4139567774602598 rxn_smarts="[C:1]([C@@:2]12[C:3]([H:11])([H:12])[C@@:4]([H:13])([C:5]([H:14])([H:15])[C:6]1([H:16])[H:17])[O:7]2)([H:8])([H:9])[H:10]>>[C:1]([C:2][C:6]([C:5]([C@:4]1([H:13])[C:3]([H:11])([H:12])[O:7]1)([H:14])[H:15])([H:16])[H:17])([H:8])([H:9])[H:10]"
C        2.09393464       0.62441548       0.28338779
C        0.69505952       0.13888909       0.36165522
C       -0.21350599      -1.68017396       0.20444443
C       -1.04732690      -0.92287846      -0.76092714
C       -1.64170166       0.34843844      -0.17827412
C       -0.40491507       1.15887044       0.23438214
O        0.32946696      -0.72246538      -1.10230273
H        2.24989252       1.32305705      -0.54829023
H        2.81816268      -0.18797655       0.21924968
H        2.29254470       1.15539473       1.22162003
H       -0.50597831      -1.69080692       1.24962712
H        0.16571931      -2.65419230      -0.09296492
H       -1.59958961      -1.43937721      -1.54161761
H       -2.27398692       0.11591819       0.68015529
H       -2.24228338       0.86875606      -0.92442346
H       -0.16510452       1.92669650      -0.51302122
H       -0.55038797       1.63743483       1.20729973
17
Frame=14 idx=009665 GeodesicLength=0.4461426847199071 rxn_smarts="[C:1]([C@@:2]12[C:3]([H:11])([H:12])[C@@:4]([H:13])([C:5]([H:14])([H:15])[C:6]1([H:16])[H:17])[O:7]2)([H:8])([H:9])[H:10]>>[C:1]([C:2][C:6]([C:5]([C@:4]1([H:13])[C:3]([H:11])([H:12])[O:7]1)([H:14])[H:15])([H:16])[H:17])([H:8])([H:9])[H:10]"
C        2.09497744       0.62241967       0.28403632
C        0.69516528       0.13944623       0.35203936
C       -0.20449105      -1.66974279       0.20538931
C       -1.04949971      -0.92369176      -0.76235160
C       -1.64286607       0.34823437      -0.17981016
C       -0.40571931       1.15912043       0.23011832
O        0.32384477      -0.72433151      -1.11551170
H        2.25488577       1.33286890      -0.53602996
H        2.81749803      -0.19070798       0.21171828
H        2.29040183       1.13851308       1.23143308
H       -0.51014648      -1.68524882       1.24767870
H        0.17676472      -2.64622585      -0.08204176
H       -1.60834185      -1.44724043      -1.53373192
H       -2.27295762       0.11730101       0.68062924
H       -2.24410914       0.86772479      -0.92594861
H       -0.16717916       1.92957723      -0.51411554
H       -0.54822745       1.63198342       1.20649865
17
Frame=15 idx=009665 GeodesicLength=0.4783777716181158 rxn_smarts="[C:1]([C@@:2]12[C:3]([H:11])([H:12])[C@@:4]([H:13])([C:5]([H:14])([H:15])[C:6]1([H:16])[H:17])[O:7]2)([H:8])([H:9])[H:10]>>[C:1]([C:2][C:6]([C:5]([C@:4]1([H:13])[C:3]([H:11])([H:12])[O:7]1)([H:14])[H:15])([H:16])[H:17])([H:8])([H:9])[H:10]"
C        2.09598846       0.62041625       0.28476072
C        0.69527116       0.14010762       0.34237760
C       -0.19558993      -1.65929043       0.20625335
C       -1.05170793      -0.92452513      -0.76371323
C       -1.64403461       0.34803781      -0.18131825
C       -0.40652299       1.15943438       0.22573367
O        0.31811830      -0.72639615      -1.12857134
H        2.25985672       1.34270254      -0.52330725
H        2.81682892      -0.19331483       0.20404543
H        2.28811531       1.12123032       1.24122072
H       -0.51402261      -1.67977544       1.24558684
H        0.18787205      -2.63806032      -0.07120639
H       -1.61703715      -1.45507022      -1.52565715
H       -2.27186322       0.11874145       0.68118219
H       -2.24599623       0.86664120      -0.92744081
H       -0.16925333       1.93241234      -0.51542266
H       -0.54602292       1.62670863       1.20547657
17
Frame=16 idx=009665 GeodesicLength=0.510650147011894 rxn_smarts="[C:1]([C@@:2]12[C:3]([H:11])([H:12])[C@@:4]([H:13])([C:5]([H:14])([H:15])[C:6]1([H:16])[H:17])[O:7]2)([H:8])([H:9])[H:10]>>[C:1]([C:2][C:6]([C:5]([C@:4]1([H:13])[C:3]([H:11])([H:12])[O:7]1)([H:14])[H:15])([H:16])[H:17])([H:8])([H:9])[H:10]"
C        2.09696552       0.61840676       0.28556281
C        0.69537955       0.14086746       0.33267300
C       -0.18680042      -1.64882219       0.20703092
C       -1.05394968      -0.92537620      -0.76501377
C       -1.64520493       0.34784731      -0.18279243
C       -0.40732347       1.15980900       0.22123266
O        0.31229173      -0.72865948      -1.14148163
H        2.26480199       1.35252054      -0.51013831
H        2.81616031      -0.19578732       0.19627265
H        2.28567201       1.10358669       1.25095071
H       -0.51760565      -1.67438928       1.24335816
H        0.19902313      -2.62970617      -0.06047602
H       -1.62566895      -1.46285008      -1.51740826
H       -2.27069863       0.12023423       0.68181989
H       -2.24794481       0.86550757      -0.92888910
H       -0.17132550       1.93519964      -0.51693951
H       -0.54377220       1.62161153       1.20423823
