13
Frame=0 idx=008563 GeodesicLength=0.0 rxn_smarts="[N:1](=[C:2](/[O:3][C:4]([C:5]([C:6]#[N:7])([H:12])[H:13])([H:10])[H:11])[H:9])\[H:8]>>[N:1](=[C:2]([N:7]=[C:6]=[C:5]([H:12])[H:13])[H:9])[H:8].[O:3]=[C:4]([H:10])[H:11]"
N       -1.68264839       0.99628145      -1.42948283
C       -1.51812291       0.93018941      -0.20400366
O       -0.96707669      -0.84804345       0.53467903
C        0.16163678      -1.24345342       0.05086156
C        1.53031638      -0.22934128       0.60032290
C        0.80576501       0.95490627       0.54697264
N       -0.15593595       1.60789645       0.44216510
H       -0.86152771       1.08256063      -2.01213188
H       -2.27771587       0.97567623       0.56091123
H        0.28153185      -1.19181179      -1.04919869
H        0.54181812      -2.19823209       0.43929814
H        1.78292628      -0.52286049       1.61583991
H        2.35903304      -0.31376791      -0.09623347
13
Frame=1 idx=008563 GeodesicLength=0.13488638614582105 rxn_smarts="[N:1](=[C:2](/[O:3][C:4]([C:5]([C:6]#[N:7])([H:12])[H:13])([H:10])[H:11])[H:9])\[H:8]>>[N:1](=[C:2]([N:7]=[C:6]=[C:5]([H:12])[H:13])[H:9])[H:8].[O:3]=[C:4]([H:10])[H:11]"
N       -1.70445780       0.95802760      -1.42657160
C       -1.51637350       0.91371625      -0.20248998
O       -0.96612059      -0.85731930       0.53660874
C        0.15804706      -1.25406049       0.04086627
C        1.53862205      -0.22659926       0.61703584
C        0.83816203       0.96942736       0.52783675
N       -0.11754283       1.63205880       0.41721723
H       -0.90969174       1.13457418      -2.02512907
H       -2.27191891       0.96965581       0.56709482
H        0.26763925      -1.18930649      -1.05907502
H        0.53261851      -2.21786014       0.41164278
H        1.76147079      -0.50263003       1.64458879
H        2.38954569      -0.32968429      -0.04962555
13
Frame=2 idx=008563 GeodesicLength=0.269745694762235 rxn_smarts="[N:1](=[C:2](/[O:3][C:4]([C:5]([C:6]#[N:7])([H:12])[H:13])([H:10])[H:11])[H:9])\[H:8]>>[N:1](=[C:2]([N:7]=[C:6]=[C:5]([H:12])[H:13])[H:9])[H:8].[O:3]=[C:4]([H:10])[H:11]"
N       -1.72372905       0.92113099      -1.42329861
C       -1.51353132       0.89711496      -0.20118517
O       -0.96491642      -0.86747508       0.53732596
C        0.15492155      -1.26522708       0.03017801
C        1.54677043      -0.22364785       0.63475555
C        0.87209221       0.98330464       0.50798420
N       -0.07671484       1.65624067       0.38946477
H       -0.96563459       1.18714266      -2.03616692
H       -2.26515668       0.96331009       0.57274018
H        0.25443628      -1.18724839      -1.06937631
H        0.52364753      -2.23775342       0.38314352
H        1.73805131      -0.48073507       1.67375588
H        2.41976359      -0.34615713       0.00067893
13
Frame=3 idx=008563 GeodesicLength=0.40465723735016557 rxn_smarts="[N:1](=[C:2](/[O:3][C:4]([C:5]([C:6]#[N:7])([H:12])[H:13])([H:10])[H:11])[H:9])\[H:8]>>[N:1](=[C:2]([N:7]=[C:6]=[C:5]([H:12])[H:13])[H:9])[H:8].[O:3]=[C:4]([H:10])[H:11]"
N       -1.74038815       0.88594621      -1.41983142
C       -1.50959509       0.88041731      -0.20007975
O       -0.96356752      -0.87856796       0.53671418
C        0.15223997      -1.27699727       0.01872959
C        1.55468053      -0.22039569       0.65343843
C        0.90762652       0.99650201       0.48751847
N       -0.03324124       1.68042408       0.35863848
H       -1.02906710       1.23970281      -2.04438299
H       -2.25747428       0.95665649       0.57786433
H        0.24191506      -1.18573126      -1.08019428
H        0.51490622      -2.25794729       0.35375800
H        1.71257978      -0.45701333       1.70310094
H        2.44938530      -0.36299611       0.05472601
13
Frame=4 idx=008563 GeodesicLength=0.5392259565064448 rxn_smarts="[N:1](=[C:2](/[O:3][C:4]([C:5]([C:6]#[N:7])([H:12])[H:13])([H:10])[H:11])[H:9])\[H:8]>>[N:1](=[C:2]([N:7]=[C:6]=[C:5]([H:12])[H:13])[H:9])[H:8].[O:3]=[C:4]([H:10])[H:11]"
N       -1.75438538       0.85292022      -1.41630690
C       -1.50456347       0.86366884      -0.19914250
O       -0.96211137      -0.89058794       0.53464531
C        0.14997951      -1.28931809       0.00646399
C        1.56219992      -0.21675472       0.67299340
C        0.94475683       1.00894739       0.46656880
N        0.01302809       1.70448286       0.32448920
H       -1.09935162       1.29135645      -2.04880320
H       -2.24888002       0.94967617       0.58246455
H        0.22999029      -1.18471773      -1.09157270
H        0.50642561      -2.27835053       0.32344968
H        1.68498633      -0.43138552       1.73227472
H        2.47792529      -0.37993739       0.11247565
13
Frame=5 idx=008563 GeodesicLength=0.6737528327077458 rxn_smarts="[N:1](=[C:2](/[O:3][C:4]([C:5]([C:6]#[N:7])([H:12])[H:13])([H:10])[H:11])[H:9])\[H:8]>>[N:1](=[C:2]([N:7]=[C:6]=[C:5]([H:12])[H:13])[H:9])[H:8].[O:3]=[C:4]([H:10])[H:11]"
N       -1.76583544       0.82235642      -1.41272768
C       -1.49844173       0.84692461      -0.19823971
O       -0.96066733      -0.90364586       0.53097743
C        0.14812873      -1.30224244      -0.00679204
C        1.56921001      -0.21258637       0.69343670
C        0.98363111       1.02066572       0.44511114
N        0.06245072       1.72837978       0.28650483
H       -1.17608866       1.34143552      -2.04868334
H       -2.23933997       0.94237493       0.58680343
H        0.21870475      -1.18418935      -1.10371252
H        0.49821089      -2.29904692       0.29199162
H        1.65489887      -0.40353478       1.76113045
H        2.50513805      -0.39689126       0.17419969
13
Frame=6 idx=008563 GeodesicLength=0.808237203569911 rxn_smarts="[N:1](=[C:2](/[O:3][C:4]([C:5]([C:6]#[N:7])([H:12])[H:13])([H:10])[H:11])[H:9])\[H:8]>>[N:1](=[C:2]([N:7]=[C:6]=[C:5]([H:12])[H:13])[H:9])[H:8].[O:3]=[C:4]([H:10])[H:11]"
N       -1.77488487       0.79467115      -1.40907369
C       -1.49128101       0.83025398      -0.19717831
O       -0.95933579      -0.91781034       0.52561292
C        0.14660901      -1.31574661      -0.02118342
C        1.57551321      -0.20771177       0.71468040
C        1.02427163       1.03168723       0.42323151
N        0.11525470       1.75198316       0.24438454
H       -1.25806248       1.38879850      -2.04324961
H       -2.22886538       0.93470742       0.59115797
H        0.20789416      -1.18405750      -1.11679396
H        0.49025409      -2.32001889       0.25917880
H        1.62212710      -0.37322904       1.78933822
H        2.53050565      -0.41352728       0.23989463
13
Frame=7 idx=008563 GeodesicLength=0.9415996298090373 rxn_smarts="[N:1](=[C:2](/[O:3][C:4]([C:5]([C:6]#[N:7])([H:12])[H:13])([H:10])[H:11])[H:9])\[H:8]>>[N:1](=[C:2]([N:7]=[C:6]=[C:5]([H:12])[H:13])[H:9])[H:8].[O:3]=[C:4]([H:10])[H:11]"
N       -1.78174530       0.77024094      -1.40519534
C       -1.48317498       0.81367035      -0.19580817
O       -0.95808222      -0.93294232       0.51840664
C        0.14540694      -1.32959473      -0.03674464
C        1.58084669      -0.20204526       0.73652177
C        1.06655201       1.04182490       0.40091138
N        0.17145528       1.77477135       0.19782583
H       -1.34369303       1.43242349      -2.03155458
H       -2.21747722       0.92654397       0.59558802
H        0.19734721      -1.18405183      -1.13067364
H        0.48271847      -2.34087404       0.22496618
H        1.58651004      -0.34035447       1.81623741
H        2.55333610      -0.42961234       0.30951914
13
Frame=8 idx=008563 GeodesicLength=1.0751016362784478 rxn_smarts="[N:1](=[C:2](/[O:3][C:4]([C:5]([C:6]#[N:7])([H:12])[H:13])([H:10])[H:11])[H:9])\[H:8]>>[N:1](=[C:2]([N:7]=[C:6]=[C:5]([H:12])[H:13])[H:9])[H:8].[O:3]=[C:4]([H:10])[H:11]"
N       -1.78680835       0.74912580      -1.40134289
C       -1.47415806       0.79703621      -0.19417835
O       -0.95703769      -0.94939038       0.50912205
C        0.14460280      -1.34398360      -0.05354957
C        1.58525327      -0.19552073       0.75920315
C        1.11105171       1.05103756       0.37777578
N        0.23182610       1.79634120       0.14560397
H       -1.43363048       1.47332545      -2.01272258
H       -2.20508215       0.91762811       0.60025597
H        0.18709546      -1.18418581      -1.14537255
H        0.47581807      -2.36180472       0.18937528
H        1.54748278      -0.30437979       1.84179816
H        2.57358653      -0.44522929       0.38403159
13
Frame=9 idx=008563 GeodesicLength=1.2076161842747601 rxn_smarts="[N:1](=[C:2](/[O:3][C:4]([C:5]([C:6]#[N:7])([H:12])[H:13])([H:10])[H:11])[H:9])\[H:8]>>[N:1](=[C:2]([N:7]=[C:6]=[C:5]([H:12])[H:13])[H:9])[H:8].[O:3]=[C:4]([H:10])[H:11]"
N       -1.78979278       0.73140084      -1.39597604
C       -1.46410426       0.78073278      -0.19094546
O       -0.95628176      -0.96706835       0.49823009
C        0.14376983      -1.35877776      -0.07214808
C        1.58772163      -0.18740511       0.78211112
C        1.15676206       1.05961870       0.35458685
N        0.29602398       1.81670884       0.08862688
H       -1.52252185       1.50744648      -1.98774368
H       -2.19147833       0.90830621       0.60685119
H        0.17674820      -1.18427923      -1.16182773
H        0.46902608      -2.38285319       0.15104005
H        1.50457922      -0.26468610       1.86520373
H        2.58954799      -0.45914411       0.46199111
13
Frame=10 idx=008563 GeodesicLength=1.3399877079098002 rxn_smarts="[N:1](=[C:2](/[O:3][C:4]([C:5]([C:6]#[N:7])([H:12])[H:13])([H:10])[H:11])[H:9])\[H:8]>>[N:1](=[C:2]([N:7]=[C:6]=[C:5]([H:12])[H:13])[H:9])[H:8].[O:3]=[C:4]([H:10])[H:11]"
N       -1.79136287       0.71744587      -1.38988193
C       -1.45372097       0.76432170      -0.18660538
O       -0.95615026      -0.98607784       0.48556829
C        0.14286219      -1.37393573      -0.09196647
C        1.58880816      -0.17777154       0.80496585
C        1.20415807       1.06745098       0.33096224
N        0.36403751       1.83501623       0.02699607
H       -1.60950775       1.53687664      -1.95555472
H       -2.17781419       0.89750237       0.61432969
H        0.16584600      -1.18447155      -1.17900036
H        0.46271948      -2.40362894       0.11138573
H        1.45865432      -0.22149603       1.88549045
H        2.60147029      -0.47123216       0.54331055
13
Frame=11 idx=008563 GeodesicLength=1.4719060058897955 rxn_smarts="[N:1](=[C:2](/[O:3][C:4]([C:5]([C:6]#[N:7])([H:12])[H:13])([H:10])[H:11])[H:9])\[H:8]>>[N:1](=[C:2]([N:7]=[C:6]=[C:5]([H:12])[H:13])[H:9])[H:8].[O:3]=[C:4]([H:10])[H:11]"
N       -1.79150029       0.70702203      -1.38243652
C       -1.44294133       0.74773748      -0.18058600
O       -0.95649337      -1.00652276       0.47137543
C        0.14183940      -1.38951602      -0.11313778
C        1.58806179      -0.16632182       0.82761056
C        1.25296027       1.07448711       0.30700012
N        0.43600913       1.85072501      -0.03949274
H       -1.69288475       1.56145768      -1.91660693
H       -2.16390779       0.88513365       0.62346028
H        0.15423467      -1.18469671      -1.19712693
H        0.45692407      -2.42425031       0.06993798
H        1.40923326      -0.17432217       1.90215120
H        2.60846492      -0.48093317       0.62785133
13
Frame=12 idx=008563 GeodesicLength=1.6050662241100906 rxn_smarts="[N:1](=[C:2](/[O:3][C:4]([C:5]([C:6]#[N:7])([H:12])[H:13])([H:10])[H:11])[H:9])\[H:8]>>[N:1](=[C:2]([N:7]=[C:6]=[C:5]([H:12])[H:13])[H:9])[H:8].[O:3]=[C:4]([H:10])[H:11]"
N       -1.79011306       0.70019272      -1.37376935
C       -1.43178831       0.73071534      -0.17273214
O       -0.95748314      -1.02895111       0.45566685
C        0.14063747      -1.40594407      -0.13568877
C        1.58553229      -0.15274116       0.85019683
C        1.30357563       1.08091052       0.28265593
N        0.51268523       1.86334862      -0.11148197
H       -1.77291209       1.58265818      -1.87075259
H       -2.14989999       0.87060982       0.63450366
H        0.14180082      -1.18522798      -1.21636563
H        0.45162985      -2.44527549       0.02677557
H        1.35608220      -0.12257645       1.91495430
H        2.61025310      -0.48771895       0.71603731
13
Frame=13 idx=008563 GeodesicLength=1.736531931590506 rxn_smarts="[N:1](=[C:2](/[O:3][C:4]([C:5]([C:6]#[N:7])([H:12])[H:13])([H:10])[H:11])[H:9])\[H:8]>>[N:1](=[C:2]([N:7]=[C:6]=[C:5]([H:12])[H:13])[H:9])[H:8].[O:3]=[C:4]([H:10])[H:11]"
N       -1.78656288       0.69628527      -1.36248614
C       -1.42073769       0.71317234      -0.16215515
O       -0.95897102      -1.05241175       0.43935513
C        0.13893276      -1.42254173      -0.15933390
C        1.58068545      -0.13676241       0.87144363
C        1.35462455       1.08639630       0.25850405
N        0.59268948       1.87205313      -0.18623085
H       -1.84407305       1.59874093      -1.81958785
H       -2.13700139       0.85382997       0.64759836
H        0.12815718      -1.18586281      -1.23615392
H        0.44648768      -2.46570830      -0.01830151
H        1.30004973      -0.06665463       1.92208407
H        2.60571920      -0.49053630       0.80526407
13
Frame=14 idx=008563 GeodesicLength=1.8696689098370087 rxn_smarts="[N:1](=[C:2](/[O:3][C:4]([C:5]([C:6]#[N:7])([H:12])[H:13])([H:10])[H:11])[H:9])\[H:8]>>[N:1](=[C:2]([N:7]=[C:6]=[C:5]([H:12])[H:13])[H:9])[H:8].[O:3]=[C:4]([H:10])[H:11]"
N       -1.78105296       0.69569308      -1.34963412
C       -1.41002581       0.69470259      -0.14913326
O       -0.96115843      -1.07786822       0.42239910
C        0.13662738      -1.44007818      -0.18396496
C        1.57424660      -0.11818515       0.89190582
C        1.40693017       1.09158819       0.23469092
N        0.67711306       1.87701611      -0.26445466
H       -1.90849420       1.61248106      -1.76315486
H       -2.12565448       0.83378031       0.66250527
H        0.11297536      -1.18702149      -1.25666528
H        0.44140413      -2.48667269      -0.06462698
H        1.24166927      -0.00649784       1.92389498
H        2.59541991      -0.48893777       0.89623803
13
Frame=15 idx=008563 GeodesicLength=2.0025059641850342 rxn_smarts="[N:1](=[C:2](/[O:3][C:4]([C:5]([C:6]#[N:7])([H:12])[H:13])([H:10])[H:11])[H:9])\[H:8]>>[N:1](=[C:2]([N:7]=[C:6]=[C:5]([H:12])[H:13])[H:9])[H:8].[O:3]=[C:4]([H:10])[H:11]"
N       -1.77294433       0.69789970      -1.33414513
C       -1.39992450       0.67506347      -0.13306715
O       -0.96375864      -1.10463989       0.40525019
C        0.13372067      -1.45807208      -0.20944054
C        1.56583905      -0.09691542       0.91085472
C        1.45978607       1.09599380       0.21135368
N        0.76554413       1.87719564      -0.34482022
H       -1.96383248       1.62349606      -1.70213583
H       -2.11667844       0.81029910       0.67921148
H        0.09626072      -1.18846757      -1.27738712
H        0.43634303      -2.50741456      -0.11253154
H        1.18099431       0.05782932       1.91900670
H        2.57865041      -0.48226755       0.98785074
13
Frame=16 idx=008563 GeodesicLength=2.136215093236832 rxn_smarts="[N:1](=[C:2](/[O:3][C:4]([C:5]([C:6]#[N:7])([H:12])[H:13])([H:10])[H:11])[H:9])\[H:8]>>[N:1](=[C:2]([N:7]=[C:6]=[C:5]([H:12])[H:13])[H:9])[H:8].[O:3]=[C:4]([H:10])[H:11]"
N       -1.76202599       0.70289047      -1.31600305
C       -1.39074713       0.65388787      -0.11374532
O       -0.96675299      -1.13299763       0.38818601
C        0.13009269      -1.47671502      -0.23571235
C        1.55574293      -0.07276127       0.92829416
C        1.51333765       1.09988212       0.18874043
N        0.85858100       1.87236885      -0.42699306
H       -2.01019408       1.63283768      -1.63707460
H       -2.11079725       0.78271948       0.69764037
H        0.07775405      -1.19023466      -1.29833003
H        0.43107099      -2.52824003      -0.16199350
H        1.11847425       0.12619821       1.90706446
H        2.55546386      -0.46983606       1.07992648
