13
Frame=0 idx=003335 GeodesicLength=0.0 rxn_smarts="[C:1]1([H:7])([H:8])[C@@:2]2([H:9])[C@:3]1([H:10])[N:4]1[C:5]([H:11])([H:12])[C@@:6]21[H:13]>>[C:1]1([H:7])([H:8])[C@@:2]2([H:9])[C@:3]1([H:10])[N+:4]([C-:5]([H:11])[H:12])=[C:6]2[H:13]"
C       -1.08374068       0.88095840       0.22829156
C       -1.12514205      -0.54754808      -0.28748780
C       -0.24105173       0.53450994      -0.94020995
N        0.94804582      -0.26498974      -0.53543425
C        1.73675605       0.01984525       0.59261224
C        0.16322471      -1.23471665      -0.01333003
H       -0.64493684       1.10367993       1.19064979
H       -1.95814549       1.47506501      -0.01040872
H       -2.04109839      -1.00610361      -0.63281051
H       -0.31867140       0.99609916      -1.91574200
H        1.27392681       0.19211008       1.55260053
H        2.81103097       0.06926177       0.48107466
H        0.47980219      -2.21817142       0.29019442
13
Frame=1 idx=003335 GeodesicLength=0.032944290955602064 rxn_smarts="[C:1]1([H:7])([H:8])[C@@:2]2([H:9])[C@:3]1([H:10])[N:4]1[C:5]([H:11])([H:12])[C@@:6]21[H:13]>>[C:1]1([H:7])([H:8])[C@@:2]2([H:9])[C@:3]1([H:10])[N+:4]([C-:5]([H:11])[H:12])=[C:6]2[H:13]"
C       -1.08773352       0.88090815       0.22919560
C       -1.12319890      -0.54620669      -0.28735380
C       -0.24058453       0.53508441      -0.93729144
N        0.94983679      -0.26441716      -0.53955671
C        1.73300375       0.01103312       0.59165771
C        0.16619406      -1.23204329      -0.00417247
H       -0.65279509       1.10592586       1.19285788
H       -1.96171887       1.47395577      -0.01390324
H       -2.03517673      -1.00700355      -0.63998559
H       -0.31376217       0.99895776      -1.91191904
H        1.28638069       0.19242259       1.55738878
H        2.80550319       0.07137989       0.46918943
H        0.47405132      -2.21999685       0.29389289
13
Frame=2 idx=003335 GeodesicLength=0.06588930654286557 rxn_smarts="[C:1]1([H:7])([H:8])[C@@:2]2([H:9])[C@:3]1([H:10])[N:4]1[C:5]([H:11])([H:12])[C@@:6]21[H:13]>>[C:1]1([H:7])([H:8])[C@@:2]2([H:9])[C@:3]1([H:10])[N+:4]([C-:5]([H:11])[H:12])=[C:6]2[H:13]"
C       -1.09176788       0.88081553       0.23007618
C       -1.12125560      -0.54487618      -0.28726592
C       -0.24010316       0.53568374      -0.93436193
N        0.95159054      -0.26385687      -0.54363297
C        1.72927254       0.00243074       0.59060070
C        0.16915063      -1.22936480       0.00485273
H       -0.66078560       1.10806711       1.19507479
H       -1.96531172       1.47279816      -0.01743144
H       -2.02919582      -1.00790990      -0.64715592
H       -0.30885216       1.00188293      -1.90803883
H        1.29923577       0.19258141       1.56194325
H        2.79984474       0.07337199       0.45750968
H        0.46817774      -2.22162387       0.29782967
13
Frame=3 idx=003335 GeodesicLength=0.09883883059735526 rxn_smarts="[C:1]1([H:7])([H:8])[C@@:2]2([H:9])[C@:3]1([H:10])[N:4]1[C:5]([H:11])([H:12])[C@@:6]21[H:13]>>[C:1]1([H:7])([H:8])[C@@:2]2([H:9])[C@:3]1([H:10])[N+:4]([C-:5]([H:11])[H:12])=[C:6]2[H:13]"
C       -1.09585327       0.88067896       0.23093289
C       -1.11931230      -0.54355735      -0.28722847
C       -0.23961202       0.53631523      -0.93141999
N        0.95330573      -0.26329775      -0.54766607
C        1.72556251      -0.00594696       0.58944160
C        0.17209610      -1.22667517       0.01375046
H       -0.66892263       1.11010137       1.19730188
H       -1.96893422       1.47158786      -0.02099565
H       -2.02314889      -1.00882677      -0.65433986
H       -0.30394293       1.00488882      -1.90409753
H        1.31249465       0.19257555       1.56626310
H        2.79407506       0.07519664       0.44601721
H        0.46219222      -2.22304043       0.30204041
13
Frame=4 idx=003335 GeodesicLength=0.1317850123793639 rxn_smarts="[C:1]1([H:7])([H:8])[C@@:2]2([H:9])[C@:3]1([H:10])[N:4]1[C:5]([H:11])([H:12])[C@@:6]21[H:13]>>[C:1]1([H:7])([H:8])[C@@:2]2([H:9])[C@:3]1([H:10])[N+:4]([C-:5]([H:11])[H:12])=[C:6]2[H:13]"
C       -1.09999377       0.88050630       0.23175996
C       -1.11736770      -0.54224692      -0.28723401
C       -0.23911719       0.53698084      -0.92847128
N        0.95498574      -0.26272138      -0.55165499
C        1.72186947      -0.01408293       0.58819254
C        0.17503702      -1.22396754       0.02251904
H       -0.67721018       1.11204685       1.19953071
H       -1.97259296       1.47032885      -0.02460289
H       -2.01704303      -1.00975644      -0.66150472
H       -0.29905127       1.00795915      -1.90010903
H        1.32613916       0.19239063       1.57035416
H        2.78821603       0.07681020       0.43473454
H        0.45612868      -2.22424761       0.30648600
13
Frame=5 idx=003335 GeodesicLength=0.1647345377879857 rxn_smarts="[C:1]1([H:7])([H:8])[C@@:2]2([H:9])[C@:3]1([H:10])[N:4]1[C:5]([H:11])([H:12])[C@@:6]21[H:13]>>[C:1]1([H:7])([H:8])[C@@:2]2([H:9])[C@:3]1([H:10])[N+:4]([C-:5]([H:11])[H:12])=[C:6]2[H:13]"
C       -1.10419807       0.88029386       0.23255781
C       -1.11542444      -0.54094411      -0.28728658
C       -0.23862167       0.53768445      -0.92551002
N        0.95662759      -0.26212563      -0.55559950
C        1.71819512      -0.02197381       0.58685348
C        0.17797052      -1.22123585       0.03117094
H       -0.68566240       1.11389644       1.20176285
H       -1.97629674       1.46901530      -0.02825572
H       -2.01086912      -1.01069859      -0.66868178
H       -0.29417356       1.01110948      -1.89606106
H        1.34017634       0.19202063       1.57421155
H        2.78228630       0.07819111       0.42363375
H        0.44999011      -2.22523328       0.31120427
13
Frame=6 idx=003335 GeodesicLength=0.1976827486175276 rxn_smarts="[C:1]1([H:7])([H:8])[C@@:2]2([H:9])[C@:3]1([H:10])[N:4]1[C:5]([H:11])([H:12])[C@@:6]21[H:13]>>[C:1]1([H:7])([H:8])[C@@:2]2([H:9])[C@:3]1([H:10])[N+:4]([C-:5]([H:11])[H:12])=[C:6]2[H:13]"
C       -1.10846419       0.88005118       0.23332162
C       -1.11348123      -0.53964533      -0.28737315
C       -0.23812829       0.53842280      -0.92253967
N        0.95823371      -0.26150148      -0.55949421
C        1.71453241      -0.02961529       0.58544068
C        0.18089959      -1.21847859       0.03970960
H       -0.69427640       1.11567105       1.20398822
H       -1.98004026       1.46765936      -0.03196290
H       -2.00463242      -1.01164989      -0.67583983
H       -0.28932453       1.01431396      -1.89196704
H        1.35458489       0.19143651       1.57784494
H        2.77629666       0.07934751       0.41272801
H        0.44380006      -2.22601179       0.31614373
13
Frame=7 idx=003335 GeodesicLength=0.23063147708057863 rxn_smarts="[C:1]1([H:7])([H:8])[C@@:2]2([H:9])[C@:3]1([H:10])[N:4]1[C:5]([H:11])([H:12])[C@@:6]21[H:13]>>[C:1]1([H:7])([H:8])[C@@:2]2([H:9])[C@:3]1([H:10])[N+:4]([C-:5]([H:11])[H:12])=[C:6]2[H:13]"
C       -1.11280340       0.87977495       0.23405101
C       -1.11154042      -0.53835106      -0.28750213
C       -0.23764062       0.53920393      -0.91955815
N        0.95980223      -0.26084029      -0.56334258
C        1.71088397      -0.03699524       0.58395309
C        0.18382287      -1.21568753       0.04814334
H       -0.70306963       1.11736392       1.20621066
H       -1.98383884       1.46625021      -0.03572620
H       -1.99832755      -1.01261651      -0.68300237
H       -0.28449870       1.01759468      -1.88781970
H        1.36937486       0.19063523       1.58125260
H        2.77027155       0.08023477       0.40199398
H        0.43756367      -2.22656706       0.32134643
13
Frame=8 idx=003335 GeodesicLength=0.2635752230219206 rxn_smarts="[C:1]1([H:7])([H:8])[C@@:2]2([H:9])[C@:3]1([H:10])[N:4]1[C:5]([H:11])([H:12])[C@@:6]21[H:13]>>[C:1]1([H:7])([H:8])[C@@:2]2([H:9])[C@:3]1([H:10])[N+:4]([C-:5]([H:11])[H:12])=[C:6]2[H:13]"
C       -1.11721734       0.87947038       0.23474156
C       -1.10960072      -0.53705845      -0.28766729
C       -0.23716185       0.54002846      -0.91656778
N        0.96133599      -0.26013010      -0.56714137
C        1.70724565      -0.04410828       0.58240295
C        0.18674430      -1.21285853       0.05647268
H       -0.71204472       1.11898642       1.20842248
H       -1.98769407       1.46479246      -0.03955048
H       -1.99195939      -1.01359778      -0.69014530
H       -0.27970716       1.02093817      -1.88362730
H        1.38452874       0.18960687       1.58443645
H        2.76422665       0.08083301       0.39144281
H        0.43130391      -2.22690264       0.32678059
13
Frame=9 idx=003335 GeodesicLength=0.2965199840134668 rxn_smarts="[C:1]1([H:7])([H:8])[C@@:2]2([H:9])[C@:3]1([H:10])[N:4]1[C:5]([H:11])([H:12])[C@@:6]21[H:13]>>[C:1]1([H:7])([H:8])[C@@:2]2([H:9])[C@:3]1([H:10])[N+:4]([C-:5]([H:11])[H:12])=[C:6]2[H:13]"
C       -1.12171105       0.87913721       0.23539165
C       -1.10766369      -0.53576534      -0.28787221
C       -0.23669279       0.54089948      -0.91356584
N        0.96283344      -0.25937035      -0.57089045
C        1.70361787      -0.05095584       0.58079322
C        0.18966086      -1.20998788       0.06470650
H       -0.72121031       1.12053658       1.21062227
H       -1.99161307       1.46328101      -0.04344046
H       -1.98552312      -1.01459281      -0.69728417
H       -0.27494224       1.02435518      -1.87938347
H        1.40005386       0.18832185       1.58739849
H        2.75817373       0.08115398       0.38104776
H        0.42501651      -2.22701309       0.33247672
13
Frame=10 idx=003335 GeodesicLength=0.32947083024099544 rxn_smarts="[C:1]1([H:7])([H:8])[C@@:2]2([H:9])[C@:3]1([H:10])[N:4]1[C:5]([H:11])([H:12])[C@@:6]21[H:13]>>[C:1]1([H:7])([H:8])[C@@:2]2([H:9])[C@:3]1([H:10])[N+:4]([C-:5]([H:11])[H:12])=[C:6]2[H:13]"
C       -1.12629609       0.87877166       0.23600258
C       -1.10573142      -0.53447301      -0.28812357
C       -0.23623536       0.54182264      -0.91054672
N        0.96429245      -0.25856000      -0.57459057
C        1.70000439      -0.05753644       0.57912402
C        0.19257006      -1.20706984       0.07285835
H       -0.73058377       1.12200864       1.21281401
H       -1.99560848       1.46170843      -0.04740044
H       -1.97901056      -1.01560581      -0.70444480
H       -0.27019493       1.02786851      -1.87507473
H        1.41596262       0.18678549       1.59013098
H        2.75213131       0.08117068       0.37078281
H        0.41869978      -2.22689095       0.33846807
13
Frame=11 idx=003335 GeodesicLength=0.3624367964893584 rxn_smarts="[C:1]1([H:7])([H:8])[C@@:2]2([H:9])[C@:3]1([H:10])[N:4]1[C:5]([H:11])([H:12])[C@@:6]21[H:13]>>[C:1]1([H:7])([H:8])[C@@:2]2([H:9])[C@:3]1([H:10])[N+:4]([C-:5]([H:11])[H:12])=[C:6]2[H:13]"
C       -1.13097839       0.87836948       0.23657297
C       -1.10380459      -0.53318162      -0.28842439
C       -0.23578915       0.54280141      -0.90750466
N        0.96570945      -0.25769879      -0.57824053
C        1.69640516      -0.06385087       0.57739603
C        0.19546727      -1.20409884       0.08094217
H       -0.74017770       1.12339479       1.21499626
H       -1.99968402       1.46006744      -0.05143584
H       -1.97241027      -1.01663795      -0.71164971
H       -0.26545565       1.03149618      -1.87068719
H        1.43226819       0.18498210       1.59262902
H        2.74610643       0.08088524       0.36061750
H        0.41234329      -2.22652856       0.34478837
13
Frame=12 idx=003335 GeodesicLength=0.39540824492599475 rxn_smarts="[C:1]1([H:7])([H:8])[C@@:2]2([H:9])[C@:3]1([H:10])[N:4]1[C:5]([H:11])([H:12])[C@@:6]21[H:13]>>[C:1]1([H:7])([H:8])[C@@:2]2([H:9])[C@:3]1([H:10])[N+:4]([C-:5]([H:11])[H:12])=[C:6]2[H:13]"
C       -1.13575759       0.87793703       0.23709955
C       -1.10188369      -0.53188776      -0.28876558
C       -0.23535650       0.54383354      -0.90444098
N        0.96708824      -0.25677856      -0.58183550
C        1.69281791      -0.06989806       0.57562357
C        0.19835463      -1.20107070       0.08896061
H       -0.74999467       1.12470616       1.21716426
H       -2.00383870       1.45836581      -0.05554960
H       -1.96572833      -1.01768427      -0.71887909
H       -0.26073887       1.03521456      -1.86623109
H        1.44895404       0.18290558       1.59489112
H        2.74011369       0.08028784       0.35056737
H        0.40596984      -2.22593116       0.35139536
13
Frame=13 idx=003335 GeodesicLength=0.42838075799567077 rxn_smarts="[C:1]1([H:7])([H:8])[C@@:2]2([H:9])[C@:3]1([H:10])[N:4]1[C:5]([H:11])([H:12])[C@@:6]21[H:13]>>[C:1]1([H:7])([H:8])[C@@:2]2([H:9])[C@:3]1([H:10])[N+:4]([C-:5]([H:11])[H:12])=[C:6]2[H:13]"
C       -1.14063571       0.87748091       0.23757819
C       -1.09996744      -0.53058887      -0.28914094
C       -0.23494137       0.54492039      -0.90136053
N        0.96843213      -0.25578828      -0.58537291
C        1.68923941      -0.07567159       0.57381971
C        0.20123715      -1.19798231       0.09691571
H       -0.76003676       1.12595543       1.21931222
H       -2.00807503       1.45661044      -0.05974746
H       -1.95896920      -1.01874492      -0.72611073
H       -0.25605770       1.03901110      -1.86172044
H        1.46600976       0.18053462       1.59692469
H        2.73416412       0.07936713       0.34064167
H        0.39960066      -2.22510404       0.35826080
13
Frame=14 idx=003335 GeodesicLength=0.4613593270014052 rxn_smarts="[C:1]1([H:7])([H:8])[C@@:2]2([H:9])[C@:3]1([H:10])[N:4]1[C:5]([H:11])([H:12])[C@@:6]21[H:13]>>[C:1]1([H:7])([H:8])[C@@:2]2([H:9])[C@:3]1([H:10])[N+:4]([C-:5]([H:11])[H:12])=[C:6]2[H:13]"
C       -1.14561512       0.87699832       0.23800756
C       -1.09805655      -0.52928558      -0.28955094
C       -0.23454278       0.54606163      -0.89825548
N        0.96973651      -0.25473051      -0.58884827
C        1.68566787      -0.08117265       0.57198722
C        0.20410849      -1.19482810       0.10482299
H       -0.77031058       1.12714289       1.22143525
H       -2.01239186       1.45479498      -0.06403435
H       -1.95212281      -1.01982176      -0.73336139
H       -0.25140169       1.04289418      -1.85713936
H        1.48344574       0.17785177       1.59872203
H        2.72825811       0.07813821       0.33081609
H        0.39322467      -2.22404339       0.36539865
13
Frame=15 idx=003335 GeodesicLength=0.4943395706701907 rxn_smarts="[C:1]1([H:7])([H:8])[C@@:2]2([H:9])[C@:3]1([H:10])[N:4]1[C:5]([H:11])([H:12])[C@@:6]21[H:13]>>[C:1]1([H:7])([H:8])[C@@:2]2([H:9])[C@:3]1([H:10])[N+:4]([C-:5]([H:11])[H:12])=[C:6]2[H:13]"
C       -1.15070136       0.87649296       0.23838482
C       -1.09615032      -0.52797425      -0.28999350
C       -0.23416450       0.54726170      -0.89513034
N        0.97100700      -0.25359258      -0.59226131
C        1.68210428      -0.08639715       0.57013717
C        0.20697486      -1.19160307       0.11268117
H       -0.78082493       1.12827002       1.22353274
H       -2.01679807       1.45292226      -0.06841396
H       -1.94519412      -1.02091228      -0.74061622
H       -0.24678337       1.04685825      -1.85250054
H        1.50125414       0.17485043       1.60028226
H        2.72241305       0.07657034       0.32109978
H        0.38686335      -2.22274663       0.37279795
13
Frame=16 idx=003335 GeodesicLength=0.5273147965796078 rxn_smarts="[C:1]1([H:7])([H:8])[C@@:2]2([H:9])[C@:3]1([H:10])[N:4]1[C:5]([H:11])([H:12])[C@@:6]21[H:13]>>[C:1]1([H:7])([H:8])[C@@:2]2([H:9])[C@:3]1([H:10])[N+:4]([C-:5]([H:11])[H:12])=[C:6]2[H:13]"
C       -1.15589090       0.87596798       0.23870596
C       -1.09424624      -0.52665356      -0.29046315
C       -0.23380632       0.54851972      -0.89198427
N        0.97224489      -0.25236588      -0.59560617
C        1.67854287      -0.09134343       0.56828061
C        0.20983657      -1.18830428       0.12049146
H       -0.79157460       1.12934831       1.22559328
H       -2.02129017       1.45098950      -0.07288950
H       -1.93818515      -1.02201962      -0.74785155
H       -0.24220474       1.05089531      -1.84780407
H        1.51941886       0.17151938       1.60159860
H        2.71663087       0.07466487       0.31149962
H        0.38052406      -2.22121829       0.38042918
