15
Frame=0 idx=011950 GeodesicLength=0.0 rxn_smarts="[C:1]([C@@:2]([O:3][H:12])([C:4]([O:5][C:6](=[O:7])[H:15])([H:13])[H:14])[H:11])([H:8])([H:9])[H:10]>>[C:1]1([H:8])([H:10])[C@:2]([O:3][H:12])([H:11])[C:4]([H:13])([H:14])[O:5][C@@:6]1([O:7][H:9])[H:15]"
C       -0.11925483       1.06171553      -0.45617995
C       -0.72625816       0.24795661       0.66897502
O       -2.08728880       0.01650988       0.35160258
C        0.08139477      -1.06392502       0.74125727
O        0.46243895      -1.34114713      -0.60019455
C        1.15099198      -0.30894120      -1.11654027
O        2.26653299       0.12423337      -0.57729011
H       -0.77886359       1.11927838      -1.31806550
H        1.26568711       0.91987249      -0.47470178
H        0.13931143       2.08797574      -0.16301331
H       -0.64417207       0.77126428       1.62845272
H       -2.49824271      -0.47281127       1.06680125
H       -0.51600534      -1.90736525       1.08340754
H        0.96567105      -0.95211145       1.37177583
H        1.03805721      -0.30250490      -2.20628669
15
Frame=1 idx=011950 GeodesicLength=0.15092178298299097 rxn_smarts="[C:1]([C@@:2]([O:3][H:12])([C:4]([O:5][C:6](=[O:7])[H:15])([H:13])[H:14])[H:11])([H:8])([H:9])[H:10]>>[C:1]1([H:8])([H:10])[C@:2]([O:3][H:12])([H:11])[C:4]([H:13])([H:14])[O:5][C@@:6]1([O:7][H:9])[H:15]"
C       -0.11118746       1.08363011      -0.42812763
C       -0.73523646       0.24838148       0.67071457
O       -2.08589961       0.02062252       0.31106621
C        0.09531142      -1.04543689       0.75905230
O        0.45654354      -1.35789216      -0.57980381
C        1.12874135      -0.33185592      -1.13204507
O        2.27098995       0.08941097      -0.64608361
H       -0.76171152       1.18316189      -1.29353401
H        1.29011734       0.93054237      -0.46418760
H        0.14828746       2.10004798      -0.10491788
H       -0.69220846       0.76087559       1.63885650
H       -2.50750887      -0.52433850       0.97785496
H       -0.47745281      -1.88853164       1.14152237
H        0.99197548      -0.91443814       1.36842545
H        0.98923866      -0.35417967      -2.21879276
15
Frame=2 idx=011950 GeodesicLength=0.30095767513633753 rxn_smarts="[C:1]([C@@:2]([O:3][H:12])([C:4]([O:5][C:6](=[O:7])[H:15])([H:13])[H:14])[H:11])([H:8])([H:9])[H:10]>>[C:1]1([H:8])([H:10])[C@:2]([O:3][H:12])([H:11])[C:4]([H:13])([H:14])[O:5][C@@:6]1([O:7][H:9])[H:15]"
C       -0.10286163       1.10507337      -0.39927382
C       -0.74380443       0.24857631       0.67219250
O       -2.08285035       0.02526991       0.27070710
C        0.10907950      -1.02670059       0.77652352
O        0.45211151      -1.37519509      -0.55786819
C        1.10478193      -0.35551711      -1.14693417
O        2.26995729       0.05678622      -0.71540810
H       -0.74310428       1.24542238      -1.26709785
H        1.31529831       0.94167806      -0.45216063
H        0.15614145       2.11093565      -0.04599765
H       -0.73960128       0.74907725       1.64781539
H       -2.51094009      -0.57410688       0.88407524
H       -0.43916404      -1.86704016       1.19842952
H        1.01760181      -0.87680708       1.36397448
H        0.93735430      -0.40745224      -2.22897734
15
Frame=3 idx=011950 GeodesicLength=0.45043469516638124 rxn_smarts="[C:1]([C@@:2]([O:3][H:12])([C:4]([O:5][C:6](=[O:7])[H:15])([H:13])[H:14])[H:11])([H:8])([H:9])[H:10]>>[C:1]1([H:8])([H:10])[C@:2]([O:3][H:12])([H:11])[C:4]([H:13])([H:14])[O:5][C@@:6]1([O:7][H:9])[H:15]"
C       -0.09439353       1.12598872      -0.36973070
C       -0.75189291       0.24849913       0.67340160
O       -2.07817764       0.03049793       0.23078511
C        0.12263617      -1.00788783       0.79353046
O        0.44925490      -1.39300403      -0.53457899
C        1.07917885      -0.38003778      -1.16122100
O        2.26329017       0.02678861      -0.78494705
H       -0.72326228       1.30567788      -1.23897645
H        1.34125861       0.95343099      -0.43850648
H        0.16243319       2.12072151       0.01344966
H       -0.78607237       0.73586756       1.65532739
H       -2.50825908      -0.62128006       0.78591863
H       -0.40131147      -1.84316866       1.25388276
H        1.04241867      -0.83964387       1.35840995
H        0.88289872      -0.46245011      -2.23674490
15
Frame=4 idx=011950 GeodesicLength=0.6004240875137814 rxn_smarts="[C:1]([C@@:2]([O:3][H:12])([C:4]([O:5][C:6](=[O:7])[H:15])([H:13])[H:14])[H:11])([H:8])([H:9])[H:10]>>[C:1]1([H:8])([H:10])[C@:2]([O:3][H:12])([H:11])[C:4]([H:13])([H:14])[O:5][C@@:6]1([O:7][H:9])[H:15]"
C       -0.08595446       1.14652481      -0.33977994
C       -0.75961975       0.24809952       0.67436942
O       -2.07235398       0.03628241       0.19166789
C        0.13592054      -0.98946515       0.80998637
O        0.44821644      -1.41147077      -0.51017447
C        1.05236763      -0.40555108      -1.17505284
O        2.25141153      -0.00011317      -0.85451108
H       -0.70256709       1.36387520      -1.20962547
H        1.36829150       0.96614527      -0.42326371
H        0.16660785       2.12987567       0.07284616
H       -0.83157706       0.72126057       1.66147341
H       -2.49994422      -0.66475397       0.68475296
H       -0.36416393      -1.81772257       1.30775000
H        1.06644485      -0.80372234       1.35179162
H        0.82692014      -0.51926440      -2.24223032
15
Frame=5 idx=011950 GeodesicLength=0.750039724527622 rxn_smarts="[C:1]([C@@:2]([O:3][H:12])([C:4]([O:5][C:6](=[O:7])[H:15])([H:13])[H:14])[H:11])([H:8])([H:9])[H:10]>>[C:1]1([H:8])([H:10])[C@:2]([O:3][H:12])([H:11])[C:4]([H:13])([H:14])[O:5][C@@:6]1([O:7][H:9])[H:15]"
C       -0.07758307       1.16640126      -0.30938799
C       -0.76665198       0.24735940       0.67507837
O       -2.06509148       0.04285039       0.15360564
C        0.14890597      -0.97133371       0.82567786
O        0.44866784      -1.43025046      -0.48484105
C        1.02404146      -0.43217393      -1.18828881
O        2.23369791      -0.02347776      -0.92351174
H       -0.68121415       1.41929250      -1.17913006
H        1.39630580       0.97985811      -0.40613119
H        0.16846320       2.13818968       0.13202523
H       -0.87535781       0.70528799       1.66622273
H       -2.48566601      -0.70419093       0.58021025
H       -0.32770613      -1.79054294       1.35965132
H        1.08961173      -0.76906778       1.34401984
H        0.76957674      -0.57820181      -2.24520040
15
Frame=6 idx=011950 GeodesicLength=0.899857508718345 rxn_smarts="[C:1]([C@@:2]([O:3][H:12])([C:4]([O:5][C:6](=[O:7])[H:15])([H:13])[H:14])[H:11])([H:8])([H:9])[H:10]>>[C:1]1([H:8])([H:10])[C@:2]([O:3][H:12])([H:11])[C:4]([H:13])([H:14])[O:5][C@@:6]1([O:7][H:9])[H:15]"
C       -0.06943040       1.18568775      -0.27887606
C       -0.77313940       0.24617790       0.67537090
O       -2.05670553       0.04973098       0.11648883
C        0.16151674      -0.95389512       0.84033647
O        0.45081430      -1.44940691      -0.45905276
C        0.99473075      -0.46006223      -1.20111936
O        2.21052453      -0.04280913      -0.99158575
H       -0.65946022       1.47193232      -1.14804960
H        1.42554051       0.99485110      -0.38691554
H        0.16738300       2.14598288       0.19047216
H       -0.91757514       0.68789812       1.66952402
H       -2.46622386      -0.73787523       0.47508520
H       -0.29208733      -1.76246679       1.40913924
H        1.11179373      -0.73630635       1.33513323
H        0.71231831      -0.63943928      -2.24595099
15
Frame=7 idx=011950 GeodesicLength=1.0497056602764239 rxn_smarts="[C:1]([C@@:2]([O:3][H:12])([C:4]([O:5][C:6](=[O:7])[H:15])([H:13])[H:14])[H:11])([H:8])([H:9])[H:10]>>[C:1]1([H:8])([H:10])[C@:2]([O:3][H:12])([H:11])[C:4]([H:13])([H:14])[O:5][C@@:6]1([O:7][H:9])[H:15]"
C       -0.06149321       1.20432738      -0.24824295
C       -0.77901498       0.24455936       0.67517865
O       -2.04713846       0.05696176       0.08025279
C        0.17373444      -0.93714931       0.85379835
O        0.45447428      -1.46877856      -0.43308842
C        0.96442011      -0.48943364      -1.21363720
O        2.18160615      -0.05779436      -1.05847283
H       -0.63735024       1.52170296      -1.11653484
H        1.45608872       1.01119578      -0.36542729
H        0.16321368       2.15323119       0.24812880
H       -0.95811417       0.66911523       1.67137664
H       -2.44196623      -0.76545545       0.37015025
H       -0.25720409      -1.73360385       1.45606422
H        1.13294307      -0.70545707       1.32508277
H        0.65580094      -0.70342142      -2.24462896
15
Frame=8 idx=011950 GeodesicLength=1.1997202069152204 rxn_smarts="[C:1]([C@@:2]([O:3][H:12])([C:4]([O:5][C:6](=[O:7])[H:15])([H:13])[H:14])[H:11])([H:8])([H:9])[H:10]>>[C:1]1([H:8])([H:10])[C@:2]([O:3][H:12])([H:11])[C:4]([H:13])([H:14])[O:5][C@@:6]1([O:7][H:9])[H:15]"
C       -0.05376863       1.22238918      -0.21749611
C       -0.78428187       0.24253541       0.67446964
O       -2.03655105       0.06464684       0.04488950
C        0.18558330      -0.92117808       0.86596410
O        0.45942632      -1.48831523      -0.40718094
C        0.93316676      -0.52053359      -1.22594366
O        2.14678013      -0.06818809      -1.12393716
H       -0.61499581       1.56874104      -1.08472948
H        1.48818280       1.02906169      -0.34164951
H        0.15591086       2.16006671       0.30489855
H       -0.99693049       0.64898790       1.67181438
H       -2.41357960      -0.78680442       0.26611383
H       -0.22292879      -1.70418408       1.50040955
H        1.15317967      -0.67660191       1.31382888
H        0.60080641      -0.77062336      -2.24145157
15
Frame=9 idx=011950 GeodesicLength=1.3496896375420833 rxn_smarts="[C:1]([C@@:2]([O:3][H:12])([C:4]([O:5][C:6](=[O:7])[H:15])([H:13])[H:14])[H:11])([H:8])([H:9])[H:10]>>[C:1]1([H:8])([H:10])[C@:2]([O:3][H:12])([H:11])[C:4]([H:13])([H:14])[O:5][C@@:6]1([O:7][H:9])[H:15]"
C       -0.04626496       1.23986407      -0.18660341
C       -0.78887048       0.24012376       0.67324961
O       -2.02491107       0.07296330       0.01040771
C        0.19709693      -0.90597241       0.87681482
O        0.46533290      -1.50787357      -0.38149448
C        0.90091295      -0.55356766      -1.23809078
O        2.10559583      -0.07387406      -1.18769341
H       -0.59247794       1.61313326      -1.05273107
H        1.52189785       1.04853555      -0.31572890
H        0.14552507       2.16644036       0.36076011
H       -1.03388928       0.62748432       1.67092585
H       -2.38150723      -0.80190393       0.16313817
H       -0.18904599      -1.67424272       1.54228914
H        1.17255432      -0.64972046       1.30137940
H        0.54805110      -0.84138981      -2.23662277
15
Frame=10 idx=011950 GeodesicLength=1.4998135789580938 rxn_smarts="[C:1]([C@@:2]([O:3][H:12])([C:4]([O:5][C:6](=[O:7])[H:15])([H:13])[H:14])[H:11])([H:8])([H:9])[H:10]>>[C:1]1([H:8])([H:10])[C@:2]([O:3][H:12])([H:11])[C:4]([H:13])([H:14])[O:5][C@@:6]1([O:7][H:9])[H:15]"
C       -0.03900591       1.25688268      -0.15550992
C       -0.79287448       0.23740503       0.67147025
O       -2.01241049       0.08192629      -0.02327108
C        0.20824951      -0.89156869       0.88616450
O        0.47187308      -1.52741700      -0.35638090
C        0.86788000      -0.58876108      -1.25018328
O        2.05790869      -0.07489949      -1.24941780
H       -0.56986907       1.65518368      -1.02052000
H        1.55737985       1.06981944      -0.28787675
H        0.13206955       2.17243414       0.41571234
H       -1.06913664       0.60469021       1.66871766
H       -2.34655094      -0.81067340       0.06249771
H       -0.15549109      -1.64393731       1.58154838
H        1.19112446      -0.62482301       1.28754329
H        0.49885347      -0.91626147      -2.23049439
15
Frame=11 idx=011950 GeodesicLength=1.6500715505495858 rxn_smarts="[C:1]([C@@:2]([O:3][H:12])([C:4]([O:5][C:6](=[O:7])[H:15])([H:13])[H:14])[H:11])([H:8])([H:9])[H:10]>>[C:1]1([H:8])([H:10])[C@:2]([O:3][H:12])([H:11])[C:4]([H:13])([H:14])[O:5][C@@:6]1([O:7][H:9])[H:15]"
C       -0.03203338       1.27354575      -0.12408753
C       -0.79633037       0.23445685       0.66914163
O       -1.99911581       0.09169034      -0.05618279
C        0.21905046      -0.87791798       0.89395353
O        0.47861362      -1.54686547      -0.33204909
C        0.83416806      -0.62627694      -1.26224821
O        2.00335694      -0.07158095      -1.30882782
H       -0.54726150       1.69522747      -0.98796621
H        1.59463085       1.09303422      -0.25856027
H        0.11570785       2.17800191       0.46988072
H       -1.10274075       0.58062421       1.66525781
H       -2.30929453      -0.81328180      -0.03536761
H       -0.12209865      -1.61323669       1.61823039
H        1.20896261      -0.60180819       1.27217108
H        0.45438460      -0.99561273      -2.22334563
15
Frame=12 idx=011950 GeodesicLength=1.8005477484669286 rxn_smarts="[C:1]([C@@:2]([O:3][H:12])([C:4]([O:5][C:6](=[O:7])[H:15])([H:13])[H:14])[H:11])([H:8])([H:9])[H:10]>>[C:1]1([H:8])([H:10])[C@:2]([O:3][H:12])([H:11])[C:4]([H:13])([H:14])[O:5][C@@:6]1([O:7][H:9])[H:15]"
C       -0.02541852       1.29001314      -0.09216616
C       -0.79930513       0.23137970       0.66627348
O       -1.98510184       0.10240542      -0.08842325
C        0.22951247      -0.86495969       0.90013205
O        0.48508897      -1.56619852      -0.30869449
C        0.79992089      -0.66623589      -1.27429079
O        1.94162773      -0.06452584      -1.36567827
H       -0.52478319       1.73372485      -0.95484372
H        1.63359799       1.11828727      -0.22837830
H        0.09665536       2.18312928       0.52348248
H       -1.13483129       0.55532042       1.66060255
H       -2.27037255      -0.80997148      -0.13002474
H       -0.08869189      -1.58209084       1.65237872
H        1.22616045      -0.58054288       1.25507158
H        0.41594053      -1.07973493      -2.21544112
15
Frame=13 idx=011950 GeodesicLength=1.9512189347857785 rxn_smarts="[C:1]([C@@:2]([O:3][H:12])([C:4]([O:5][C:6](=[O:7])[H:15])([H:13])[H:14])[H:11])([H:8])([H:9])[H:10]>>[C:1]1([H:8])([H:10])[C@:2]([O:3][H:12])([H:11])[C:4]([H:13])([H:14])[O:5][C@@:6]1([O:7][H:9])[H:15]"
C       -0.01923492       1.30641797      -0.05956436
C       -0.80185760       0.22824863       0.66285789
O       -1.97035356       0.11423023      -0.12011086
C        0.23963326      -0.85259869       0.90467683
O        0.49080320      -1.58538617      -0.28639530
C        0.76525272      -0.70866457      -1.28622915
O        1.87237650      -0.05454930      -1.41983209
H       -0.50254312       1.77116346      -0.92084049
H        1.67417560       1.14560811      -0.19805756
H        0.07518871       2.18771233       0.57677433
H       -1.16555956       0.52872721       1.65473091
H       -2.23033514      -0.80101749      -0.22123142
H       -0.05510145      -1.55037163       1.68406377
H        1.24276741      -0.56085302       1.23598648
H        0.38478794      -1.16866706      -2.20682898
15
Frame=14 idx=011950 GeodesicLength=2.1022652793123138 rxn_smarts="[C:1]([C@@:2]([O:3][H:12])([C:4]([O:5][C:6](=[O:7])[H:15])([H:13])[H:14])[H:11])([H:8])([H:9])[H:10]>>[C:1]1([H:8])([H:10])[C@:2]([O:3][H:12])([H:11])[C:4]([H:13])([H:14])[O:5][C@@:6]1([O:7][H:9])[H:15]"
C       -0.01354229       1.32289988      -0.02603789
C       -0.80408327       0.22519517       0.65888560
O       -1.95489011       0.12735853      -0.15146177
C        0.24941643      -0.84071746       0.90757512
O        0.49531374      -1.60445298      -0.26521839
C        0.73029311      -0.75360262      -1.29800746
O        1.79520237      -0.04266388      -1.47136405
H       -0.48061955       1.80805666      -0.88555797
H        1.71626231       1.17493582      -0.16820713
H        0.05154986       2.19164706       0.63009772
H       -1.19517044       0.50089087       1.64760184
H       -2.18970301      -0.78675739      -0.30869824
H       -0.02118221      -1.51787783       1.71332849
H        1.25887049      -0.54257291       1.21465250
H        0.36228259      -1.26233893      -2.19758837
15
Frame=15 idx=011950 GeodesicLength=2.253893434372505 rxn_smarts="[C:1]([C@@:2]([O:3][H:12])([C:4]([O:5][C:6](=[O:7])[H:15])([H:13])[H:14])[H:11])([H:8])([H:9])[H:10]>>[C:1]1([H:8])([H:10])[C@:2]([O:3][H:12])([H:11])[C:4]([H:13])([H:14])[O:5][C@@:6]1([O:7][H:9])[H:15]"
C       -0.00836780       1.33957461       0.00863014
C       -0.80605037       0.22234573       0.65433463
O       -1.93861885       0.14201070      -0.18269835
C        0.25884278      -0.82920346       0.90882506
O        0.49819814      -1.62346113      -0.24513730
C        0.69508148      -0.80106144      -1.30953417
O        1.70948136      -0.02992383      -1.52048790
H       -0.45901405       1.84489923      -0.84859348
H        1.75978302       1.20613638      -0.13933188
H        0.02599113       2.19481334       0.68377232
H       -1.22388463       0.47182634       1.63910952
H       -2.14888869      -0.76755483      -0.39230755
H        0.01319471      -1.48439839       1.74021839
H        1.27449853      -0.52554944       1.19075410
H        0.34975325      -1.36045380      -2.18755353
15
Frame=16 idx=011950 GeodesicLength=2.406454811978796 rxn_smarts="[C:1]([C@@:2]([O:3][H:12])([C:4]([O:5][C:6](=[O:7])[H:15])([H:13])[H:14])[H:11])([H:8])([H:9])[H:10]>>[C:1]1([H:8])([H:10])[C@:2]([O:3][H:12])([H:11])[C:4]([H:13])([H:14])[O:5][C@@:6]1([O:7][H:9])[H:15]"
C       -0.00369410       1.35650287       0.04463754
C       -0.80781255       0.21984738       0.64919279
O       -1.92140608       0.15844832      -0.21403387
C        0.26788339      -0.81795875       0.90843504
O        0.49906591      -1.64250831      -0.22606729
C        0.65956330      -0.85107882      -1.32071076
O        1.61423831      -0.01738469      -1.56754623
H       -0.43764394       1.88208042      -0.80957784
H        1.80473881       1.23898916      -0.11173053
H       -0.00126486       2.19708069       0.73805253
H       -1.25189579       0.44159532       1.62912054
H       -2.10817950      -0.74376810      -0.47207474
H        0.04814477      -1.44970549       1.76476114
H        1.28966102      -0.50968025       1.16395360
H        0.34860130      -1.46245976      -2.17641192
