18
Frame=0 idx=001000 GeodesicLength=0.0 rxn_smarts="[C:1]([C@@:2]1([H:10])[C:3]([H:11])([H:12])[C:4]1([C:5]([H:13])([H:14])[H:15])[C:6]([H:16])([H:17])[H:18])([H:7])([H:8])[H:9]>>[C:1](=[C:2]([C:3]([C:4](=[C:5]([H:13])[H:15])[C:6]([H:16])([H:17])[H:18])([H:11])[H:12])[H:10])([H:7])[H:9].[H:8][H:14]"
C        2.00700533       0.11170409      -0.51114822
C        1.02172871      -0.82951819      -0.34267187
C        0.24392984      -1.02379561       0.91481177
C       -0.76008956      -0.05848864       0.38048920
C       -0.63851294       1.29638473       0.60215523
C       -1.89377334      -0.60555366      -0.44764629
H        2.53466333       0.14706056      -1.45737017
H        1.26977918       1.45577651      -0.62423490
H        2.56950599       0.46380257       0.34903160
H        0.66608623      -1.36755572      -1.21392912
H        0.76400439      -0.66991310       1.80449921
H       -0.13433441      -2.03299078       1.07073596
H       -1.43543108       1.94907416       0.26094071
H        0.48949966       1.77251630      -0.30194725
H       -0.09732200       1.64863764       1.47488320
H       -1.61212432      -1.50047404      -1.00500605
H       -2.26949786       0.13002391      -1.16075045
H       -2.72511718      -0.88669076       0.20715751
18
Frame=1 idx=001000 GeodesicLength=0.09519910656945212 rxn_smarts="[C:1]([C@@:2]1([H:10])[C:3]([H:11])([H:12])[C:4]1([C:5]([H:13])([H:14])[H:15])[C:6]([H:16])([H:17])[H:18])([H:7])([H:8])[H:9]>>[C:1](=[C:2]([C:3]([C:4](=[C:5]([H:13])[H:15])[C:6]([H:16])([H:17])[H:18])([H:11])[H:12])[H:10])([H:7])[H:9].[H:8][H:14]"
C        2.01401200       0.10235112      -0.52083837
C        1.01409978      -0.82507184      -0.34656154
C        0.24302862      -1.01339408       0.91613210
C       -0.75899628      -0.05425242       0.36577294
C       -0.65138067       1.30326904       0.59327458
C       -1.89692358      -0.61212577      -0.44821205
H        2.51017479       0.15556399      -1.48365611
H        1.31863862       1.48482311      -0.58619784
H        2.62560747       0.40406510       0.32531529
H        0.66637019      -1.38325375      -1.20833306
H        0.76312104      -0.64877242       1.80114213
H       -0.13256190      -2.02186947       1.08193104
H       -1.44737331       1.94977230       0.23723850
H        0.51012430       1.79590545      -0.26985013
H       -0.15806684       1.65142468       1.49581476
H       -1.61316407      -1.50348703      -1.01033013
H       -2.28881623       0.11847502      -1.15770423
H       -2.71789393      -0.90342303       0.21506212
18
Frame=2 idx=001000 GeodesicLength=0.18922632615517448 rxn_smarts="[C:1]([C@@:2]1([H:10])[C:3]([H:11])([H:12])[C:4]1([C:5]([H:13])([H:14])[H:15])[C:6]([H:16])([H:17])[H:18])([H:7])([H:8])[H:9]>>[C:1](=[C:2]([C:3]([C:4](=[C:5]([H:13])[H:15])[C:6]([H:16])([H:17])[H:18])([H:11])[H:12])[H:10])([H:7])[H:9].[H:8][H:14]"
C        2.02049478       0.09345375      -0.53056232
C        1.00668232      -0.82065173      -0.35039951
C        0.24229908      -1.00257100       0.91753240
C       -0.75782354      -0.04990352       0.35114461
C       -0.66384444       1.31028871       0.58374396
C       -1.89982564      -0.61872889      -0.44849271
H        2.48335607       0.16801780      -1.50895556
H        1.36911708       1.51211482      -0.54381789
H        2.68013688       0.34128434       0.29736040
H        0.66689355      -1.39902897      -1.20202355
H        0.76253172      -0.62697726       1.79754628
H       -0.13054150      -2.01018906       1.09351358
H       -1.45774357       1.95071980       0.21126134
H        0.53118190       1.81860764      -0.23568265
H       -0.22081212       1.65347923       1.51418134
H       -1.61411451      -1.50666579      -1.01516128
H       -2.30774209       0.10652218      -1.15442030
H       -2.71024597      -0.91977205       0.22323188
18
Frame=3 idx=001000 GeodesicLength=0.28190160120360186 rxn_smarts="[C:1]([C@@:2]1([H:10])[C:3]([H:11])([H:12])[C:4]1([C:5]([H:13])([H:14])[H:15])[C:6]([H:16])([H:17])[H:18])([H:7])([H:8])[H:9]>>[C:1](=[C:2]([C:3]([C:4](=[C:5]([H:13])[H:15])[C:6]([H:16])([H:17])[H:18])([H:11])[H:12])[H:10])([H:7])[H:9].[H:8][H:14]"
C        2.02643730       0.08507181      -0.54016052
C        0.99953139      -0.81635164      -0.35408276
C        0.24173163      -0.99147421       0.91905607
C       -0.75652791      -0.04551252       0.33671268
C       -0.67570187       1.31738420       0.57367102
C       -1.90242163      -0.62528338      -0.44849987
H        2.45451415       0.18434773      -1.53264122
H        1.42068421       1.53704658      -0.49792480
H        2.73212388       0.27654141       0.26504294
H        0.66769469      -1.41478367      -1.19499901
H        0.76220010      -0.60476458       1.79379788
H       -0.12833866      -1.99808722       1.10542338
H       -1.46631270       1.95189019       0.18332369
H        0.55253884       1.84042748      -0.19954635
H       -0.28490763       1.65477093       1.52965738
H       -1.61493505      -1.50990126      -1.01957683
H       -2.32614203       0.09434844      -1.15084767
H       -2.70216869      -0.93567028       0.23159398
18
Frame=4 idx=001000 GeodesicLength=0.3731680583130968 rxn_smarts="[C:1]([C@@:2]1([H:10])[C:3]([H:11])([H:12])[C:4]1([C:5]([H:13])([H:14])[H:15])[C:6]([H:16])([H:17])[H:18])([H:7])([H:8])[H:9]>>[C:1](=[C:2]([C:3]([C:4](=[C:5]([H:13])[H:15])[C:6]([H:16])([H:17])[H:18])([H:11])[H:12])[H:10])([H:7])[H:9].[H:8][H:14]"
C        2.03185841       0.07723322      -0.54945360
C        0.99268509      -0.81225802      -0.35752006
C        0.24130149      -0.98027261       0.92073569
C       -0.75508106      -0.04115118       0.32258363
C       -0.68679287       1.32449085       0.56321711
C       -1.90467861      -0.63170346      -0.44824982
H        2.42425805       0.20420195      -1.55401920
H        1.47277580       1.55914583      -0.44970941
H        2.78068422       0.21108512       0.22840931
H        0.66878866      -1.43040022      -1.18730697
H        0.76206537      -0.58241512       1.78999378
H       -0.12603189      -1.98573438       1.11756708
H       -1.47297475       1.95323329       0.15391804
H        0.57395476       1.86122070      -0.16163107
H       -0.34961265       1.65529475       1.54200181
H       -1.61560461      -1.51306236      -1.02368423
H       -2.34391960       0.08216268      -1.14692265
H       -2.69367580      -0.95107103       0.24007055
18
Frame=5 idx=001000 GeodesicLength=0.4638412075204903 rxn_smarts="[C:1]([C@@:2]1([H:10])[C:3]([H:11])([H:12])[C:4]1([C:5]([H:13])([H:14])[H:15])[C:6]([H:16])([H:17])[H:18])([H:7])([H:8])[H:9]>>[C:1](=[C:2]([C:3]([C:4](=[C:5]([H:13])[H:15])[C:6]([H:16])([H:17])[H:18])([H:11])[H:12])[H:10])([H:7])[H:9].[H:8][H:14]"
C        2.03684017       0.06999092      -0.55834006
C        0.98612471      -0.80827335      -0.36076362
C        0.24102986      -0.96898401       0.92252358
C       -0.75351129      -0.03683046       0.30877013
C       -0.69719586       1.33159718       0.55251617
C       -1.90664897      -0.63796292      -0.44773242
H        2.39360377       0.22680282      -1.57244284
H        1.52511634       1.57850948      -0.40011718
H        2.82582272       0.14511499       0.18768968
H        0.67014750      -1.44564264      -1.17911738
H        0.76212644      -0.55999250       1.78612098
H       -0.12355702      -1.97318221       1.12983208
H       -1.47806216       1.95464986       0.12367495
H        0.59488934       1.88110155      -0.12244283
H       -0.41458811       1.65513273       1.55125448
H       -1.61615439      -1.51607056      -1.02755241
H       -2.36118526       0.07007540      -1.14255456
H       -2.68479779      -0.96603629       0.24868123
18
Frame=6 idx=001000 GeodesicLength=0.5534961187672646 rxn_smarts="[C:1]([C@@:2]1([H:10])[C:3]([H:11])([H:12])[C:4]1([C:5]([H:13])([H:14])[H:15])[C:6]([H:16])([H:17])[H:18])([H:7])([H:8])[H:9]>>[C:1](=[C:2]([C:3]([C:4](=[C:5]([H:13])[H:15])[C:6]([H:16])([H:17])[H:18])([H:11])[H:12])[H:10])([H:7])[H:9].[H:8][H:14]"
C        2.04146005       0.06322845      -0.56666708
C        0.97987511      -0.80453096      -0.36370894
C        0.24085965      -0.95779408       0.92446118
C       -0.75178214      -0.03263181       0.29535632
C       -0.70677900       1.33862447       0.54175370
C       -1.90828759      -0.64398924      -0.44699390
H        2.36281102       0.25173982      -1.58770280
H        1.57730793       1.59496254      -0.35039770
H        2.86677990       0.08009917       0.14326976
H        0.67177460      -1.46053808      -1.17041689
H        0.76227906      -0.53780319       1.78229679
H       -0.12105290      -1.96060287       1.14214602
H       -1.48143239       1.95609390       0.09294888
H        0.61527345       1.89993586      -0.08195698
H       -0.47918182       1.65427053       1.55733471
H       -1.61656071      -1.51881196      -1.03129047
H       -2.37779005       0.05825585      -1.13773391
H       -2.67555415      -0.98050839       0.25730132
18
Frame=7 idx=001000 GeodesicLength=0.6422454140711876 rxn_smarts="[C:1]([C@@:2]1([H:10])[C:3]([H:11])([H:12])[C:4]1([C:5]([H:13])([H:14])[H:15])[C:6]([H:16])([H:17])[H:18])([H:7])([H:8])[H:9]>>[C:1](=[C:2]([C:3]([C:4](=[C:5]([H:13])[H:15])[C:6]([H:16])([H:17])[H:18])([H:11])[H:12])[H:10])([H:7])[H:9].[H:8][H:14]"
C        2.04579435       0.05687876      -0.57439238
C        0.97391291      -0.80103179      -0.36635752
C        0.24076084      -0.94676158       0.92652910
C       -0.74991009      -0.02858657       0.28235291
C       -0.71558174       1.34554048       0.53102971
C       -1.90961662      -0.64976996      -0.44604921
H        2.33233515       0.27849551      -1.59965443
H        1.62927693       1.60869616      -0.30128737
H        2.90349295       0.01659542       0.09559705
H        0.67362364      -1.47503564      -1.16127498
H        0.76246069      -0.51595963       1.77854295
H       -0.11855742      -1.94806182       1.15443729
H       -1.48325601       1.95749217       0.06209494
H        0.63485955       1.91773483      -0.04042114
H       -0.54302480       1.65276476       1.56034037
H       -1.61684282      -1.52123891      -1.03495733
H       -2.39375525       0.04676699      -1.13242570
H       -2.66597227      -0.99451917       0.26589576
18
Frame=8 idx=001000 GeodesicLength=0.7301969965741373 rxn_smarts="[C:1]([C@@:2]1([H:10])[C:3]([H:11])([H:12])[C:4]1([C:5]([H:13])([H:14])[H:15])[C:6]([H:16])([H:17])[H:18])([H:7])([H:8])[H:9]>>[C:1](=[C:2]([C:3]([C:4](=[C:5]([H:13])[H:15])[C:6]([H:16])([H:17])[H:18])([H:11])[H:12])[H:10])([H:7])[H:9].[H:8][H:14]"
C        2.04995092       0.05084989      -0.58144089
C        0.96820812      -0.79774771      -0.36870212
C        0.24070142      -0.93592169       0.92872321
C       -0.74792234      -0.02471152       0.26976777
C       -0.72367998       1.35232131       0.52044482
C       -1.91066890      -0.65530771      -0.44492550
H        2.30259682       0.30659340      -1.60820812
H        1.68109626       1.61992539      -0.25321826
H        2.93594245      -0.04498016       0.04495722
H        0.67565630      -1.48906527      -1.15175233
H        0.76260971      -0.49453272       1.77489838
H       -0.11610025      -1.93561254       1.16665701
H       -1.48376994       1.95877890       0.03147200
H        0.65336556       1.93451813       0.00177848
H       -0.60575245       1.65069580       1.56037802
H       -1.61701877      -1.52332443      -1.03861512
H       -2.40912199       0.03564566      -1.12662819
H       -2.65609292      -1.00812473       0.27441362
18
Frame=9 idx=001000 GeodesicLength=0.8182875197720885 rxn_smarts="[C:1]([C@@:2]1([H:10])[C:3]([H:11])([H:12])[C:4]1([C:5]([H:13])([H:14])[H:15])[C:6]([H:16])([H:17])[H:18])([H:7])([H:8])[H:9]>>[C:1](=[C:2]([C:3]([C:4](=[C:5]([H:13])[H:15])[C:6]([H:16])([H:17])[H:18])([H:11])[H:12])[H:10])([H:7])[H:9].[H:8][H:14]"
C        2.05404192       0.04515495      -0.58778375
C        0.96271491      -0.79446001      -0.37083827
C        0.24073633      -0.92511803       0.93100504
C       -0.74587626      -0.02094646       0.25752610
C       -0.73134050       1.35901565       0.50998834
C       -1.91153384      -0.66067744      -0.44362205
H        2.27402170       0.33570097      -1.61328507
H        1.73332733       1.62901285      -0.20552151
H        2.96481313      -0.10562573      -0.00880373
H        0.67783284      -1.50242421      -1.14199164
H        0.76278725      -0.47329851       1.77131004
H       -0.11352684      -1.92314677       1.17881583
H       -1.48357851       1.95986541       0.00136591
H        0.67025088       1.95051768       0.04391496
H       -0.66748942       1.64825671       1.55762343
H       -1.61714003      -1.52515654      -1.04222589
H       -2.42407240       0.02478806      -1.12039250
H       -2.64596848      -1.02145858       0.28291477
18
Frame=10 idx=001000 GeodesicLength=0.9058569253539678 rxn_smarts="[C:1]([C@@:2]1([H:10])[C:3]([H:11])([H:12])[C:4]1([C:5]([H:13])([H:14])[H:15])[C:6]([H:16])([H:17])[H:18])([H:7])([H:8])[H:9]>>[C:1](=[C:2]([C:3]([C:4](=[C:5]([H:13])[H:15])[C:6]([H:16])([H:17])[H:18])([H:11])[H:12])[H:10])([H:7])[H:9].[H:8][H:14]"
C        2.05810540       0.03962826      -0.59342992
C        0.95742268      -0.79132608      -0.37269939
C        0.24078620      -0.91446156       0.93340289
C       -0.74376097      -0.01734649       0.24564942
C       -0.73851218       1.36557649       0.49971776
C       -1.91217660      -0.66586608      -0.44217416
H        2.24650890       0.36571324      -1.61500108
H        1.78593063       1.63585281      -0.15875089
H        2.98968430      -0.16422988      -0.06536618
H        0.68012678      -1.51530710      -1.13191422
H        0.76288433      -0.45241991       1.76783735
H       -0.11098849      -1.91074310       1.19091471
H       -1.48251786       1.96074519      -0.02825526
H        0.68570716       1.96574354       0.08613644
H       -0.72790899       1.64541181       1.55218826
H       -1.61718589      -1.52670927      -1.04583671
H       -2.43850412       0.01422238      -1.11373070
H       -2.63560128      -1.03448425       0.29131169
18
Frame=11 idx=001000 GeodesicLength=0.9929892052060755 rxn_smarts="[C:1]([C@@:2]1([H:10])[C:3]([H:11])([H:12])[C:4]1([C:5]([H:13])([H:14])[H:15])[C:6]([H:16])([H:17])[H:18])([H:7])([H:8])[H:9]>>[C:1](=[C:2]([C:3]([C:4](=[C:5]([H:13])[H:15])[C:6]([H:16])([H:17])[H:18])([H:11])[H:12])[H:10])([H:7])[H:9].[H:8][H:14]"
C        2.06221315       0.03419067      -0.59841222
C        0.95229698      -0.78829639      -0.37432616
C        0.24084526      -0.90391279       0.93589187
C       -0.74160276      -0.01390127       0.23410053
C       -0.74530981       1.37200695       0.48963126
C       -1.91262784      -0.67091462      -0.44059055
H        2.22022997       0.39644299      -1.61341707
H        1.83923209       1.64050124      -0.11263923
H        3.01060494      -0.22076811      -0.12456556
H        0.68249814      -1.52769908      -1.12156032
H        0.76288808      -0.43183759       1.76445969
H       -0.10846090      -1.89837275       1.20294468
H       -1.48085087       1.96138104      -0.05725780
H        0.69956919       1.98034363       0.12801029
H       -0.78686799       1.64223392       1.54423025
H       -1.61717269      -1.52802067      -1.04945350
H       -2.45248503       0.00389486      -1.10665322
H       -2.62499991      -1.04727202       0.29960705
18
Frame=12 idx=001000 GeodesicLength=1.079776787478302 rxn_smarts="[C:1]([C@@:2]1([H:10])[C:3]([H:11])([H:12])[C:4]1([C:5]([H:13])([H:14])[H:15])[C:6]([H:16])([H:17])[H:18])([H:7])([H:8])[H:9]>>[C:1](=[C:2]([C:3]([C:4](=[C:5]([H:13])[H:15])[C:6]([H:16])([H:17])[H:18])([H:11])[H:12])[H:10])([H:7])[H:9].[H:8][H:14]"
C        2.06643022       0.02874644      -0.60276052
C        0.94730606      -0.78535195      -0.37574313
C        0.24090692      -0.89343122       0.93846620
C       -0.73942215      -0.01060243       0.22283703
C       -0.75183452       1.37831369       0.47969884
C       -1.91291884      -0.67586791      -0.43888452
H        2.19527699       0.42780570      -1.60853301
H        1.89360722       1.64290445      -0.06688158
H        3.02762126      -0.27514131      -0.18644150
H        0.68490798      -1.53962480      -1.11095052
H        0.76279743      -0.41147854       1.76115973
H       -0.10593794      -1.88600036       1.21493392
H       -1.47878397       1.96174415      -0.08562950
H        0.71174654       1.99448183       0.16927589
H       -0.84431972       1.63879713       1.53391114
H       -1.61712555      -1.52915209      -1.05306273
H       -2.46607102      -0.00626785      -1.09919917
H       -2.61418690      -1.05987491       0.30780343
18
Frame=13 idx=001000 GeodesicLength=1.166815393250287 rxn_smarts="[C:1]([C@@:2]1([H:10])[C:3]([H:11])([H:12])[C:4]1([C:5]([H:13])([H:14])[H:15])[C:6]([H:16])([H:17])[H:18])([H:7])([H:8])[H:9]>>[C:1](=[C:2]([C:3]([C:4](=[C:5]([H:13])[H:15])[C:6]([H:16])([H:17])[H:18])([H:11])[H:12])[H:10])([H:7])[H:9].[H:8][H:14]"
C        2.07078075       0.02326197      -0.60651995
C        0.94242866      -0.78239144      -0.37698679
C        0.24100908      -0.88289156       0.94113052
C       -0.73724641      -0.00740816       0.21179493
C       -0.75828111       1.38452261       0.46985337
C       -1.91308858      -0.68079235      -0.43706218
H        2.17169872       0.45979228      -1.60034833
H        1.94978730       1.64296315      -0.02054410
H        3.04101195      -0.32777590      -0.25145233
H        0.68732888      -1.55103979      -1.10010415
H        0.76266172      -0.39114669       1.75790526
H       -0.10332711      -1.87351564       1.22696796
H       -1.47668053       1.96177609      -0.11337329
H        0.72194898       2.00837372       0.20952335
H       -0.90044244       1.63521491       1.52134502
H       -1.61706264      -1.53022784      -1.05657855
H       -2.47931649      -0.01638234      -1.09149082
H       -2.60321074      -1.07233304       0.31594006
18
Frame=14 idx=001000 GeodesicLength=1.2535327612841696 rxn_smarts="[C:1]([C@@:2]1([H:10])[C:3]([H:11])([H:12])[C:4]1([C:5]([H:13])([H:14])[H:15])[C:6]([H:16])([H:17])[H:18])([H:7])([H:8])[H:9]>>[C:1](=[C:2]([C:3]([C:4](=[C:5]([H:13])[H:15])[C:6]([H:16])([H:17])[H:18])([H:11])[H:12])[H:10])([H:7])[H:9].[H:8][H:14]"
C        2.07529772       0.01761697      -0.60976437
C        0.93763817      -0.77950379      -0.37806653
C        0.24110855      -0.87231848       0.94386748
C       -0.73508044      -0.00434886       0.20095315
C       -0.76464614       1.39061613       0.46007158
C       -1.91312810      -0.68571468      -0.43512223
H        2.14949172       0.49239255      -1.58881305
H        2.00783419       1.64030497       0.02605858
H        3.05040058      -0.37787961      -0.31936821
H        0.68973324      -1.56210041      -1.08897184
H        0.76243503      -0.37085953       1.75466700
H       -0.10069539      -1.86091218       1.23904641
H       -1.47438148       1.96149711      -0.14066721
H        0.73040564       2.02219572       0.24894313
H       -0.95516486       1.63144332       1.50664907
H       -1.61698358      -1.53125841      -1.06002004
H       -2.49222721      -0.02649677      -1.08347587
H       -2.59203764      -1.08467406       0.32401295
18
Frame=15 idx=001000 GeodesicLength=1.339968284896727 rxn_smarts="[C:1]([C@@:2]1([H:10])[C:3]([H:11])([H:12])[C:4]1([C:5]([H:13])([H:14])[H:15])[C:6]([H:16])([H:17])[H:18])([H:7])([H:8])[H:9]>>[C:1](=[C:2]([C:3]([C:4](=[C:5]([H:13])[H:15])[C:6]([H:16])([H:17])[H:18])([H:11])[H:12])[H:10])([H:7])[H:9].[H:8][H:14]"
C        2.07998654       0.01175929      -0.61261055
C        0.93291352      -0.77665613      -0.37903148
C        0.24122732      -0.86163836       0.94665401
C       -0.73293440      -0.00141171       0.19026031
C       -0.77101872       1.39660244       0.45027566
C       -1.91305289      -0.69068694      -0.43305869
H        2.12865469       0.52562920      -1.57391475
H        2.06820840       1.63464235       0.07328039
H        3.05569411      -0.42534945      -0.39015291
H        0.69208900      -1.57282571      -1.07756421
H        0.76215294      -0.35049375       1.75138560
H       -0.09799057      -1.84811127       1.25120219
H       -1.47202802       1.96087862      -0.16759957
H        0.73705240       2.03610267       0.28742470
H       -1.00854280       1.62752665       1.48991280
H       -1.61690122      -1.53232170      -1.06334383
H       -2.50484970      -0.03670329      -1.07518118
H       -2.58066061      -1.09694292       0.33206149
18
Frame=16 idx=001000 GeodesicLength=1.4262273734749253 rxn_smarts="[C:1]([C@@:2]1([H:10])[C:3]([H:11])([H:12])[C:4]1([C:5]([H:13])([H:14])[H:15])[C:6]([H:16])([H:17])[H:18])([H:7])([H:8])[H:9]>>[C:1](=[C:2]([C:3]([C:4](=[C:5]([H:13])[H:15])[C:6]([H:16])([H:17])[H:18])([H:11])[H:12])[H:10])([H:7])[H:9].[H:8][H:14]"
C        2.08485444       0.00562020      -0.61514762
C        0.92822426      -0.77382477      -0.37992564
C        0.24137460      -0.85077161       0.94946812
C       -0.73083184       0.00141482       0.17965527
C       -0.77750797       1.40249325       0.44036747
C       -1.91288943      -0.69576703      -0.43086084
H        2.10927383       0.55952337      -1.55551296
H        2.13145940       1.62550558       0.12153229
H        3.05678635      -0.46991172      -0.46396468
H        0.69436269      -1.58325405      -1.06587028
H        0.76183245      -0.32991195       1.74799508
H       -0.09517243      -1.83502242       1.26347961
H       -1.46977300       1.95988791      -0.19427882
H        0.74180127       2.05030690       0.32485551
H       -1.06063208       1.62351174       1.47119027
H       -1.61683625      -1.53350110      -1.06650176
H       -2.51725218      -0.04711101      -1.06661822
H       -2.56907411      -1.10918811       0.34013720
