11
Frame=0 idx=011512 GeodesicLength=0.0 rxn_smarts="[N:1](=[c:2]1/[c:3]([H:9])[n:4][c:5]([H:10])[c:6]([H:11])[o:7]1)\[H:8]>>[N:1](=[C:2]1/[C:3]([H:9])=[N:4][C:5]([H:10])=[C:6]1[O:7][H:11])\[H:8]"
N        1.96430604       0.34812547       0.50184401
C        0.83657845      -0.08055058       0.16451460
C        0.36640469      -1.43791193       0.02574841
N       -0.93952639      -1.45524393      -0.05754932
C       -1.46939072      -0.27807978      -0.16750258
C       -0.39491303       0.89160762      -0.26919127
O       -0.08783278       1.67977903      -1.20155601
H        2.03294807       1.34687100       0.28613866
H        0.96946211      -2.31126010      -0.18747056
H       -2.46366101      -0.08844577       0.22852958
H       -0.81437545       1.38510902       0.67649448
11
Frame=1 idx=011512 GeodesicLength=0.1250960021942467 rxn_smarts="[N:1](=[c:2]1/[c:3]([H:9])[n:4][c:5]([H:10])[c:6]([H:11])[o:7]1)\[H:8]>>[N:1](=[C:2]1/[C:3]([H:9])=[N:4][C:5]([H:10])=[C:6]1[O:7][H:11])\[H:8]"
N        1.97355879       0.33886445       0.48609422
C        0.84891298      -0.08137555       0.12704132
C        0.36961277      -1.44049165       0.01176180
N       -0.93515462      -1.46481701      -0.05295873
C       -1.47419743      -0.28288689      -0.15238644
C       -0.41914956       0.87243842      -0.26298240
O       -0.06823920       1.67932498      -1.16549493
H        2.03845257       1.34547662       0.31108531
H        0.97486775      -2.31732561      -0.17976655
H       -2.47342915      -0.10041424       0.23243953
H       -0.83523491       1.45120648       0.64516688
11
Frame=2 idx=011512 GeodesicLength=0.25017012166755886 rxn_smarts="[N:1](=[c:2]1/[c:3]([H:9])[n:4][c:5]([H:10])[c:6]([H:11])[o:7]1)\[H:8]>>[N:1](=[C:2]1/[C:3]([H:9])=[N:4][C:5]([H:10])=[C:6]1[O:7][H:11])\[H:8]"
N        1.98246371       0.32888889       0.47181423
C        0.86072290      -0.08148827       0.09087408
C        0.37316291      -1.44215821      -0.00394398
N       -0.93015367      -1.47377240      -0.04938509
C       -1.47830237      -0.28699220      -0.13607733
C       -0.44239720       0.85566596      -0.25171235
O       -0.05069210       1.67560513      -1.12850780
H        2.04603385       1.34101715       0.33395589
H        0.98107252      -2.32188154      -0.17243017
H       -2.48312874      -0.11273321       0.23588744
H       -0.85878181       1.51784869       0.60952506
11
Frame=3 idx=011512 GeodesicLength=0.3752876316488908 rxn_smarts="[N:1](=[c:2]1/[c:3]([H:9])[n:4][c:5]([H:10])[c:6]([H:11])[o:7]1)\[H:8]>>[N:1](=[C:2]1/[C:3]([H:9])=[N:4][C:5]([H:10])=[C:6]1[O:7][H:11])\[H:8]"
N        1.99173649       0.31802510       0.45773181
C        0.87183716      -0.08082480       0.05731184
C        0.37692541      -1.44288491      -0.02148191
N       -0.92462032      -1.48201509      -0.04706474
C       -1.48169237      -0.29032060      -0.11863337
C       -0.46455143       0.84125052      -0.23451633
O       -0.03529265       1.66894468      -1.09034119
H        2.05600674       1.33385772       0.35414027
H        0.98793056      -2.32490927      -0.16477005
H       -2.49306566      -0.12538816       0.23772082
H       -0.88521394       1.58426479       0.56990286
11
Frame=4 idx=011512 GeodesicLength=0.5005777078172081 rxn_smarts="[N:1](=[c:2]1/[c:3]([H:9])[n:4][c:5]([H:10])[c:6]([H:11])[o:7]1)\[H:8]>>[N:1](=[C:2]1/[C:3]([H:9])=[N:4][C:5]([H:10])=[C:6]1[O:7][H:11])\[H:8]"
N        2.00214650       0.30645594       0.44312529
C        0.88214995      -0.07937524       0.02750913
C        0.38070669      -1.44290588      -0.04034375
N       -0.91887623      -1.48969248      -0.04606173
C       -1.48464485      -0.29287948      -0.10015136
C       -0.48561636       0.82917048      -0.21082279
O       -0.02163325       1.65963232      -1.05088522
H        2.06877809       1.32464005       0.37143418
H        0.99519931      -2.32650431      -0.15725366
H       -2.50338650      -0.13844422       0.23759042
H       -0.91482335       1.64990280       0.52585949
11
Frame=5 idx=011512 GeodesicLength=0.6256002490696314 rxn_smarts="[N:1](=[c:2]1/[c:3]([H:9])[n:4][c:5]([H:10])[c:6]([H:11])[o:7]1)\[H:8]>>[N:1](=[C:2]1/[C:3]([H:9])=[N:4][C:5]([H:10])=[C:6]1[O:7][H:11])\[H:8]"
N        2.01359231       0.29407811       0.42661418
C        0.89144565      -0.07705504       0.00152919
C        0.38434611      -1.44179453      -0.06088878
N       -0.91264808      -1.49642049      -0.04603998
C       -1.48662317      -0.29475617      -0.08037832
C       -0.50542846       0.81902634      -0.17951601
O       -0.01063140       1.64871684      -1.00876174
H        2.08455270       1.31318708       0.38404914
H        1.00254189      -2.32625690      -0.14763153
H       -2.51458048      -0.15156432       0.23210544
H       -0.94656708       1.71283907       0.47891842
11
Frame=6 idx=011512 GeodesicLength=0.7507205357348443 rxn_smarts="[N:1](=[c:2]1/[c:3]([H:9])[n:4][c:5]([H:10])[c:6]([H:11])[o:7]1)\[H:8]>>[N:1](=[C:2]1/[C:3]([H:9])=[N:4][C:5]([H:10])=[C:6]1[O:7][H:11])\[H:8]"
N        2.02665012       0.28155602       0.40891083
C        0.89974581      -0.07387851      -0.01952532
C        0.38764265      -1.44004805      -0.08064584
N       -0.90662261      -1.50256152      -0.04698161
C       -1.48844801      -0.29595274      -0.05976341
C       -0.52427499       0.81075056      -0.14082869
O       -0.00142158       1.63597439      -0.96438509
H        2.10379553       1.30065724       0.39223455
H        1.00969002      -2.32430384      -0.13908615
H       -2.52638940      -0.16461883       0.22238155
H       -0.98036753       1.77242528       0.42768918
11
Frame=7 idx=011512 GeodesicLength=0.875706051754418 rxn_smarts="[N:1](=[c:2]1/[c:3]([H:9])[n:4][c:5]([H:10])[c:6]([H:11])[o:7]1)\[H:8]>>[N:1](=[C:2]1/[C:3]([H:9])=[N:4][C:5]([H:10])=[C:6]1[O:7][H:11])\[H:8]"
N        2.04084694       0.26919976       0.38970017
C        0.90678360      -0.06976328      -0.03558129
C        0.39039896      -1.43737466      -0.09869714
N       -0.90087324      -1.50778657      -0.04893218
C       -1.49011190      -0.29636447      -0.03848382
C       -0.54233760       0.80395168      -0.09518218
O        0.00599205       1.62164507      -0.91767076
H        2.12578469       1.28746874       0.39604217
H        1.01623674      -2.32038719      -0.13181957
H       -2.53806558      -0.17712022       0.20816940
H       -1.01465467       1.82653113       0.37245520
11
Frame=8 idx=011512 GeodesicLength=1.00121718325661 rxn_smarts="[N:1](=[c:2]1/[c:3]([H:9])[n:4][c:5]([H:10])[c:6]([H:11])[o:7]1)\[H:8]>>[N:1](=[C:2]1/[C:3]([H:9])=[N:4][C:5]([H:10])=[C:6]1[O:7][H:11])\[H:8]"
N        2.05683950       0.25765419       0.36851757
C        0.91276957      -0.06465176      -0.04652299
C        0.39262801      -1.43423869      -0.11447357
N       -0.89601966      -1.51257974      -0.05156952
C       -1.49250483      -0.29607154      -0.01607452
C       -0.56023186       0.79858784      -0.04368171
O        0.01171157       1.60626947      -0.86891373
H        2.15068870       1.27490322       0.39617109
H        1.02247444      -2.31553357      -0.12632763
H       -2.55036536      -0.18854735       0.18887392
H       -1.04799008       1.87420793       0.31400108
11
Frame=9 idx=011512 GeodesicLength=1.1258592205542315 rxn_smarts="[N:1](=[c:2]1/[c:3]([H:9])[n:4][c:5]([H:10])[c:6]([H:11])[o:7]1)\[H:8]>>[N:1](=[C:2]1/[C:3]([H:9])=[N:4][C:5]([H:10])=[C:6]1[O:7][H:11])\[H:8]"
N        2.07106530       0.24715534       0.34613531
C        0.91657285      -0.05836608      -0.05327787
C        0.39385624      -1.42922164      -0.12747945
N       -0.89122383      -1.51570121      -0.05451160
C       -1.49379806      -0.29571612       0.00981343
C       -0.57771371       0.79289743       0.01209559
O        0.01483916       1.59017860      -0.81795370
H        2.17563734       1.26215648       0.38941507
H        1.02755455      -2.30773206      -0.12087714
H       -2.56088686      -0.19765759       0.15973294
H       -1.07590298       1.91200685       0.25690742
11
Frame=10 idx=011512 GeodesicLength=1.25075646252866 rxn_smarts="[N:1](=[c:2]1/[c:3]([H:9])[n:4][c:5]([H:10])[c:6]([H:11])[o:7]1)\[H:8]>>[N:1](=[C:2]1/[C:3]([H:9])=[N:4][C:5]([H:10])=[C:6]1[O:7][H:11])\[H:8]"
N        2.08468797       0.23823248       0.32532615
C        0.91912880      -0.05114249      -0.05576476
C        0.39443680      -1.42378777      -0.13803952
N       -0.88758628      -1.51846410      -0.05853454
C       -1.49668157      -0.29486757       0.03302608
C       -0.59624919       0.78777633       0.06690776
O        0.01790104       1.57389985      -0.76760284
H        2.20074505       1.25105789       0.38137374
H        1.03232593      -2.29933989      -0.11854719
H       -2.56972683      -0.20540612       0.13358222
H       -1.09898172       1.94204139       0.19827290
11
Frame=11 idx=011512 GeodesicLength=1.375763550038138 rxn_smarts="[N:1](=[c:2]1/[c:3]([H:9])[n:4][c:5]([H:10])[c:6]([H:11])[o:7]1)\[H:8]>>[N:1](=[C:2]1/[C:3]([H:9])=[N:4][C:5]([H:10])=[C:6]1[O:7][H:11])\[H:8]"
N        2.09698574       0.23073427       0.30553177
C        0.92037435      -0.04308566      -0.05485015
C        0.39436748      -1.41755261      -0.14719767
N       -0.88461817      -1.52062934      -0.06317698
C       -1.50048723      -0.29390873       0.05462244
C       -0.61582875       0.78255810       0.12001389
O        0.02058200       1.55783683      -0.71772201
H        2.22513916       1.24121245       0.37144875
H        1.03661019      -2.28991038      -0.11743580
H       -2.57695242      -0.21168556       0.10836553
H       -1.11617235       1.96443063       0.14040023
11
Frame=12 idx=011512 GeodesicLength=1.5008554045396005 rxn_smarts="[N:1](=[c:2]1/[c:3]([H:9])[n:4][c:5]([H:10])[c:6]([H:11])[o:7]1)\[H:8]>>[N:1](=[C:2]1/[C:3]([H:9])=[N:4][C:5]([H:10])=[C:6]1[O:7][H:11])\[H:8]"
N        2.10797158       0.22459760       0.28694138
C        0.92058446      -0.03438648      -0.05094783
C        0.39376490      -1.41069088      -0.15521997
N       -0.88219780      -1.52243414      -0.06800614
C       -1.50526410      -0.29295031       0.07403791
C       -0.63660675       0.77712343       0.17055104
O        0.02304722       1.54219711      -0.66847998
H        2.24866918       1.23268171       0.35986185
H        1.04054199      -2.27971740      -0.11741202
H       -2.58308131      -0.21685496       0.08462661
H       -1.12742936       1.98043431       0.08404715
11
Frame=13 idx=011512 GeodesicLength=1.6260554499644475 rxn_smarts="[N:1](=[c:2]1/[c:3]([H:9])[n:4][c:5]([H:10])[c:6]([H:11])[o:7]1)\[H:8]>>[N:1](=[C:2]1/[C:3]([H:9])=[N:4][C:5]([H:10])=[C:6]1[O:7][H:11])\[H:8]"
N        2.11749604       0.21965506       0.26929927
C        0.91990319      -0.02519058      -0.04415997
C        0.39269548      -1.40301722      -0.16213211
N       -0.88009477      -1.52372461      -0.07268857
C       -1.51078372      -0.29195557       0.09094153
C       -0.65857551       0.77128850       0.21823311
O        0.02559568       1.52673633      -0.61973969
H        2.27088270       1.22514019       0.34675560
H        1.04406506      -2.26847233      -0.11852921
H       -2.58830441      -0.22135016       0.06262196
H       -1.13287974       1.99089039       0.02939808
11
Frame=14 idx=011512 GeodesicLength=1.7512526273779403 rxn_smarts="[N:1](=[c:2]1/[c:3]([H:9])[n:4][c:5]([H:10])[c:6]([H:11])[o:7]1)\[H:8]>>[N:1](=[C:2]1/[C:3]([H:9])=[N:4][C:5]([H:10])=[C:6]1[O:7][H:11])\[H:8]"
N        2.12605559       0.21584558       0.25248684
C        0.91863871      -0.01570279      -0.03472500
C        0.39132283      -1.39498666      -0.16792209
N       -0.87831171      -1.52497109      -0.07712792
C       -1.51723049      -0.29106826       0.10560861
C       -0.68187025       0.76512621       0.26336504
O        0.02782107       1.51177709      -0.57122601
H        2.29235081       1.21885290       0.33139604
H        1.04746943      -2.25686467      -0.12025849
H       -2.59326949      -0.22520322       0.04108524
H       -1.13297650       1.99719490      -0.02268227
11
Frame=15 idx=011512 GeodesicLength=1.8764589698687535 rxn_smarts="[N:1](=[c:2]1/[c:3]([H:9])[n:4][c:5]([H:10])[c:6]([H:11])[o:7]1)\[H:8]>>[N:1](=[C:2]1/[C:3]([H:9])=[N:4][C:5]([H:10])=[C:6]1[O:7][H:11])\[H:8]"
N        2.13371884       0.21307629       0.23580400
C        0.91688471      -0.00607634      -0.02280766
C        0.38971167      -1.38664778      -0.17255845
N       -0.87672350      -1.52622967      -0.08117396
C       -1.52451078      -0.29033102       0.11834601
C       -0.70647154       0.75849560       0.30639285
O        0.02953206       1.49715782      -0.52256080
H        2.31291938       1.21373148       0.31321311
H        1.05077273      -2.24490148      -0.12188287
H       -2.59791969      -0.22845592       0.01857771
H       -1.12791388       2.00018102      -0.07134994
11
Frame=16 idx=011512 GeodesicLength=2.001776400891473 rxn_smarts="[N:1](=[c:2]1/[c:3]([H:9])[n:4][c:5]([H:10])[c:6]([H:11])[o:7]1)\[H:8]>>[N:1](=[C:2]1/[C:3]([H:9])=[N:4][C:5]([H:10])=[C:6]1[O:7][H:11])\[H:8]"
N        2.14032544       0.21123421       0.21941460
C        0.91472099       0.00359732      -0.00801183
C        0.38792538      -1.37781240      -0.17588270
N       -0.87518868      -1.52726234      -0.08496516
C       -1.53246844      -0.28961789       0.12894522
C       -0.73240437       0.75130961       0.34743186
O        0.03097503       1.48254632      -0.47335063
H        2.33236175       1.20950327       0.29172462
H        1.05392341      -2.23233389      -0.12369204
H       -2.60219100      -0.23131068      -0.00461655
H       -1.11797950       2.00014647      -0.11699739
