9
Frame=0 idx=007922 GeodesicLength=0.0 rxn_smarts="[N:1]([C:2](=[O:3])[C:4]#[C:5][C:6]#[N:7])([H:8])[H:9]>>[N:1]([C:2]1=[O+:3][C-:5]=[C:4]1[N+:7]#[C-:6])([H:8])[H:9]"
N       -1.42169877       0.54739402      -0.20208833
C       -0.82077947      -0.62196391       0.09777881
O       -1.37210021      -1.67381943       0.30948816
C        0.64702120      -0.55255545       0.16011794
C        1.85741114      -0.92217609       0.31351874
C        2.81654455       0.52794020       0.03135283
N        1.61550844       0.74547942      -0.08495789
H       -0.89729848       1.38701697      -0.36620801
H       -2.42460839       0.56268431      -0.25900224
9
Frame=1 idx=007922 GeodesicLength=0.10957775256551255 rxn_smarts="[N:1]([C:2](=[O:3])[C:4]#[C:5][C:6]#[N:7])([H:8])[H:9]>>[N:1]([C:2]1=[O+:3][C-:5]=[C:4]1[N+:7]#[C-:6])([H:8])[H:9]"
N       -1.43729906       0.54254567      -0.22497860
C       -0.81871001      -0.60650583       0.10916739
O       -1.33645220      -1.68776712       0.25867512
C        0.63656622      -0.49996482       0.27183952
C        1.83012530      -0.94465929       0.29938157
C        2.83980062       0.48194454      -0.02978898
N        1.65393585       0.77361277      -0.05368948
H       -0.92635158       1.39316867      -0.37515565
H       -2.44161513       0.54762541      -0.25545089
9
Frame=2 idx=007922 GeodesicLength=0.2204588922634657 rxn_smarts="[N:1]([C:2](=[O:3])[C:4]#[C:5][C:6]#[N:7])([H:8])[H:9]>>[N:1]([C:2]1=[O+:3][C-:5]=[C:4]1[N+:7]#[C-:6])([H:8])[H:9]"
N       -1.44976668       0.53844181      -0.23940556
C       -0.81606356      -0.58989725       0.13002883
O       -1.30022275      -1.69408603       0.23308985
C        0.62951732      -0.46010398       0.34189292
C        1.79604230      -0.96716185       0.27053187
C        2.85301679       0.44226495      -0.07771039
N        1.69322168       0.80337593      -0.00574693
H       -0.95147497       1.39731311      -0.38587814
H       -2.45427012       0.52985331      -0.26680245
9
Frame=3 idx=007922 GeodesicLength=0.33211454536270363 rxn_smarts="[N:1]([C:2](=[O:3])[C:4]#[C:5][C:6]#[N:7])([H:8])[H:9]>>[N:1]([C:2]1=[O+:3][C-:5]=[C:4]1[N+:7]#[C-:6])([H:8])[H:9]"
N       -1.46168173       0.53563592      -0.24498637
C       -0.81492066      -0.57310571       0.15579712
O       -1.26469601      -1.69736896       0.21258316
C        0.62445890      -0.42744492       0.38997284
C        1.75986288      -0.98666855       0.24363490
C        2.86193950       0.40809350      -0.11469838
N        1.73539750       0.82943419       0.03704412
H       -0.97464569       1.39998053      -0.39734736
H       -2.46571469       0.51144401      -0.28200004
9
Frame=4 idx=007922 GeodesicLength=0.4435972307909489 rxn_smarts="[N:1]([C:2](=[O:3])[C:4]#[C:5][C:6]#[N:7])([H:8])[H:9]>>[N:1]([C:2]1=[O+:3][C-:5]=[C:4]1[N+:7]#[C-:6])([H:8])[H:9]"
N       -1.47187527       0.53324700      -0.24670742
C       -0.81473469      -0.55783826       0.18097372
O       -1.23354368      -1.69770952       0.20275466
C        0.62068746      -0.40271319       0.42643651
C        1.72281129      -1.00394571       0.20850146
C        2.86404182       0.38232523      -0.15181983
N        1.78005144       0.85357695       0.09532408
H       -0.99256734       1.39856639      -0.41716698
H       -2.47487103       0.49449111      -0.29829620
9
Frame=5 idx=007922 GeodesicLength=0.5555849748647097 rxn_smarts="[N:1]([C:2](=[O:3])[C:4]#[C:5][C:6]#[N:7])([H:8])[H:9]>>[N:1]([C:2]1=[O+:3][C-:5]=[C:4]1[N+:7]#[C-:6])([H:8])[H:9]"
N       -1.48274429       0.53116164      -0.24690114
C       -0.81438821      -0.54391301       0.20026658
O       -1.20359475      -1.69681676       0.19413212
C        0.61743424      -0.37975068       0.45477616
C        1.68577887      -1.01834587       0.18070548
C        2.86534251       0.35943216      -0.18246062
N        1.82787603       0.87312628       0.14494196
H       -1.01133713       1.39742083      -0.43401855
H       -2.48436728       0.47768542      -0.31144200
9
Frame=6 idx=007922 GeodesicLength=0.6676204633483983 rxn_smarts="[N:1]([C:2](=[O:3])[C:4]#[C:5][C:6]#[N:7])([H:8])[H:9]>>[N:1]([C:2]1=[O+:3][C-:5]=[C:4]1[N+:7]#[C-:6])([H:8])[H:9]"
N       -1.49329120       0.52939134      -0.24564936
C       -0.81430899      -0.53081700       0.21755610
O       -1.17652238      -1.69467883       0.19009537
C        0.61475612      -0.36007615       0.47767878
C        1.64869871      -1.03049943       0.15150940
C        2.86313388       0.34223716      -0.21247171
N        1.87895635       0.88853400       0.19905193
H       -1.02830024       1.39435322      -0.45382556
H       -2.49312226       0.46155569      -0.32394495
9
Frame=7 idx=007922 GeodesicLength=0.7799659035562038 rxn_smarts="[N:1]([C:2](=[O:3])[C:4]#[C:5][C:6]#[N:7])([H:8])[H:9]>>[N:1]([C:2]1=[O+:3][C-:5]=[C:4]1[N+:7]#[C-:6])([H:8])[H:9]"
N       -1.50430379       0.52752689      -0.24464037
C       -0.81423602      -0.51820030       0.23195566
O       -1.15113122      -1.69161206       0.18839622
C        0.61246885      -0.34146570       0.49572041
C        1.61190686      -1.04074579       0.12448349
C        2.85995092       0.32837462      -0.23954674
N        1.93345221       0.89964226       0.25138669
H       -1.04601307       1.39111859      -0.47261388
H       -2.50209475       0.44536148      -0.33514146
9
Frame=8 idx=007922 GeodesicLength=0.8924849963138705 rxn_smarts="[N:1]([C:2](=[O:3])[C:4]#[C:5][C:6]#[N:7])([H:8])[H:9]>>[N:1]([C:2]1=[O+:3][C-:5]=[C:4]1[N+:7]#[C-:6])([H:8])[H:9]"
N       -1.51587568       0.52566775      -0.24341377
C       -0.81429110      -0.50575087       0.24457051
O       -1.12761370      -1.68766520       0.18947421
C        0.61060548      -0.32385390       0.50945804
C        1.57525449      -1.04904942       0.09696810
C        2.85607503       0.31840052      -0.26356810
N        1.99144525       0.90617374       0.30410736
H       -1.06416647       1.38681968      -0.49295832
H       -2.51143330       0.42925771      -0.34463802
9
Frame=9 idx=007922 GeodesicLength=1.005193804237838 rxn_smarts="[N:1]([C:2](=[O:3])[C:4]#[C:5][C:6]#[N:7])([H:8])[H:9]>>[N:1]([C:2]1=[O+:3][C-:5]=[C:4]1[N+:7]#[C-:6])([H:8])[H:9]"
N       -1.52818766       0.52373241      -0.24221978
C       -0.81448633      -0.49312671       0.25589745
O       -1.10584150      -1.68278372       0.19382712
C        0.60918448      -0.30667693       0.51914448
C        1.53858858      -1.05527002       0.06808606
C        2.85209299       0.31209461      -0.28453576
N        2.05323471       0.90763692       0.35749055
H       -1.08333132       1.38166314      -0.51438632
H       -2.52125394       0.41273032      -0.35330380
9
Frame=10 idx=007922 GeodesicLength=1.1181055548362797 rxn_smarts="[N:1]([C:2](=[O:3])[C:4]#[C:5][C:6]#[N:7])([H:8])[H:9]>>[N:1]([C:2]1=[O+:3][C-:5]=[C:4]1[N+:7]#[C-:6])([H:8])[H:9]"
N       -1.54156586       0.52156498      -0.24144566
C       -0.81477903      -0.48001440       0.26595358
O       -1.08550625      -1.67690190       0.20167797
C        0.60820883      -0.28918480       0.52464971
C        1.50183709      -1.05917477       0.03748538
C        2.84902877       0.30886102      -0.30180762
N        2.11903142       0.90358203       0.41117645
H       -1.10436407       1.37594592      -0.53646895
H       -2.53189090       0.39532192      -0.36122084
9
Frame=11 idx=007922 GeodesicLength=1.2312068754146108 rxn_smarts="[N:1]([C:2](=[O:3])[C:4]#[C:5][C:6]#[N:7])([H:8])[H:9]>>[N:1]([C:2]1=[O+:3][C-:5]=[C:4]1[N+:7]#[C-:6])([H:8])[H:9]"
N       -1.55642784       0.51899039      -0.24139866
C       -0.81510120      -0.46609026       0.27458375
O       -1.06616209      -1.66988569       0.21311110
C        0.60768006      -0.27051981       0.52559938
C        1.46499451      -1.06045299       0.00495521
C        2.84818564       0.30776602      -0.31445747
N        2.18888049       0.89366057       0.46465920
H       -1.12826664       1.36997687      -0.55888806
H       -2.54378293       0.37655491      -0.36816445
9
Frame=12 idx=007922 GeodesicLength=1.3445040361150267 rxn_smarts="[N:1]([C:2](=[O:3])[C:4]#[C:5][C:6]#[N:7])([H:8])[H:9]>>[N:1]([C:2]1=[O+:3][C-:5]=[C:4]1[N+:7]#[C-:6])([H:8])[H:9]"
N       -1.57314791       0.51594867      -0.24196922
C       -0.81540228      -0.45097397       0.28188654
O       -1.04732203      -1.66146434       0.22831843
C        0.60761422      -0.24989502       0.52165785
C        1.42797197      -1.05859895      -0.03010597
C        2.85046379       0.30811719      -0.32199653
N        2.26282953       0.87723750       0.51821237
H       -1.15579479       1.36370787      -0.58194081
H       -2.55721250       0.35592104      -0.37406266
9
Frame=13 idx=007922 GeodesicLength=1.4580251371231467 rxn_smarts="[N:1]([C:2](=[O:3])[C:4]#[C:5][C:6]#[N:7])([H:8])[H:9]>>[N:1]([C:2]1=[O+:3][C-:5]=[C:4]1[N+:7]#[C-:6])([H:8])[H:9]"
N       -1.59211447       0.51237029      -0.24301668
C       -0.81559402      -0.43422028       0.28791428
O       -1.02832046      -1.65122798       0.24745222
C        0.60802729      -0.22637849       0.51235731
C        1.39069894      -1.05297225      -0.06823587
C        2.85669002       0.30910329      -0.32393318
N        2.34082544       0.85348011       0.57218253
H       -1.18778277       1.35699958      -0.60598961
H       -2.57242996       0.33284573      -0.37873100
9
Frame=14 idx=007922 GeodesicLength=1.5718004700488348 rxn_smarts="[N:1]([C:2](=[O:3])[C:4]#[C:5][C:6]#[N:7])([H:8])[H:9]>>[N:1]([C:2]1=[O+:3][C-:5]=[C:4]1[N+:7]#[C-:6])([H:8])[H:9]"
N       -1.61373659       0.50804075      -0.24472852
C       -0.81548685      -0.41534275       0.29233584
O       -1.00819834      -1.63864770       0.27039472
C        0.60892818      -0.19876602       0.49688264
C        1.35329230      -1.04290860      -0.10963149
C        2.86790258       0.30944900      -0.31939762
N        2.42248446       0.82161954       0.62676326
H       -1.22532006       1.34967952      -0.63149423
H       -2.58986568       0.30687626      -0.38112460
9
Frame=15 idx=007922 GeodesicLength=1.6858525399334643 rxn_smarts="[N:1]([C:2](=[O:3])[C:4]#[C:5][C:6]#[N:7])([H:8])[H:9]>>[N:1]([C:2]1=[O+:3][C-:5]=[C:4]1[N+:7]#[C-:6])([H:8])[H:9]"
N       -1.63835711       0.50277360      -0.24707691
C       -0.81480793      -0.39372959       0.29487520
O       -0.98579105      -1.62295583       0.29715186
C        0.61036091      -0.16573655       0.47422269
C        1.31590157      -1.02763025      -0.15470695
C        2.88490176       0.30769469      -0.30756324
N        2.50703821       0.78074712       0.68236068
H       -1.26949964       1.34141212      -0.65893008
H       -2.60974672       0.27742468      -0.38033324
9
Frame=16 idx=007922 GeodesicLength=1.80017532343227 rxn_smarts="[N:1]([C:2](=[O:3])[C:4]#[C:5][C:6]#[N:7])([H:8])[H:9]>>[N:1]([C:2]1=[O+:3][C-:5]=[C:4]1[N+:7]#[C-:6])([H:8])[H:9]"
N       -1.66610686       0.49634798      -0.25002441
C       -0.81313967      -0.36872036       0.29511074
O       -0.95969919      -1.60318212       0.32758373
C        0.61239040      -0.12595388       0.44323053
C        1.27882934      -1.00649390      -0.20367011
C        2.90801743       0.30211412      -0.28768206
N        2.59302585       0.73015298       0.73933074
H       -1.32130145       1.33178077      -0.68858523
H       -2.63201587       0.24395442      -0.37529392
