15
Frame=0 idx=008851 GeodesicLength=0.0 rxn_smarts="[C:1]([C@@:2]1([C:3]([C:4]#[N:5])([H:11])[H:12])[C:6]([H:13])([H:14])[N:7]1[H:15])([H:8])([H:9])[H:10]>>[C:1]([C@@:2]12[C:3]([H:11])([H:12])/[C:4](=[N:5]/[H:14])[C@:6]1([H:13])[N:7]2[H:15])([H:8])([H:9])[H:10]"
C       -1.30223461       1.12431360      -0.61713624
C       -0.30384098       0.07613512      -0.23181717
C        1.13586338       0.14392318      -0.71596965
C        1.72547676      -0.54192663       0.47826081
N        2.58537559      -1.04077812       1.15795772
C       -0.16690324      -0.57603169       1.08908254
N       -0.68232729      -1.32300199      -0.07742791
H       -0.93690971       2.12423065      -0.37367219
H       -1.51455706       1.09517341      -1.68914282
H       -2.24202851       0.97332361      -0.08225593
H        1.52397296       1.16417142      -0.76331228
H        1.34696142      -0.37932904      -1.64930708
H       -0.83765618      -0.35552724       1.91713158
H        1.36292696      -1.09328113       1.58277648
H       -1.69411945      -1.39139510      -0.02516785
15
Frame=1 idx=008851 GeodesicLength=0.09381546159095096 rxn_smarts="[C:1]([C@@:2]1([C:3]([C:4]#[N:5])([H:11])[H:12])[C:6]([H:13])([H:14])[N:7]1[H:15])([H:8])([H:9])[H:10]>>[C:1]([C@@:2]12[C:3]([H:11])([H:12])/[C:4](=[N:5]/[H:14])[C@:6]1([H:13])[N:7]2[H:15])([H:8])([H:9])[H:10]"
C       -1.29807707       1.12913256      -0.60737608
C       -0.30334765       0.07278327      -0.23571506
C        1.13509235       0.13706171      -0.72453936
C        1.73297051      -0.51070334       0.48533128
N        2.58851218      -1.00991504       1.17028860
C       -0.16847501      -0.58705632       1.08229070
N       -0.68505264      -1.32593032      -0.08858798
H       -0.92781811       2.12461925      -0.35351111
H       -1.51256595       1.11161146      -1.67918068
H       -2.23795849       0.97645092      -0.07310530
H        1.51924493       1.15662535      -0.80316896
H        1.34675413      -0.41083677      -1.64342563
H       -0.84112838      -0.37201559       1.91006725
H        1.34891656      -1.10037967       1.59803075
H       -1.69706736      -1.39144749      -0.03739842
15
Frame=2 idx=008851 GeodesicLength=0.18760384250814505 rxn_smarts="[C:1]([C@@:2]1([C:3]([C:4]#[N:5])([H:11])[H:12])[C:6]([H:13])([H:14])[N:7]1[H:15])([H:8])([H:9])[H:10]>>[C:1]([C@@:2]12[C:3]([H:11])([H:12])/[C:4](=[N:5]/[H:14])[C@:6]1([H:13])[N:7]2[H:15])([H:8])([H:9])[H:10]"
C       -1.29372895       1.13388240      -0.59751614
C       -0.30291500       0.06930400      -0.23976280
C        1.13435413       0.13012299      -0.73299510
C        1.73986032      -0.47856795       0.49196697
N        2.59098085      -0.97767549       1.18257574
C       -0.16978907      -0.59834227       1.07521828
N       -0.68804301      -1.32885683      -0.09988524
H       -0.91821061       2.12469885      -0.33343660
H       -1.51048611       1.12798401      -1.66895411
H       -2.23360913       0.97973637      -0.06365164
H        1.51412442       1.14814936      -0.84311900
H        1.34715381      -0.44221200      -1.63650957
H       -0.84417259      -0.38860272       1.90278724
H        1.33474590      -1.10835516       1.61271026
H       -1.70026495      -1.39126554      -0.04942828
15
Frame=3 idx=008851 GeodesicLength=0.281443797030307 rxn_smarts="[C:1]([C@@:2]1([C:3]([C:4]#[N:5])([H:11])[H:12])[C:6]([H:13])([H:14])[N:7]1[H:15])([H:8])([H:9])[H:10]>>[C:1]([C@@:2]12[C:3]([H:11])([H:12])/[C:4](=[N:5]/[H:14])[C@:6]1([H:13])[N:7]2[H:15])([H:8])([H:9])[H:10]"
C       -1.28918333       1.13856651      -0.58756532
C       -0.30254663       0.06568937      -0.24398550
C        1.13365235       0.12311516      -0.74137375
C        1.74612533      -0.44564148       0.49804201
N        2.59269710      -0.94399038       1.19491449
C       -0.17081377      -0.60990099       1.06785941
N       -0.69132467      -1.33180193      -0.11132279
H       -0.90806279       2.12448070      -0.31345444
H       -1.50832163       1.14430870      -1.65848700
H       -2.22896859       0.98316968      -0.05388268
H        1.50865022       1.13874452      -0.88309435
H        1.34813734      -0.47336739      -1.62863621
H       -0.84674324      -0.40529211       1.89530834
H        1.32044269      -1.11720905       1.62690321
H       -1.70374036      -1.39087129      -0.06122540
15
Frame=4 idx=008851 GeodesicLength=0.3753223640565258 rxn_smarts="[C:1]([C@@:2]1([C:3]([C:4]#[N:5])([H:11])[H:12])[C:6]([H:13])([H:14])[N:7]1[H:15])([H:8])([H:9])[H:10]>>[C:1]([C@@:2]12[C:3]([H:11])([H:12])/[C:4](=[N:5]/[H:14])[C@:6]1([H:13])[N:7]2[H:15])([H:8])([H:9])[H:10]"
C       -1.28443690       1.14317490      -0.57752691
C       -0.30223705       0.06194394      -0.24839466
C        1.13299165       0.11605020      -0.74969144
C        1.75175483      -0.41198662       0.50345227
N        2.59353554      -0.90886709       1.20734649
C       -0.17151351      -0.62171280       1.06019928
N       -0.69488408      -1.33475430      -0.12289227
H       -0.89738113       2.12395527      -0.29358151
H       -1.50606836       1.16057028      -1.64777769
H       -2.22402437       0.98673392      -0.04378963
H        1.50283395       1.12840951      -0.92302535
H        1.34969601      -0.50423290      -1.61983586
H       -0.84880188      -0.42205418       1.88762015
H        1.30600969      -1.12697075       1.64064831
H       -1.70747440      -1.39025937      -0.07275119
15
Frame=5 idx=008851 GeodesicLength=0.469243702544426 rxn_smarts="[C:1]([C@@:2]1([C:3]([C:4]#[N:5])([H:11])[H:12])[C:6]([H:13])([H:14])[N:7]1[H:15])([H:8])([H:9])[H:10]>>[C:1]([C@@:2]12[C:3]([H:11])([H:12])/[C:4](=[N:5]/[H:14])[C@:6]1([H:13])[N:7]2[H:15])([H:8])([H:9])[H:10]"
C       -1.27948983       1.14769759      -0.56741060
C       -0.30197855       0.05807809      -0.25299817
C        1.13237908       0.10895056      -0.75796496
C        1.75675251      -0.37764725       0.50810462
N        2.59336325      -0.87237127       1.21988968
C       -0.17184987      -0.63375076       1.05223347
N       -0.69870132      -1.33770360      -0.13457785
H       -0.88617962       2.12311931      -0.27384239
H       -1.50372509       1.17674988      -1.63683526
H       -2.21876880       0.99040563      -0.03337152
H        1.49668987       1.11716320      -0.96284978
H        1.35181799      -0.53473022      -1.61014462
H       -0.85031055      -0.43885523       1.87972195
H        1.29144344      -1.13767211       1.65400871
H       -1.71144250      -1.38943379      -0.08396328
15
Frame=6 idx=008851 GeodesicLength=0.5632325970037757 rxn_smarts="[C:1]([C@@:2]1([C:3]([C:4]#[N:5])([H:11])[H:12])[C:6]([H:13])([H:14])[N:7]1[H:15])([H:8])([H:9])[H:10]>>[C:1]([C@@:2]12[C:3]([H:11])([H:12])/[C:4](=[N:5]/[H:14])[C@:6]1([H:13])[N:7]2[H:15])([H:8])([H:9])[H:10]"
C       -1.27434541       1.15212542      -0.55723227
C       -0.30176018       0.05410821      -0.25779860
C        1.13182359       0.10184795      -0.76620871
C        1.76113418      -0.34264542       0.51191738
N        2.59204106      -0.83461707       1.23253197
C       -0.17178267      -0.64597955       1.04396918
N       -0.70274567      -1.34064032      -0.14635540
H       -0.87448345       2.12197785      -0.25426974
H       -1.50129064       1.19282322      -1.62567961
H       -2.21319803       0.99415767      -0.02263544
H        1.49023185       1.10504086      -1.00251248
H        1.35448954      -0.56477635      -1.59959870
H       -0.85123372      -0.45565310       1.87162423
H        1.27672801      -1.14936253       1.66706282
H       -1.71560845      -1.38840683      -0.09481463
15
Frame=7 idx=008851 GeodesicLength=0.6573457182206226 rxn_smarts="[C:1]([C@@:2]1([C:3]([C:4]#[N:5])([H:11])[H:12])[C:6]([H:13])([H:14])[N:7]1[H:15])([H:8])([H:9])[H:10]>>[C:1]([C@@:2]12[C:3]([H:11])([H:12])/[C:4](=[N:5]/[H:14])[C@:6]1([H:13])[N:7]2[H:15])([H:8])([H:9])[H:10]"
C       -1.26901441       1.15646342      -0.54701593
C       -0.30156809       0.05005440      -0.26279687
C        1.13133634       0.09477736      -0.77444222
C        1.76492282      -0.30698794       0.51481903
N        2.58942690      -0.79574720       1.24524598
C       -0.17126742      -0.65836593       1.03543267
N       -0.70697132      -1.34357012      -0.15819717
H       -0.86233490       2.12056390      -0.23489798
H       -1.49876878       1.20877946      -1.61435322
H       -2.20731667       0.99797298      -0.01159460
H        1.48347194       1.09209170      -1.04197932
H        1.35769939      -0.59429544      -1.58824391
H       -0.85153649      -0.47240572       1.86336379
H        1.26184131      -1.16212056       1.67991880
H       -1.71992063      -1.38721030      -0.10525905
15
Frame=8 idx=008851 GeodesicLength=0.751049879689438 rxn_smarts="[C:1]([C@@:2]1([C:3]([C:4]#[N:5])([H:11])[H:12])[C:6]([H:13])([H:14])[N:7]1[H:15])([H:8])([H:9])[H:10]>>[C:1]([C@@:2]12[C:3]([H:11])([H:12])/[C:4](=[N:5]/[H:14])[C@:6]1([H:13])[N:7]2[H:15])([H:8])([H:9])[H:10]"
C       -1.26350627       1.16062179      -0.53675304
C       -0.30138582       0.04594626      -0.26797623
C        1.13093390       0.08778140      -0.78264101
C        1.76815382      -0.27077804       0.51672832
N        2.58535855      -0.75608609       1.25798894
C       -0.17025708      -0.67079700       1.02655881
N       -0.71134067      -1.34637774      -0.17005503
H       -0.84977684       2.11875023      -0.21575833
H       -1.49615915       1.22449616      -1.60278097
H       -2.20113355       1.00174211      -0.00027735
H        1.47644439       1.07836725      -1.08109747
H        1.36142002      -0.62314318      -1.57610737
H       -0.85117688      -0.48899365       1.85481099
H        1.24676334      -1.17576859       1.69258936
H       -1.72433778      -1.38576090      -0.11522960
15
Frame=9 idx=008851 GeodesicLength=0.8449791285710526 rxn_smarts="[C:1]([C@@:2]1([C:3]([C:4]#[N:5])([H:11])[H:12])[C:6]([H:13])([H:14])[N:7]1[H:15])([H:8])([H:9])[H:10]>>[C:1]([C@@:2]12[C:3]([H:11])([H:12])/[C:4](=[N:5]/[H:14])[C@:6]1([H:13])[N:7]2[H:15])([H:8])([H:9])[H:10]"
C       -1.25783893       1.16464130      -0.52654166
C       -0.30119390       0.04182536      -0.27330711
C        1.13063677       0.08095896      -0.79080378
C        1.77092579      -0.23400785       0.51758059
N        2.57982071      -0.71585791       1.27055969
C       -0.16872284      -0.68325052       1.01749001
N       -0.71581610      -1.34913593      -0.18184125
H       -0.83687246       2.11669078      -0.19700758
H       -1.49346745       1.23993946      -1.59113298
H       -2.19466949       1.00546582       0.01124449
H        1.46915624       1.06403074      -1.11977264
H        1.36563972      -0.65114997      -1.56326904
H       -0.85013095      -0.50536169       1.84614712
H        1.23135712      -1.19059806       1.70527619
H       -1.72882424      -1.38419050      -0.12462205
15
Frame=10 idx=008851 GeodesicLength=0.9389090281171294 rxn_smarts="[C:1]([C@@:2]1([C:3]([C:4]#[N:5])([H:11])[H:12])[C:6]([H:13])([H:14])[N:7]1[H:15])([H:8])([H:9])[H:10]>>[C:1]([C@@:2]12[C:3]([H:11])([H:12])/[C:4](=[N:5]/[H:14])[C@:6]1([H:13])[N:7]2[H:15])([H:8])([H:9])[H:10]"
C       -1.25203243       1.16847374      -0.51638197
C       -0.30094183       0.03773856      -0.27879035
C        1.13042331       0.07439030      -0.79903496
C        1.77327721      -0.19675916       0.51736180
N        2.57260900      -0.67547235       1.28314210
C       -0.16658138      -0.69558186       1.00820912
N       -0.72021784      -1.35176395      -0.19353773
H       -0.82377032       2.11434673      -0.17864762
H       -1.49068349       1.25501349      -1.57941934
H       -2.18791508       1.00907299       0.02297815
H        1.46159592       1.04926599      -1.15807033
H        1.37017197      -0.67823483      -1.55002956
H       -0.84836547      -0.52134606       1.83733830
H        1.21557899      -1.20669608       1.71826643
H       -1.73314858      -1.38244752      -0.13338403
15
Frame=11 idx=008851 GeodesicLength=1.0329687369860243 rxn_smarts="[C:1]([C@@:2]1([C:3]([C:4]#[N:5])([H:11])[H:12])[C:6]([H:13])([H:14])[N:7]1[H:15])([H:8])([H:9])[H:10]>>[C:1]([C@@:2]12[C:3]([H:11])([H:12])/[C:4](=[N:5]/[H:14])[C@:6]1([H:13])[N:7]2[H:15])([H:8])([H:9])[H:10]"
C       -1.24607540       1.17211329      -0.50626752
C       -0.30062247       0.03368787      -0.28433990
C        1.13037933       0.06801517      -0.80712677
C        1.77522627      -0.15884358       0.51588409
N        2.56358103      -0.63462986       1.29517391
C       -0.16385055      -0.70780480       0.99875502
N       -0.72460718      -1.35423146      -0.20505973
H       -0.81040241       2.11169399      -0.16070279
H       -1.48779429       1.26970847      -1.56758186
H       -2.18089895       1.01256782       0.03486151
H        1.45385478       1.03374452      -1.19579396
H        1.37526348      -0.70431571      -1.53587867
H       -0.84589767      -0.53696153       1.82838350
H        1.19926295      -1.22421392       1.73118702
H       -1.73741891      -1.38053025      -0.14149384
15
Frame=12 idx=008851 GeodesicLength=1.1271906293252363 rxn_smarts="[C:1]([C@@:2]1([C:3]([C:4]#[N:5])([H:11])[H:12])[C:6]([H:13])([H:14])[N:7]1[H:15])([H:8])([H:9])[H:10]>>[C:1]([C@@:2]12[C:3]([H:11])([H:12])/[C:4](=[N:5]/[H:14])[C@:6]1([H:13])[N:7]2[H:15])([H:8])([H:9])[H:10]"
C       -1.24001701       1.17565473      -0.49627717
C       -0.30021916       0.02971443      -0.29000247
C        1.13045447       0.06193781      -0.81528173
C        1.77692602      -0.12041180       0.51322578
N        2.55277363      -0.59374745       1.30708000
C       -0.16043139      -0.71990793       0.98922756
N       -0.72888604      -1.35666558      -0.21641112
H       -0.79687355       2.10896486      -0.14322735
H       -1.48489611       1.28409649      -1.55582445
H       -2.17363174       1.01597913       0.04688633
H        1.44585843       1.01787350      -1.23313043
H        1.38070005      -0.72940045      -1.52132947
H       -0.84263753      -0.55218259       1.81943366
H        1.18239519      -1.24329140       1.74456597
H       -1.74151527      -1.37861375      -0.14893512
15
Frame=13 idx=008851 GeodesicLength=1.2212365894615205 rxn_smarts="[C:1]([C@@:2]1([C:3]([C:4]#[N:5])([H:11])[H:12])[C:6]([H:13])([H:14])[N:7]1[H:15])([H:8])([H:9])[H:10]>>[C:1]([C@@:2]12[C:3]([H:11])([H:12])/[C:4](=[N:5]/[H:14])[C@:6]1([H:13])[N:7]2[H:15])([H:8])([H:9])[H:10]"
C       -1.23382848       1.17892717      -0.48635322
C       -0.29968104       0.02585452      -0.29572530
C        1.13067952       0.05621215      -0.82349291
C        1.77847047      -0.08163002       0.50925291
N        2.54007176      -0.55309327       1.31870430
C       -0.15633107      -0.73170772       0.97953715
N       -0.73295832      -1.35886023      -0.22749349
H       -0.78322562       2.10589998      -0.12624713
H       -1.48191134       1.29794673      -1.54396141
H       -2.16609723       1.01912690       0.05906671
H        1.43765910       1.00172506      -1.26992365
H        1.38643596      -0.75330478      -1.50649672
H       -0.83866499      -0.56682733       1.81026937
H        1.16470744      -1.26374020       1.75846209
H       -1.74532616      -1.37652897      -0.15559870
15
Frame=14 idx=008851 GeodesicLength=1.3154765430703144 rxn_smarts="[C:1]([C@@:2]1([C:3]([C:4]#[N:5])([H:11])[H:12])[C:6]([H:13])([H:14])[N:7]1[H:15])([H:8])([H:9])[H:10]>>[C:1]([C@@:2]12[C:3]([H:11])([H:12])/[C:4](=[N:5]/[H:14])[C@:6]1([H:13])[N:7]2[H:15])([H:8])([H:9])[H:10]"
C       -1.22748119       1.18202860      -0.47647412
C       -0.29898652       0.02209092      -0.30146645
C        1.13108259       0.05077220      -0.83170503
C        1.77984059      -0.04222168       0.50385928
N        2.52524446      -0.51223485       1.32982031
C       -0.15151927      -0.74330422       0.96977095
N       -0.73681140      -1.36090885      -0.23831805
H       -0.76939763       2.10263067      -0.10965985
H       -1.47881150       1.31142088      -1.53202836
H       -2.15827197       1.02211005       0.07140473
H        1.42925795       0.98502055      -1.30632961
H        1.39258289      -0.77610969      -1.49109213
H       -0.83396525      -0.58100690       1.80102136
H        1.14608064      -1.28592043       1.77274767
H       -1.74884439      -1.37436723      -0.16155071
15
Frame=15 idx=008851 GeodesicLength=1.4099302239963576 rxn_smarts="[C:1]([C@@:2]1([C:3]([C:4]#[N:5])([H:11])[H:12])[C:6]([H:13])([H:14])[N:7]1[H:15])([H:8])([H:9])[H:10]>>[C:1]([C@@:2]12[C:3]([H:11])([H:12])/[C:4](=[N:5]/[H:14])[C@:6]1([H:13])[N:7]2[H:15])([H:8])([H:9])[H:10]"
C       -1.22101585       1.18503920      -0.46669907
C       -0.29811380       0.01845747      -0.30724225
C        1.13163975       0.04569388      -0.84006036
C        1.78121859      -0.00233810       0.49708456
N        2.50838267      -0.47147777       1.34063794
C       -0.14592311      -0.75470352       0.96002649
N       -0.74036280      -1.36292321      -0.24887280
H       -0.75547206       2.09935130      -0.09351258
H       -1.47568260       1.32457539      -1.52018066
H       -2.15017700       1.02495099       0.08388710
H        1.42059975       0.96806993      -1.34244875
H        1.39900699      -0.79781566      -1.47550994
H       -0.82849100      -0.59469754       1.79180619
H        1.12637206      -1.30989285       1.78787017
H       -1.75198158      -1.37228951      -0.16678604
15
Frame=16 idx=008851 GeodesicLength=1.5042630808179895 rxn_smarts="[C:1]([C@@:2]1([C:3]([C:4]#[N:5])([H:11])[H:12])[C:6]([H:13])([H:14])[N:7]1[H:15])([H:8])([H:9])[H:10]>>[C:1]([C@@:2]12[C:3]([H:11])([H:12])/[C:4](=[N:5]/[H:14])[C@:6]1([H:13])[N:7]2[H:15])([H:8])([H:9])[H:10]"
C       -1.21438755       1.18773014      -0.45694209
C       -0.29700451       0.01497341      -0.31294182
C        1.13239963       0.04100836      -0.84842368
C        1.78270020       0.03786768       0.48875998
N        2.48943352      -0.43099088       1.35067549
C       -0.13956749      -0.76571659       0.95018939
N       -0.74353977      -1.36463698      -0.25904286
H       -0.74145714       2.09569728      -0.07780288
H       -1.47242582       1.33711497      -1.50814898
H       -2.14179731       1.02743299       0.09648428
H        1.41176190       0.95079442      -1.37796345
H        1.40570138      -0.81817395      -1.45966122
H       -0.82234782      -0.60768907       1.78231438
H        1.10519185      -1.33535389       1.80373419
H       -1.75466107      -1.37005790      -0.17123074
