12
Frame=0 idx=002853 GeodesicLength=0.0 rxn_smarts="[O:1]([C@@:2]1([H:8])[C@:3]([O:4][H:10])([H:9])[C@:5]1([O:6][H:12])[H:11])[H:7]>>[O:1]([C:2][C@@:3]([O:4][H:10])([C:5]([O:6][H:12])([H:8])[H:11])[H:9])[H:7]"
O       -1.59010138      -0.31703201      -0.81948890
C       -0.44045413       0.24951798      -1.25737287
C        0.27906319       0.93953938      -0.08176269
O       -0.54234346       1.18927883       1.02336335
C        0.92861142      -0.41024318      -0.08686588
O        0.48626811      -1.28182506       0.88952275
H       -1.83636005       0.12278963       0.01673617
H        0.46678945      -0.67066890      -1.33349741
H        0.88929743       1.79780160      -0.34320788
H       -0.29227885       0.56813713       1.71772478
H        1.98674310      -0.49401637      -0.31289463
H       -0.33523486      -1.69327902       0.58774316
12
Frame=1 idx=002853 GeodesicLength=0.049988663718951505 rxn_smarts="[O:1]([C@@:2]1([H:8])[C@:3]([O:4][H:10])([H:9])[C@:5]1([O:6][H:12])[H:11])[H:7]>>[O:1]([C:2][C@@:3]([O:4][H:10])([C:5]([O:6][H:12])([H:8])[H:11])[H:9])[H:7]"
O       -1.60233703      -0.30779202      -0.81693402
C       -0.44483119       0.24238261      -1.25070277
C        0.27746364       0.93625661      -0.08211217
O       -0.53840262       1.18995768       1.02618869
C        0.92950989      -0.41301982      -0.08857433
O        0.48874716      -1.28628039       0.88889212
H       -1.84747039       0.13829130       0.01649913
H        0.48127332      -0.67384970      -1.34735662
H        0.88444923       1.79397001      -0.35350728
H       -0.29060897       0.56537665       1.71827066
H        1.99232877      -0.48412652      -0.29616574
H       -0.33012180      -1.70116641       0.58550233
12
Frame=2 idx=002853 GeodesicLength=0.09996208519877817 rxn_smarts="[O:1]([C@@:2]1([H:8])[C@:3]([O:4][H:10])([H:9])[C@:5]1([O:6][H:12])[H:11])[H:7]>>[O:1]([C:2][C@@:3]([O:4][H:10])([C:5]([O:6][H:12])([H:8])[H:11])[H:9])[H:7]"
O       -1.61471784      -0.29835520      -0.81423996
C       -0.44929920       0.23475936      -1.24385830
C        0.27579141       0.93284955      -0.08251804
O       -0.53437905       1.19057941       1.02900558
C        0.93050574      -0.41586633      -0.09028469
O        0.49130001      -1.29080533       0.88826842
H       -1.85858963       0.15432471       0.01619791
H        0.49625967      -0.67655287      -1.36135162
H        0.87932541       1.78997653      -0.36402413
H       -0.28893127       0.56254387       1.71878962
H        1.99758197      -0.47423837      -0.27921676
H       -0.32484723      -1.70921534       0.58323198
12
Frame=3 idx=002853 GeodesicLength=0.14990412373926526 rxn_smarts="[O:1]([C@@:2]1([H:8])[C@:3]([O:4][H:10])([H:9])[C@:5]1([O:6][H:12])[H:11])[H:7]>>[O:1]([C:2][C@@:3]([O:4][H:10])([C:5]([O:6][H:12])([H:8])[H:11])[H:9])[H:7]"
O       -1.62723161      -0.28871530      -0.81142088
C       -0.45385951       0.22663959      -1.23682692
C        0.27404465       0.92931369      -0.08297742
O       -0.53028051       1.19114127       1.03180889
C        0.93160295      -0.41878336      -0.09199280
O        0.49393828      -1.29539618       0.88766330
H       -1.86969880       0.17089088       0.01581276
H        0.51173677      -0.67875001      -1.37546615
H        0.87392290       1.78581155      -0.37474627
H       -0.28725808       0.55964028       1.71928067
H        2.00248654      -0.46437270      -0.26209197
H       -0.31940357      -1.71741970       0.58095680
12
Frame=4 idx=002853 GeodesicLength=0.1998111047502552 rxn_smarts="[O:1]([C@@:2]1([H:8])[C@:3]([O:4][H:10])([H:9])[C@:5]1([O:6][H:12])[H:11])[H:7]>>[O:1]([C:2][C@@:3]([O:4][H:10])([C:5]([O:6][H:12])([H:8])[H:11])[H:9])[H:7]"
O       -1.63986262      -0.27886590      -0.80849442
C       -0.45851532       0.21802020      -1.22959541
C        0.27222188       0.92564542      -0.08348645
O       -0.52611597       1.19164078       1.03459413
C        0.93280435      -0.42177223      -0.09369402
O        0.49667313      -1.30005010       0.88708993
H       -1.88077518       0.18798600       0.01532232
H        0.52768906      -0.68041695      -1.38968399
H        0.86823959       1.78146752      -0.38566016
H       -0.28560185       0.55666852       1.71974397
H        2.00702833      -0.45454970      -0.24484050
H       -0.31378541      -1.72577356       0.57870460
12
Frame=5 idx=002853 GeodesicLength=0.24973143045744897 rxn_smarts="[O:1]([C@@:2]1([H:8])[C@:3]([O:4][H:10])([H:9])[C@:5]1([O:6][H:12])[H:11])[H:7]>>[O:1]([C:2][C@@:3]([O:4][H:10])([C:5]([O:6][H:12])([H:8])[H:11])[H:9])[H:7]"
O       -1.65259336      -0.26880043      -0.80548219
C       -0.46327675       0.20891004      -1.22214770
C        0.27032069       0.92184642      -0.08404074
O       -0.52189910       1.19208094       1.03736178
C        0.93411388      -0.42483901      -0.09538459
O        0.49951526      -1.30477223       0.88656635
H       -1.89179149       0.20559927       0.01470170
H        0.54410509      -0.68153511      -1.40400055
H        0.86227377       1.77694829      -0.39675520
H       -0.28397845       0.55363491       1.72018592
H        2.01120319      -0.44479557      -0.22751835
H       -0.30799271      -1.73427752       0.57651357
12
Frame=6 idx=002853 GeodesicLength=0.2995094346270592 rxn_smarts="[O:1]([C@@:2]1([H:8])[C@:3]([O:4][H:10])([H:9])[C@:5]1([O:6][H:12])[H:11])[H:7]>>[O:1]([C:2][C@@:3]([O:4][H:10])([C:5]([O:6][H:12])([H:8])[H:11])[H:9])[H:7]"
O       -1.66542160      -0.25850514      -0.80240407
C       -0.46811929       0.19928462      -1.21447465
C        0.26834538       0.91790155      -0.08463341
O       -0.51763096       1.19244170       1.04009533
C        0.93552009      -0.42796502      -0.09707287
O        0.50248977      -1.30952495       0.88608311
H       -1.90275234       0.22373824       0.01393111
H        0.56090966      -0.68209953      -1.41835661
H        0.85603802       1.77221297      -0.40799703
H       -0.28239346       0.55052730       1.72059067
H        2.01500282      -0.43510898      -0.21014406
H       -0.30198809      -1.74290276       0.57438250
12
Frame=7 idx=002853 GeodesicLength=0.34928381251777074 rxn_smarts="[O:1]([C@@:2]1([H:8])[C@:3]([O:4][H:10])([H:9])[C@:5]1([O:6][H:12])[H:11])[H:7]>>[O:1]([C:2][C@@:3]([O:4][H:10])([C:5]([O:6][H:12])([H:8])[H:11])[H:9])[H:7]"
O       -1.67833213      -0.24796913      -0.79928981
C       -0.47306457       0.18916717      -1.20656137
C        0.26629316       0.91381711      -0.08526168
O       -0.51333100       1.19273229       1.04280975
C        0.93703771      -0.43116952      -0.09875198
O        0.50560955      -1.31433314       0.88567368
H       -1.91363286       0.24239673       0.01297518
H        0.57810817      -0.68209018      -1.43277027
H        0.84952213       1.76728238      -0.41939385
H       -0.28086453       0.54735447       1.72098504
H        2.01843195      -0.42552115      -0.19278183
H       -0.29577758      -1.75166702       0.57236713
12
Frame=8 idx=002853 GeodesicLength=0.398996889995624 rxn_smarts="[O:1]([C@@:2]1([H:8])[C@:3]([O:4][H:10])([H:9])[C@:5]1([O:6][H:12])[H:11])[H:7]>>[O:1]([C:2][C@@:3]([O:4][H:10])([C:5]([O:6][H:12])([H:8])[H:11])[H:9])[H:7]"
O       -1.69128213      -0.23717342      -0.79615297
C       -0.47811848       0.17856753      -1.19839069
C        0.26415844       0.90958919      -0.08591760
O       -0.50900710       1.19293560       1.04548691
C        0.93864956      -0.43444881      -0.10041761
O        0.50887500      -1.31918768       0.88534978
H       -1.92436707       0.26157020       0.01181556
H        0.59563376      -0.68150328      -1.44720860
H        0.84271744       1.76214978      -0.43092898
H       -0.27940994       0.54409742       1.72133766
H        2.02150782      -0.41602837      -0.17547185
H       -0.28935729      -1.76056815       0.57049839
12
Frame=9 idx=002853 GeodesicLength=0.44869077231382076 rxn_smarts="[O:1]([C@@:2]1([H:8])[C@:3]([O:4][H:10])([H:9])[C@:5]1([O:6][H:12])[H:11])[H:7]>>[O:1]([C:2][C@@:3]([O:4][H:10])([C:5]([O:6][H:12])([H:8])[H:11])[H:9])[H:7]"
O       -1.70423746      -0.22612895      -0.79301574
C       -0.48329526       0.16747452      -1.18994349
C        0.26194018       0.90520897      -0.08659020
O       -0.50465612       1.19306215       1.04814335
C        0.94037205      -0.43781612      -0.10205701
O        0.51228983      -1.32411083       0.88512586
H       -1.93493332       0.28126823       0.01041386
H        0.61349229      -0.68029887      -1.46166652
H        0.83559522       1.75680853      -0.44260843
H       -0.27802162       0.54078615       1.72167540
H        2.02419977      -0.40663575      -0.15826655
H       -0.28274556      -1.76961804       0.56878946
12
Frame=10 idx=002853 GeodesicLength=0.4982649642766587 rxn_smarts="[O:1]([C@@:2]1([H:8])[C@:3]([O:4][H:10])([H:9])[C@:5]1([O:6][H:12])[H:11])[H:7]>>[O:1]([C:2][C@@:3]([O:4][H:10])([C:5]([O:6][H:12])([H:8])[H:11])[H:9])[H:7]"
O       -1.71723714      -0.21480192      -0.78991899
C       -0.48855221       0.15588248      -1.18119881
C        0.25965255       0.90066907      -0.08727534
O       -0.50029118       1.19308542       1.05077322
C        0.94218628      -0.44124859      -0.10370332
O        0.51591771      -1.32903578       0.88498626
H       -1.94538366       0.30152314       0.00871969
H        0.63156090      -0.67853431      -1.47609971
H        0.82818473       1.75122098      -0.45438262
H       -0.27671275       0.53738217       1.72199978
H        2.02650677      -0.39735951      -0.14115096
H       -0.27583200      -1.77878314       0.56725078
12
Frame=11 idx=002853 GeodesicLength=0.5478359012418418 rxn_smarts="[O:1]([C@@:2]1([H:8])[C@:3]([O:4][H:10])([H:9])[C@:5]1([O:6][H:12])[H:11])[H:7]>>[O:1]([C:2][C@@:3]([O:4][H:10])([C:5]([O:6][H:12])([H:8])[H:11])[H:9])[H:7]"
O       -1.73021510      -0.20319779      -0.78688326
C       -0.49394247       0.14383566      -1.17214010
C        0.25728406       0.89597685      -0.08796215
O       -0.49592433       1.19301196       1.05338281
C        0.94410309      -0.44476683      -0.10533374
O        0.51974464      -1.33400915       0.88497100
H       -1.95563695       0.32230741       0.00670353
H        0.64983821      -0.67617637      -1.49051161
H        0.82046480       1.74542025      -0.46626771
H       -0.27549880       0.53389953       1.72231395
H        2.02845609      -0.38820876      -0.12420988
H       -0.26867324      -1.78809276       0.56593716
12
Frame=12 idx=002853 GeodesicLength=0.5973625832437172 rxn_smarts="[O:1]([C@@:2]1([H:8])[C@:3]([O:4][H:10])([H:9])[C@:5]1([O:6][H:12])[H:11])[H:7]>>[O:1]([C:2][C@@:3]([O:4][H:10])([C:5]([O:6][H:12])([H:8])[H:11])[H:9])[H:7]"
O       -1.74315885      -0.19129729      -0.78393238
C       -0.49945765       0.13132244      -1.16274786
C        0.25483723       0.89112357      -0.08864043
O       -0.49156157       1.19283078       1.05597697
C        0.94611604      -0.44836708      -0.10695249
O        0.52379335      -1.33901823       0.88508640
H       -1.96568293       0.34365368       0.00432364
H        0.66826526      -0.67323374      -1.50487624
H        0.81242535       1.73938575      -0.47825009
H       -0.27439201       0.53032476       1.72262372
H        2.03004960      -0.37917587      -0.10747394
H       -0.26123380      -1.79754876       0.56486271
12
Frame=13 idx=002853 GeodesicLength=0.6468790798877192 rxn_smarts="[O:1]([C@@:2]1([H:8])[C@:3]([O:4][H:10])([H:9])[C@:5]1([O:6][H:12])[H:11])[H:7]>>[O:1]([C:2][C@@:3]([O:4][H:10])([C:5]([O:6][H:12])([H:8])[H:11])[H:9])[H:7]"
O       -1.75604815      -0.17908647      -0.78108906
C       -0.50510962       0.11834954      -1.15299322
C        0.25231071       0.88610441      -0.08929839
O       -0.48721009       1.19253379       1.05856388
C        0.94822315      -0.45205164      -0.10856322
O        0.52808488      -1.34405887       0.88534506
H       -1.97549980       0.36559330       0.00152900
H        0.68678419      -0.66972344      -1.51919205
H        0.80405316       1.73310745      -0.49031959
H       -0.27340623       0.52664740       1.72293632
H        2.03130505      -0.37025218      -0.09096780
H       -0.25348725      -1.80716330       0.56404908
12
Frame=14 idx=002853 GeodesicLength=0.696345747154722 rxn_smarts="[O:1]([C@@:2]1([H:8])[C@:3]([O:4][H:10])([H:9])[C@:5]1([O:6][H:12])[H:11])[H:7]>>[O:1]([C:2][C@@:3]([O:4][H:10])([C:5]([O:6][H:12])([H:8])[H:11])[H:9])[H:7]"
O       -1.76885679      -0.16655043      -0.77838196
C       -0.51090720       0.10493151      -1.14284799
C        0.24970450       0.88091683      -0.08992607
O       -0.48287531       1.19210743       1.06114681
C        0.95041666      -0.45582067      -0.11016704
O        0.53264773      -1.34912931       0.88575362
H       -1.98505391       0.38814897      -0.00173618
H        0.70533045      -0.66564832      -1.53341938
H        0.79533035       1.72658477      -0.50247189
H       -0.27254808       0.52285028       1.72324987
H        2.03220671      -0.36144859      -0.07472025
H       -0.24539510      -1.81694247       0.56352046
12
Frame=15 idx=002853 GeodesicLength=0.7458213239879738 rxn_smarts="[O:1]([C@@:2]1([H:8])[C@:3]([O:4][H:10])([H:9])[C@:5]1([O:6][H:12])[H:11])[H:7]>>[O:1]([C:2][C@@:3]([O:4][H:10])([C:5]([O:6][H:12])([H:8])[H:11])[H:9])[H:7]"
O       -1.78156444      -0.15367329      -0.77583536
C       -0.51685882       0.09107193      -1.13227999
C        0.24701687       0.87555435      -0.09050734
O       -0.47857161       1.19154763       1.06373989
C        0.95269541      -0.45967648      -0.11176731
O        0.53749760      -1.35422217       0.88632703
H       -1.99432315       0.41134640      -0.00551915
H        0.72385433      -0.66103306      -1.54757768
H        0.78624351       1.71980202      -0.51468741
H       -0.27183772       0.51893187       1.72357993
H        2.03278531      -0.35275340      -0.05876977
H       -0.23693730      -1.82689579       0.56329716
12
Frame=16 idx=002853 GeodesicLength=0.7952782827299282 rxn_smarts="[O:1]([C@@:2]1([H:8])[C@:3]([O:4][H:10])([H:9])[C@:5]1([O:6][H:12])[H:11])[H:7]>>[O:1]([C:2][C@@:3]([O:4][H:10])([C:5]([O:6][H:12])([H:8])[H:11])[H:9])[H:7]"
O       -1.79414075      -0.14044436      -0.77349767
C       -0.52297763       0.07680814      -1.12127242
C        0.24425055       0.87002644      -0.09103147
O       -0.47431385       1.19084693       1.06634333
C        0.95504582      -0.46361245      -0.11336724
O        0.54264480      -1.35932432       0.88707469
H       -2.00326335       0.43513277      -0.00984296
H        0.74229180      -0.65589630      -1.56164208
H        0.77680345       1.71276864      -0.52693831
H       -0.27127782       0.51489441       1.72393118
H        2.03304184      -0.34418755      -0.04316222
H       -0.22810485      -1.83701235       0.56340517
