16
Frame=0 idx=003249 GeodesicLength=0.0 rxn_smarts="[C:1]([C@@:2]1([H:10])[C:3]([H:11])([H:12])[C:4]([H:13])([H:14])[O:5][C:6]1([H:15])[H:16])([H:7])([H:8])[H:9]>>[C:1]([C@@:2]([C:3](=[C:4]([H:13])[H:14])[H:11])([C:6]([O:5][H:12])([H:15])[H:16])[H:10])([H:7])([H:8])[H:9]"
C        1.89177147       0.26539474      -0.06200169
C        0.40319627       0.51634790       0.12105083
C       -0.43118664       0.13348195      -1.07141327
C       -1.78960722       0.08427714      -0.70186768
O       -1.20876178      -1.23469631       0.60970137
C       -0.25466684      -0.41091926       1.23633051
H        2.30141685       0.88522267      -0.86251239
H        2.44651452       0.49060611       0.85107761
H        2.07867227      -0.78111874      -0.31814576
H        0.24473791       1.56040811       0.40865528
H       -0.09367181       0.12349555      -2.09847679
H       -0.64196130      -1.10519074      -0.55475518
H       -2.51750668      -0.36805981      -1.36855691
H       -2.21773202       0.69311762       0.09034256
H       -0.72462463       0.18631396       2.02324892
H        0.51340965      -1.03868083       1.69732264
16
Frame=1 idx=003249 GeodesicLength=0.05729241909334561 rxn_smarts="[C:1]([C@@:2]1([H:10])[C:3]([H:11])([H:12])[C:4]([H:13])([H:14])[O:5][C:6]1([H:15])[H:16])([H:7])([H:8])[H:9]>>[C:1]([C@@:2]([C:3](=[C:4]([H:13])[H:14])[H:11])([C:6]([O:5][H:12])([H:15])[H:16])[H:10])([H:7])([H:8])[H:9]"
C        1.89096441       0.26017095      -0.06311756
C        0.40327250       0.51414364       0.12333179
C       -0.43248598       0.13247686      -1.07020817
C       -1.79205151       0.07989428      -0.70181662
O       -1.20218512      -1.23864343       0.61618924
C       -0.25236377      -0.40632728       1.23969729
H        2.29956732       0.87736096      -0.86615460
H        2.44811091       0.48711933       0.84807547
H        2.07592924      -0.78719454      -0.31682144
H        0.24757842       1.55969423       0.40693186
H       -0.09873199       0.16035038      -2.09821152
H       -0.63024430      -1.12423689      -0.55869335
H       -2.51686830      -0.36835453      -1.37480042
H       -2.22772246       0.69111810       0.08427539
H       -0.72635183       0.19306801       2.02255902
H        0.51358244      -1.03064006       1.70876364
16
Frame=2 idx=003249 GeodesicLength=0.11458209669455074 rxn_smarts="[C:1]([C@@:2]1([H:10])[C:3]([H:11])([H:12])[C:4]([H:13])([H:14])[O:5][C:6]1([H:15])[H:16])([H:7])([H:8])[H:9]>>[C:1]([C@@:2]([C:3](=[C:4]([H:13])[H:14])[H:11])([C:6]([O:5][H:12])([H:15])[H:16])[H:10])([H:7])([H:8])[H:9]"
C        1.89014731       0.25492800      -0.06426888
C        0.40334055       0.51190132       0.12551834
C       -0.43373899       0.13125370      -1.06913958
C       -1.79447677       0.07557916      -0.70183322
O       -1.19554271      -1.24257973       0.62260273
C       -0.25007249      -0.40174602       1.24299244
H        2.29767813       0.86941010      -0.86988316
H        2.44966542       0.48369007       0.84502446
H        2.07323356      -0.79329359      -0.31543146
H        0.25040314       1.55892905       0.40506971
H       -0.10419473       0.19743134      -2.09683191
H       -0.61817216      -1.14349494      -0.56258069
H       -2.51620258      -0.36846532      -1.38111008
H       -2.23767477       0.68917322       0.07803579
H       -0.72812635       0.19979859       2.02173503
H        0.51373345      -1.02251494       1.72010048
16
Frame=3 idx=003249 GeodesicLength=0.17186708400047615 rxn_smarts="[C:1]([C@@:2]1([H:10])[C:3]([H:11])([H:12])[C:4]([H:13])([H:14])[O:5][C:6]1([H:15])[H:16])([H:7])([H:8])[H:9]>>[C:1]([C@@:2]([C:3](=[C:4]([H:13])[H:14])[H:11])([C:6]([O:5][H:12])([H:15])[H:16])[H:10])([H:7])([H:8])[H:9]"
C        1.88931930       0.24967750      -0.06545562
C        0.40339818       0.50962685       0.12761176
C       -0.43494797       0.12983794      -1.06821442
C       -1.79688691       0.07135467      -0.70191663
O       -1.18883762      -1.24650218       0.62892655
C       -0.24779371      -0.39718071       1.24620761
H        2.29574350       0.86138286      -0.87369810
H        2.45117650       0.48032955       0.84192480
H        2.07059001      -0.79940257      -0.31397710
H        0.25321037       1.55811439       0.40308423
H       -0.11005245       0.23461027      -2.09430742
H       -0.60573267      -1.16295474      -0.56642470
H       -2.51551487      -0.36836642      -1.38748248
H       -2.24758749       0.68730027       0.07162987
H       -0.72994603       0.20649042       2.02077668
H        0.51386187      -1.01431810       1.73131496
16
Frame=4 idx=003249 GeodesicLength=0.22914798508924883 rxn_smarts="[C:1]([C@@:2]1([H:10])[C:3]([H:11])([H:12])[C:4]([H:13])([H:14])[O:5][C:6]1([H:15])[H:16])([H:7])([H:8])[H:9]>>[C:1]([C@@:2]([C:3](=[C:4]([H:13])[H:14])[H:11])([C:6]([O:5][H:12])([H:15])[H:16])[H:10])([H:7])([H:8])[H:9]"
C        1.88847919       0.24443337      -0.06667741
C        0.40344303       0.50732794       0.12961517
C       -0.43611735       0.12826296      -1.06743763
C       -1.79928722       0.06724712      -0.70206437
O       -1.18207239      -1.25040798       0.63514293
C       -0.24552805      -0.39263742       1.24933441
H        2.29375690       0.85329663      -0.87759763
H        2.45264260       0.47704890       0.83877717
H        2.06800265      -0.80550537      -0.31246188
H        0.25599869       1.55725337       0.40099546
H       -0.11629055       0.27173218      -2.09061801
H       -0.59291376      -1.18260312      -0.57023476
H       -2.51481225      -0.36802733      -1.39391326
H       -2.25745994       0.68551763       0.06506684
H       -0.73180862       0.21312553       2.01968541
H        0.51396707      -1.00606442       1.74238754
16
Frame=5 idx=003249 GeodesicLength=0.28642585897242673 rxn_smarts="[C:1]([C@@:2]1([H:10])[C:3]([H:11])([H:12])[C:4]([H:13])([H:14])[O:5][C:6]1([H:15])[H:16])([H:7])([H:8])[H:9]>>[C:1]([C@@:2]([C:3](=[C:4]([H:13])[H:14])[H:11])([C:6]([O:5][H:12])([H:15])[H:16])[H:10])([H:7])([H:8])[H:9]"
C        1.88762566       0.23921019      -0.06793299
C        0.40347241       0.50501351       0.13153302
C       -0.43725341       0.12656469      -1.06681065
C       -1.80168483       0.06328409      -0.70227193
O       -1.17525017      -1.25429392       0.64123402
C       -0.24327627      -0.38812300       1.25236516
H        2.29171182       0.84517006      -0.88157858
H        2.45406244       0.47385903       0.83558364
H        2.06547519      -0.81158492      -0.31088952
H        0.25876632       1.55635074       0.39882583
H       -0.12288705       0.30863120      -2.08576186
H       -0.57970181      -1.20242388      -0.57402404
H       -2.51410386      -0.36741834      -1.40039531
H       -2.26729369       0.68384630       0.05835939
H       -0.73371138       0.21968480       2.01846484
H        0.51404863      -0.99777056       1.75329897
16
Frame=6 idx=003249 GeodesicLength=0.34370392834632285 rxn_smarts="[C:1]([C@@:2]1([H:10])[C:3]([H:11])([H:12])[C:4]([H:13])([H:14])[O:5][C:6]1([H:15])[H:16])([H:7])([H:8])[H:9]>>[C:1]([C@@:2]([C:3](=[C:4]([H:13])[H:14])[H:11])([C:6]([O:5][H:12])([H:15])[H:16])[H:10])([H:7])([H:8])[H:9]"
C        1.88675682       0.23402348      -0.06922099
C        0.40348368       0.50269288       0.13337152
C       -0.43836473       0.12478299      -1.06633214
C       -1.80408805       0.05949498      -0.70253378
O       -1.16837308      -1.25815822       0.64718111
C       -0.24103924      -0.38364464       1.25529362
H        2.28960085       0.83702497      -0.88563613
H        2.45543454       0.47076992       0.83234617
H        2.06301015      -0.81762300      -0.30926613
H        0.26151127       1.55541190       0.39659977
H       -0.12981289       0.34513027      -2.07975428
H       -0.56608260      -1.22240087      -0.57780287
H       -2.51339972      -0.36650544      -1.40692127
H       -2.27709049       0.68230647       0.05152359
H       -0.73565257       0.22614801       2.01712026
H        0.51410605      -0.98945369       1.76403155
16
Frame=7 idx=003249 GeodesicLength=0.40097794667025943 rxn_smarts="[C:1]([C@@:2]1([H:10])[C:3]([H:11])([H:12])[C:4]([H:13])([H:14])[O:5][C:6]1([H:15])[H:16])([H:7])([H:8])[H:9]>>[C:1]([C@@:2]([C:3](=[C:4]([H:13])[H:14])[H:11])([C:6]([O:5][H:12])([H:15])[H:16])[H:10])([H:7])([H:8])[H:9]"
C        1.88587047       0.22888806      -0.07053888
C        0.40347389       0.50037559       0.13513812
C       -0.43946090       0.12295569      -1.06599680
C       -1.80650658       0.05590716      -0.70284177
O       -1.16144420      -1.26199847       0.65296885
C       -0.23881770      -0.37920948       1.25811558
H        2.28741712       0.82888311      -0.88976379
H        2.45675760       0.46779009       0.82906841
H        2.06060935      -0.82360181      -0.30759746
H        0.26423144       1.55444291       0.39434232
H       -0.13703210       0.38105695      -2.07263304
H       -0.55204371      -1.24251318      -0.58158713
H       -2.51271067      -0.36526006      -1.41348008
H       -2.28685419       0.68091961       0.04457659
H       -0.73762906       0.23249572       2.01565972
H        0.51413924      -0.98113187       1.77456936
16
Frame=8 idx=003249 GeodesicLength=0.45825453412892725 rxn_smarts="[C:1]([C@@:2]1([H:10])[C:3]([H:11])([H:12])[C:4]([H:13])([H:14])[O:5][C:6]1([H:15])[H:16])([H:7])([H:8])[H:9]>>[C:1]([C@@:2]([C:3](=[C:4]([H:13])[H:14])[H:11])([C:6]([O:5][H:12])([H:15])[H:16])[H:10])([H:7])([H:8])[H:9]"
C        1.88496435       0.22381829      -0.07188465
C        0.40344015       0.49807041       0.13684094
C       -0.44055332       0.12112034      -1.06579647
C       -1.80895057       0.05254890      -0.70318786
O       -1.15446681      -1.26581377       0.65858232
C       -0.23661296      -0.37482464       1.26082831
H        2.28515331       0.82076683      -0.89395518
H        2.45803002       0.46492692       0.82575315
H        2.05827380      -0.82950416      -0.30589089
H        0.26692449       1.55344965       0.39207795
H       -0.14450533       0.41624810      -2.06445001
H       -0.53756890      -1.26274771      -0.58538448
H       -2.51204795      -0.36365226      -1.42006157
H       -2.29658856       0.67970645       0.03753652
H       -0.73963910       0.23870929       2.01409222
H        0.51414738      -0.97282262       1.78489972
16
Frame=9 idx=003249 GeodesicLength=0.5155404323913835 rxn_smarts="[C:1]([C@@:2]1([H:10])[C:3]([H:11])([H:12])[C:4]([H:13])([H:14])[O:5][C:6]1([H:15])[H:16])([H:7])([H:8])[H:9]>>[C:1]([C@@:2]([C:3](=[C:4]([H:13])[H:14])[H:11])([C:6]([O:5][H:12])([H:15])[H:16])[H:10])([H:7])([H:8])[H:9]"
C        1.88403361       0.21881877      -0.07325694
C        0.40337870       0.49577730       0.13849258
C       -0.44165656       0.11928153      -1.06570677
C       -1.81143209       0.04943463      -0.70356132
O       -1.14744898      -1.26960211       0.66402564
C       -0.23442793      -0.37049636       1.26343976
H        2.28279577       0.81268289      -0.89821210
H        2.45925180       0.46218467       0.82239904
H        2.05600294      -0.83532410      -0.30414585
H        0.26958412       1.55243241       0.38982167
H       -0.15217364       0.45066546      -2.05534184
H       -0.52263586      -1.28310860      -0.58917528
H       -2.51141879      -0.36167016      -1.42665781
H       -2.30630070       0.67868271       0.03042266
H       -0.74168164       0.24477858       2.01243112
H        0.51412926      -0.96453761       1.79502544
16
Frame=10 idx=003249 GeodesicLength=0.5728275608003641 rxn_smarts="[C:1]([C@@:2]1([H:10])[C:3]([H:11])([H:12])[C:4]([H:13])([H:14])[O:5][C:6]1([H:15])[H:16])([H:7])([H:8])[H:9]>>[C:1]([C@@:2]([C:3](=[C:4]([H:13])[H:14])[H:11])([C:6]([O:5][H:12])([H:15])[H:16])[H:10])([H:7])([H:8])[H:9]"
C        1.88307845       0.21390590      -0.07465155
C        0.40328797       0.49350880       0.14009639
C       -0.44277739       0.11748779      -1.06572921
C       -1.81395931       0.04659143      -0.70395540
O       -1.14039109      -1.27336256       0.66927981
C       -0.23226186      -0.36622947       1.26594314
H        2.28034622       0.80465924      -0.90251881
H        2.46042072       0.45956871       0.81901445
H        2.05379868      -0.84104170      -0.30237327
H        0.27221193       1.55139969       0.38759785
H       -0.16001590       0.48410970      -2.04531946
H       -0.50724057      -1.30357172      -0.59299014
H       -2.51083661      -0.35928605      -1.43325266
H       -2.31599388       0.67786890       0.02324710
H       -0.74375237       0.25068668       2.01068317
H        0.51408502      -0.95629534       1.80492861
16
Frame=11 idx=003249 GeodesicLength=0.6301143415876068 rxn_smarts="[C:1]([C@@:2]1([H:10])[C:3]([H:11])([H:12])[C:4]([H:13])([H:14])[O:5][C:6]1([H:15])[H:16])([H:7])([H:8])[H:9]>>[C:1]([C@@:2]([C:3](=[C:4]([H:13])[H:14])[H:11])([C:6]([O:5][H:12])([H:15])[H:16])[H:10])([H:7])([H:8])[H:9]"
C        1.88209614       0.20908835      -0.07606491
C        0.40316492       0.49126880       0.14166062
C       -0.44392706       0.11575650      -1.06584923
C       -1.81654325       0.04403721      -0.70436024
O       -1.13329862      -1.27709428       0.67434190
C       -0.23011584      -0.36202969       1.26834165
H        2.27779861       0.79671127      -0.90686737
H        2.46153490       0.45708311       0.81560355
H        2.05166194      -0.84664557      -0.30057749
H        0.27480419       1.55035445       0.38542276
H       -0.16798908       0.51649059      -2.03448000
H       -0.49136795      -1.32413189      -0.59682961
H       -2.51031257      -0.35648370      -1.43983255
H       -2.32567277       0.67728391       0.01602520
H       -0.74584793       0.25642196       2.00886049
H        0.51401437      -0.94811102       1.81460524
16
Frame=12 idx=003249 GeodesicLength=0.68740532970079 rxn_smarts="[C:1]([C@@:2]1([H:10])[C:3]([H:11])([H:12])[C:4]([H:13])([H:14])[O:5][C:6]1([H:15])[H:16])([H:7])([H:8])[H:9]>>[C:1]([C@@:2]([C:3](=[C:4]([H:13])[H:14])[H:11])([C:6]([O:5][H:12])([H:15])[H:16])[H:10])([H:7])([H:8])[H:9]"
C        1.88108442       0.20437295      -0.07749464
C        0.40300694       0.48905974       0.14319236
C       -0.44511608       0.11410154      -1.06605306
C       -1.81919314       0.04178729      -0.70476740
O       -1.12617717      -1.28079756       0.67921119
C       -0.22799128      -0.35790162       1.27063931
H        2.27514796       0.78885232      -0.91125106
H        2.46259269       0.45473045       0.81216934
H        2.04959341      -0.85212709      -0.29876310
H        0.27735761       1.54929907       0.38330920
H       -0.17605531       0.54774322      -2.02291494
H       -0.47500256      -1.34479218      -0.60068842
H       -2.50985691      -0.35325088      -1.44638611
H       -2.33534102       0.67694490       0.00876875
H       -0.74796599       0.26197583       2.00697437
H        0.51391642      -0.93999799       1.82405420
16
Frame=13 idx=003249 GeodesicLength=0.7446963030693474 rxn_smarts="[C:1]([C@@:2]1([H:10])[C:3]([H:11])([H:12])[C:4]([H:13])([H:14])[O:5][C:6]1([H:15])[H:16])([H:7])([H:8])[H:9]>>[C:1]([C@@:2]([C:3](=[C:4]([H:13])[H:14])[H:11])([C:6]([O:5][H:12])([H:15])[H:16])[H:10])([H:7])([H:8])[H:9]"
C        1.88004103       0.19976488      -0.07893759
C        0.40281090       0.48688175       0.14469743
C       -0.44635403       0.11252803      -1.06632717
C       -1.82191916       0.03985393      -0.70516789
O       -1.11903349      -1.28447227       0.68388955
C       -0.22588938      -0.35384983       1.27284066
H        2.27239057       0.78109353      -0.91566249
H        2.46359180       0.45251324       0.80871581
H        2.04759478      -0.85747888      -0.29693296
H        0.27986732       1.54823413       0.38126574
H       -0.18417601       0.57782402      -2.01072236
H       -0.45812874      -1.36555470      -0.60456129
H       -2.50948031      -0.34957948      -1.45289935
H       -2.34500302       0.67686966       0.00148965
H       -0.75010273       0.26734146       2.00503615
H        0.51379049      -0.93196949       1.83327611
16
Frame=14 idx=003249 GeodesicLength=0.8019889318850538 rxn_smarts="[C:1]([C@@:2]1([H:10])[C:3]([H:11])([H:12])[C:4]([H:13])([H:14])[O:5][C:6]1([H:15])[H:16])([H:7])([H:8])[H:9]>>[C:1]([C@@:2]([C:3](=[C:4]([H:13])[H:14])[H:11])([C:6]([O:5][H:12])([H:15])[H:16])[H:10])([H:7])([H:8])[H:9]"
C        1.87896375       0.19526667      -0.08039177
C        0.40257428       0.48473374       0.14618067
C       -0.44765009       0.11103912      -1.06665936
C       -1.82472965       0.03824506      -0.70555455
O       -1.11187423      -1.28811943       0.68838233
C       -0.22381140      -0.34987759       1.27495128
H        2.26952308       0.77344285      -0.92009581
H        2.46453022       0.45043186       0.80524541
H        2.04566680      -0.86269699      -0.29509034
H        0.28232950       1.54715943       0.37929775
H       -0.19231913       0.60671670      -1.99798988
H       -0.44073177      -1.38642824      -0.60843881
H       -2.50919037      -0.34546651      -1.45936086
H       -2.35466124       0.67707276      -0.00580542
H       -0.75225555       0.27251551       2.00305574
H        0.51363581      -0.92403493       1.84227364
16
Frame=15 idx=003249 GeodesicLength=0.8592848423899344 rxn_smarts="[C:1]([C@@:2]1([H:10])[C:3]([H:11])([H:12])[C:4]([H:13])([H:14])[O:5][C:6]1([H:15])[H:16])([H:7])([H:8])[H:9]>>[C:1]([C@@:2]([C:3](=[C:4]([H:13])[H:14])[H:11])([C:6]([O:5][H:12])([H:15])[H:16])[H:10])([H:7])([H:8])[H:9]"
C        1.87785064       0.19088094      -0.08185511
C        0.40229424       0.48261335       0.14764555
C       -0.44901287       0.10963360      -1.06703876
C       -1.82763304       0.03696958      -0.70592037
O       -1.10470697      -1.29174014       0.69269372
C       -0.22175889      -0.34598884       1.27697565
H        2.26654289       0.76590842      -0.92454530
H        2.46540519       0.44848797       0.80176106
H        2.04381201      -0.86777738      -0.29323771
H        0.28473915       1.54607368       0.37740820
H       -0.20045541       0.63441112      -1.98480160
H       -0.42279291      -1.40742455      -0.61230839
H       -2.50899669      -0.34090916      -1.46575834
H       -2.36431714       0.67757249      -0.01311030
H       -0.75442138       0.27749433       2.00104245
H        0.51345116      -0.91620541       1.85104925
16
Frame=16 idx=003249 GeodesicLength=0.9165840806349604 rxn_smarts="[C:1]([C@@:2]1([H:10])[C:3]([H:11])([H:12])[C:4]([H:13])([H:14])[O:5][C:6]1([H:15])[H:16])([H:7])([H:8])[H:9]>>[C:1]([C@@:2]([C:3](=[C:4]([H:13])[H:14])[H:11])([C:6]([O:5][H:12])([H:15])[H:16])[H:10])([H:7])([H:8])[H:9]"
C        1.87670009       0.18660830      -0.08332587
C        0.40196798       0.48051616       0.14909411
C       -0.45045014       0.10830440      -1.06745573
C       -1.83063724       0.03603347      -0.70625918
O       -1.09753942      -1.29533570       0.69682978
C       -0.21973326      -0.34218710       1.27891848
H        2.26344829       0.75849484      -0.92900653
H        2.46621403       0.44668339       0.79826498
H        2.04203372      -0.87271812      -0.29137597
H        0.28709078       1.54497399       0.37559624
H       -0.20855828       0.66092118      -1.97123646
H       -0.40429333      -1.42855848      -0.61615410
H       -2.50890882      -0.33590840      -1.47208027
H       -2.37397246       0.67838596      -0.02042079
H       -0.75659715       0.28227640       1.99900430
H        0.51323523      -0.90849027       1.85960700
