11
Frame=0 idx=001676 GeodesicLength=0.0 rxn_smarts="[O:1]([C@@:2]1([H:8])[C:3]([H:9])([H:10])[O:4]/[C:5]1=[N:6]\[H:11])[H:7]>>[O-:1][C@@:2]1([H:8])[C:3]([H:9])([H:10])[O+:4]=[C:5]1[N:6]([H:7])[H:11]"
O        0.08279114       1.45186801       0.98840466
C        0.59884479       0.66679691       0.05444027
C        1.10758849      -0.85047364       0.21102637
O        0.01208277      -1.28766608      -0.73255445
C       -0.51578517      -0.09664825      -0.55898959
N       -1.68123586       0.37498226      -0.33805552
H       -1.31360132       1.17638357       0.40687404
H        1.26959506       1.13726786      -0.68643960
H        2.07703710      -1.13451448      -0.19094098
H        0.89707617      -1.28071194       1.18690719
H       -2.53439320      -0.15728427      -0.34067243
11
Frame=1 idx=001676 GeodesicLength=0.06680464033535254 rxn_smarts="[O:1]([C@@:2]1([H:8])[C:3]([H:9])([H:10])[O:4]/[C:5]1=[N:6]\[H:11])[H:7]>>[O-:1][C@@:2]1([H:8])[C:3]([H:9])([H:10])[O+:4]=[C:5]1[N:6]([H:7])[H:11]"
O        0.08893651       1.44917641       0.99209672
C        0.60214721       0.66550822       0.05340687
C        1.10567737      -0.85035082       0.21119260
O        0.00729205      -1.28795604      -0.72560150
C       -0.51754194      -0.09244952      -0.56792371
N       -1.68482710       0.37517574      -0.34292670
H       -1.31289447       1.18384768       0.42201746
H        1.26963855       1.13867242      -0.68895050
H        2.07331181      -1.13721573      -0.19325041
H        0.89870595      -1.27462847       1.19048692
H       -2.53044595      -0.16977988      -0.35054775
11
Frame=2 idx=001676 GeodesicLength=0.1335765748939197 rxn_smarts="[O:1]([C@@:2]1([H:8])[C:3]([H:9])([H:10])[O:4]/[C:5]1=[N:6]\[H:11])[H:7]>>[O-:1][C@@:2]1([H:8])[C:3]([H:9])([H:10])[O+:4]=[C:5]1[N:6]([H:7])[H:11]"
O        0.09507107       1.44642096       0.99582000
C        0.60537611       0.66416445       0.05239880
C        1.10385500      -0.85022944       0.21139458
O        0.00243139      -1.28823936      -0.71838841
C       -0.51936008      -0.08845789      -0.57657429
N       -1.68850758       0.37527126      -0.34806045
H       -1.31207956       1.19142275       0.43739235
H        1.26947305       1.14005273      -0.69150644
H        2.06958772      -1.13988002      -0.19571553
H        0.90071480      -1.26855872       1.19409263
H       -2.52656193      -0.18196673      -0.36085324
11
Frame=3 idx=001676 GeodesicLength=0.20036444796343117 rxn_smarts="[O:1]([C@@:2]1([H:8])[C:3]([H:9])([H:10])[O:4]/[C:5]1=[N:6]\[H:11])[H:7]>>[O-:1][C@@:2]1([H:8])[C:3]([H:9])([H:10])[O+:4]=[C:5]1[N:6]([H:7])[H:11]"
O        0.10120242       1.44359990       0.99959240
C        0.60853470       0.66276870       0.05142261
C        1.10211802      -0.85011262       0.21163070
O       -0.00249560      -1.28851442      -0.71092713
C       -0.52124102      -0.08467062      -0.58494819
N       -1.69229053       0.37524022      -0.35342634
H       -1.31113241       1.19919364       0.45296499
H        1.26910616       1.14141658      -0.69409819
H        2.06586166      -1.14251037      -0.19833743
H        0.90309342      -1.26251244       1.19771979
H       -2.52275681      -0.19389855      -0.37159320
11
Frame=4 idx=001676 GeodesicLength=0.26714841626059316 rxn_smarts="[O:1]([C@@:2]1([H:8])[C:3]([H:9])([H:10])[O:4]/[C:5]1=[N:6]\[H:11])[H:7]>>[O-:1][C@@:2]1([H:8])[C:3]([H:9])([H:10])[O+:4]=[C:5]1[N:6]([H:7])[H:11]"
O        0.10732619       1.44071444       1.00340646
C        0.61162401       0.66132572       0.05047489
C        1.10045139      -0.85000213       0.21190103
O       -0.00746942      -1.28876113      -0.70326376
C       -0.52317585      -0.08107054      -0.59308676
N       -1.69617596       0.37508118      -0.35906155
H       -1.31004832       1.20718947       0.46871278
H        1.26855825       1.14276967      -0.69670767
H        2.06213053      -1.14511111      -0.20107971
H        0.90578582      -1.25650430       1.20135218
H       -2.51900664      -0.20563127      -0.38264789
11
Frame=5 idx=001676 GeodesicLength=0.33393473621223346 rxn_smarts="[O:1]([C@@:2]1([H:8])[C:3]([H:9])([H:10])[O:4]/[C:5]1=[N:6]\[H:11])[H:7]>>[O-:1][C@@:2]1([H:8])[C:3]([H:9])([H:10])[O+:4]=[C:5]1[N:6]([H:7])[H:11]"
O        0.11343713       1.43776679       1.00725889
C        0.61464384       0.65983954       0.04955416
C        1.09884122      -0.84989977       0.21220417
O       -0.01247175      -1.28896521      -0.69544071
C       -0.52515674      -0.07764487      -0.60102378
N       -1.70016390       0.37479208      -0.36500924
H       -1.30881941       1.21544418       0.48461964
H        1.26784876       1.14411581      -0.69931760
H        2.05839306      -1.14768332      -0.20391224
H        0.90874046      -1.25054765       1.20497378
H       -2.51529267      -0.21721759      -0.39390707
11
Frame=6 idx=001676 GeodesicLength=0.40069107615679717 rxn_smarts="[O:1]([C@@:2]1([H:8])[C:3]([H:9])([H:10])[O:4]/[C:5]1=[N:6]\[H:11])[H:7]>>[O-:1][C@@:2]1([H:8])[C:3]([H:9])([H:10])[O+:4]=[C:5]1[N:6]([H:7])[H:11]"
O        0.11954964       1.43476731       1.01113966
C        0.61759513       0.65831396       0.04865206
C        1.09728953      -0.84980074       0.21254318
O       -0.01751593      -1.28913796      -0.68742385
C       -0.52718342      -0.07439445      -0.60876646
N       -1.70425603       0.37438682      -0.37128914
H       -1.30744483       1.22391064       0.50076787
H        1.26697457       1.14545145      -0.70194091
H        2.05464070      -1.15023330      -0.20684473
H        0.91197620      -1.24461746       1.20859665
H       -2.51162557      -0.22864627      -0.40543434
11
Frame=7 idx=001676 GeodesicLength=0.4674656269894646 rxn_smarts="[O:1]([C@@:2]1([H:8])[C:3]([H:9])([H:10])[O:4]/[C:5]1=[N:6]\[H:11])[H:7]>>[O-:1][C@@:2]1([H:8])[C:3]([H:9])([H:10])[O+:4]=[C:5]1[N:6]([H:7])[H:11]"
O        0.12564742       1.43169714       1.01506832
C        0.62047745       0.65675049       0.04777923
C        1.09577351      -0.84971282       0.21291032
O       -0.02257133      -1.28924386      -0.67930400
C       -0.52924649      -0.07129555      -0.61635188
N       -1.70845749       0.37383035      -0.37792483
H       -1.30590630       1.23273920       0.51704105
H        1.26596537       1.14678991      -0.70453354
H        2.05087251      -1.15276294      -0.20983729
H        0.91540821      -1.23875694       1.21218623
H       -2.50796285      -0.24003498      -0.41703361
11
Frame=8 idx=001676 GeodesicLength=0.5342343586352449 rxn_smarts="[O:1]([C@@:2]1([H:8])[C:3]([H:9])([H:10])[O:4]/[C:5]1=[N:6]\[H:11])[H:7]>>[O-:1][C@@:2]1([H:8])[C:3]([H:9])([H:10])[O+:4]=[C:5]1[N:6]([H:7])[H:11]"
O        0.13175119       1.42857105       1.01903104
C        0.62328915       0.65515315       0.04692428
C        1.09429963      -0.84962999       0.21331042
O       -0.02765167      -1.28929968      -0.67103292
C       -0.53135044      -0.06835442      -0.62377556
N       -1.71277342       0.37313688      -0.38492958
H       -1.30419385       1.24186906       0.53355193
H        1.26480705       1.14812333      -0.70712069
H        2.04708193      -1.15527662      -0.21290098
H        0.91907142      -1.23293680       1.21575901
H       -2.50433098      -0.25135595      -0.42881695
11
Frame=9 idx=001676 GeodesicLength=0.6010012680018711 rxn_smarts="[O:1]([C@@:2]1([H:8])[C:3]([H:9])([H:10])[O:4]/[C:5]1=[N:6]\[H:11])[H:7]>>[O-:1][C@@:2]1([H:8])[C:3]([H:9])([H:10])[O+:4]=[C:5]1[N:6]([H:7])[H:11]"
O        0.13787686       1.42540498       1.02301950
C        0.62603153       0.65352750       0.04607870
C        1.09286531      -0.84954721       0.21374621
O       -0.03277500      -1.28931520      -0.66258075
C       -0.53349581      -0.06557148      -0.63104489
N       -1.71720323       0.37231647      -0.39233937
H       -1.30230772       1.25125822       0.55039089
H        1.26350143       1.14944861      -0.70971753
H        2.04325789      -1.15778034      -0.21604409
H        0.92297732      -1.22713345       1.21932709
H       -2.50072859      -0.26260808      -0.44083575
11
Frame=10 idx=001676 GeodesicLength=0.6677695932430667 rxn_smarts="[O:1]([C@@:2]1([H:8])[C:3]([H:9])([H:10])[O:4]/[C:5]1=[N:6]\[H:11])[H:7]>>[O-:1][C@@:2]1([H:8])[C:3]([H:9])([H:10])[O+:4]=[C:5]1[N:6]([H:7])[H:11]"
O        0.14404074       1.42221019       1.02702553
C        0.62870332       0.65187711       0.04523512
C        1.09147133      -0.84945960       0.21422129
O       -0.03795662      -1.28929851      -0.65390882
C       -0.53568525      -0.06294975      -0.63815862
N       -1.72175037       0.37137503      -0.40017884
H       -1.30023598       1.26087388       0.56764403
H        1.26203906       1.15076262      -0.71234024
H        2.03938886      -1.16028066      -0.21927677
H        0.92714665      -1.22132358       1.22290082
H       -2.49716175      -0.27378673      -0.45316350
11
Frame=11 idx=001676 GeodesicLength=0.7345452674548019 rxn_smarts="[O:1]([C@@:2]1([H:8])[C:3]([H:9])([H:10])[O:4]/[C:5]1=[N:6]\[H:11])[H:7]>>[O-:1][C@@:2]1([H:8])[C:3]([H:9])([H:10])[O+:4]=[C:5]1[N:6]([H:7])[H:11]"
O        0.15023955       1.41898342       1.03105569
C        0.63130224       0.65020389       0.04439779
C        1.09010681      -0.84937049       0.21473300
O       -0.04318165      -1.28923491      -0.64505722
C       -0.53791472      -0.06047989      -0.64513643
N       -1.72641881       0.37029658      -0.40847664
H       -1.29796025       1.27078425       0.58528635
H        1.26042982       1.15207111      -0.71497091
H        2.03547442      -1.16277644      -0.22257827
H        0.93153976      -1.21552803       1.22646404
H       -2.49361717      -0.28494948      -0.46571740
11
Frame=12 idx=001676 GeodesicLength=0.8013122034324724 rxn_smarts="[O:1]([C@@:2]1([H:8])[C:3]([H:9])([H:10])[O:4]/[C:5]1=[N:6]\[H:11])[H:7]>>[O-:1][C@@:2]1([H:8])[C:3]([H:9])([H:10])[O+:4]=[C:5]1[N:6]([H:7])[H:11]"
O        0.15649084       1.41574375       1.03508982
C        0.63382843       0.64851463       0.04355249
C        1.08876714      -0.84927108       0.21528605
O       -0.04846958      -1.28912832      -0.63598900
C       -0.54018321      -0.05816095      -0.65198986
N       -1.73120707       0.36909813      -0.41728810
H       -1.29547447       1.28090765       0.60343251
H        1.25867490       1.15336833      -0.71762863
H        2.03149865      -1.16527645      -0.22594903
H        0.93616657      -1.20971119       1.23002916
H       -2.49009220      -0.29608451      -0.47854541
11
Frame=13 idx=001676 GeodesicLength=0.868088889052887 rxn_smarts="[O:1]([C@@:2]1([H:8])[C:3]([H:9])([H:10])[O:4]/[C:5]1=[N:6]\[H:11])[H:7]>>[O-:1][C@@:2]1([H:8])[C:3]([H:9])([H:10])[O+:4]=[C:5]1[N:6]([H:7])[H:11]"
O        0.16278249       1.41247069       1.03915218
C        0.63627610       0.64680612       0.04271528
C        1.08744276      -0.84916930       0.21587440
O       -0.05379916      -1.28896039      -0.62675687
C       -0.54248805      -0.05598404      -0.65873090
N       -1.73612340       0.36774479      -0.42662826
H       -1.29275085       1.29138967       0.62200420
H        1.25678112       1.15466172      -0.72027835
H        2.02746513      -1.16777216      -0.22937717
H        0.94098617      -1.20391384       1.23357026
H       -2.48657231      -0.30727325      -0.49154478
11
Frame=14 idx=001676 GeodesicLength=0.9348698094755896 rxn_smarts="[O:1]([C@@:2]1([H:8])[C:3]([H:9])([H:10])[O:4]/[C:5]1=[N:6]\[H:11])[H:7]>>[O-:1][C@@:2]1([H:8])[C:3]([H:9])([H:10])[O+:4]=[C:5]1[N:6]([H:7])[H:11]"
O        0.16913720       1.40919199       1.04322243
C        0.63864380       0.64508651       0.04187072
C        1.08613303      -0.84905612       0.21650474
O       -0.05919811      -1.28874431      -0.61730344
C       -0.54483220      -0.05395527      -0.66536212
N       -1.74116522       0.36625431      -0.43655376
H       -1.28978167       1.30213925       0.64114465
H        1.25473998       1.15594646      -0.72295009
H        2.02335559      -1.17027568      -0.23287230
H        0.94602933      -1.19809590       1.23710848
H       -2.48306174      -0.31849126      -0.50480930
11
Frame=15 idx=001676 GeodesicLength=1.0016607270573394 rxn_smarts="[O:1]([C@@:2]1([H:8])[C:3]([H:9])([H:10])[O:4]/[C:5]1=[N:6]\[H:11])[H:7]>>[O-:1][C@@:2]1([H:8])[C:3]([H:9])([H:10])[O+:4]=[C:5]1[N:6]([H:7])[H:11]"
O        0.17557792       1.40592905       1.04728486
C        0.64092892       0.64336083       0.04100799
C        1.08484186      -0.84892268       0.21718350
O       -0.06469498      -1.28849146      -0.60755730
C       -0.54722178      -0.05208471      -0.67187316
N       -1.74633587       0.36463080      -0.44710079
H       -1.28654793       1.31309569       0.66098457
H        1.25253733       1.15721434      -0.72567141
H        2.01915332      -1.17279591      -0.23645340
H        0.95133801      -1.19221887       1.24066067
H       -2.47957682      -0.32971708      -0.51846554
11
Frame=16 idx=001676 GeodesicLength=1.068457135358766 rxn_smarts="[O:1]([C@@:2]1([H:8])[C:3]([H:9])([H:10])[O:4]/[C:5]1=[N:6]\[H:11])[H:7]>>[O-:1][C@@:2]1([H:8])[C:3]([H:9])([H:10])[O+:4]=[C:5]1[N:6]([H:7])[H:11]"
O        0.18209789       1.40267727       1.05134457
C        0.64312623       0.64163108       0.04013114
C        1.08355458      -0.84877113       0.21790773
O       -0.07027936      -1.28818322      -0.59755867
C       -0.54965093      -0.05036177      -0.67828925
N       -1.75163513       0.36286094      -0.45833357
H       -1.28302791       1.32431595       0.68151617
H        1.25018501       1.15847069      -0.72842080
H        2.01485340      -1.17533082      -0.24009996
H        0.95687093      -1.18630044       1.24421025
H       -2.47609472      -0.34100853      -0.53240761
