13
Frame=0 idx=011616 GeodesicLength=0.0 rxn_smarts="[C:1]([O:2][c:3]1[n:4][n:5]([H:11])[c:6]([H:12])[c:7]1[H:13])([H:8])([H:9])[H:10]>>[C:1]([O:2][N:4]=[C:3]=[C:7]([C:6](=[N:5][H:11])[H:12])[H:13])([H:8])([H:9])[H:10]"
C       -2.28329143       0.28360819      -0.13844538
O       -1.59040620      -0.14609279       1.04433814
C        0.02486254      -0.03607434       0.89807823
N       -0.54815037       0.92358268       1.47294878
N        2.37261924       0.91099818      -0.32963018
C        2.04479696      -0.31773650      -0.39042937
C        0.84907760      -0.84958758       0.23173647
H       -3.03057474      -0.48383460      -0.33388681
H       -2.74858534       1.24562083       0.06899329
H       -1.58684706       0.35930420      -0.97406016
H        3.22938452       1.08190521      -0.84592393
H        2.64113250      -1.06525184      -0.92569541
H        0.62598176      -1.90644163       0.22197629
13
Frame=1 idx=011616 GeodesicLength=0.11054826989847187 rxn_smarts="[C:1]([O:2][c:3]1[n:4][n:5]([H:11])[c:6]([H:12])[c:7]1[H:13])([H:8])([H:9])[H:10]>>[C:1]([O:2][N:4]=[C:3]=[C:7]([C:6](=[N:5][H:11])[H:12])[H:13])([H:8])([H:9])[H:10]"
C       -2.30067760       0.30520980      -0.13286218
O       -1.58173839      -0.13360492       1.02818953
C        0.03496094      -0.09239460       0.89071503
N       -0.49149931       0.93419472       1.38926200
N        2.32761276       0.90916821      -0.30632331
C        2.05640667      -0.33554367      -0.38069186
C        0.86011657      -0.89582808       0.21112173
H       -3.06868707      -0.44731829      -0.30420004
H       -2.74074412       1.27673894       0.08626143
H       -1.62865151       0.36676465      -0.98943128
H        3.15352527       1.13575909      -0.85107753
H        2.71999267      -1.06631012      -0.85449866
H        0.65938313      -1.95683573       0.21353513
13
Frame=2 idx=011616 GeodesicLength=0.22225470325341845 rxn_smarts="[C:1]([O:2][c:3]1[n:4][n:5]([H:11])[c:6]([H:12])[c:7]1[H:13])([H:8])([H:9])[H:10]>>[C:1]([O:2][N:4]=[C:3]=[C:7]([C:6](=[N:5][H:11])[H:12])[H:13])([H:8])([H:9])[H:10]"
C       -2.31705856       0.33015882      -0.12867266
O       -1.57291536      -0.12998101       1.00527566
C        0.04345217      -0.14642252       0.88075866
N       -0.43969635       0.93164587       1.31032070
N        2.27510506       0.90652460      -0.30069690
C        2.07077561      -0.35340813      -0.36571740
C        0.87343448      -0.94087328       0.19338244
H       -3.10397652      -0.40619769      -0.28337730
H       -2.73262700       1.30775191       0.11152731
H       -1.67001875       0.38745300      -1.00462366
H        3.07592206       1.18208617      -0.85885226
H        2.79416916      -1.06207181      -0.77974388
H        0.70343400      -2.00666592       0.22041927
13
Frame=3 idx=011616 GeodesicLength=0.3335603092622065 rxn_smarts="[C:1]([O:2][c:3]1[n:4][n:5]([H:11])[c:6]([H:12])[c:7]1[H:13])([H:8])([H:9])[H:10]>>[C:1]([O:2][N:4]=[C:3]=[C:7]([C:6](=[N:5][H:11])[H:12])[H:13])([H:8])([H:9])[H:10]"
C       -2.33496460       0.35455794      -0.12453281
O       -1.56374392      -0.13094883       0.97762689
C        0.05121161      -0.19350838       0.86612598
N       -0.39302336       0.92528798       1.22963725
N        2.23103088       0.90059526      -0.29227704
C        2.08261428      -0.36962938      -0.35780467
C        0.88930964      -0.98260166       0.17886203
H       -3.13810494      -0.36704529      -0.26441505
H       -2.72779485       1.33505412       0.14179641
H       -1.71521197       0.41433792      -1.01991259
H        3.00637835       1.21905594      -0.86255977
H        2.85881386      -1.05333586      -0.71169182
H        0.75348502      -2.05181977       0.23914521
13
Frame=4 idx=011616 GeodesicLength=0.4446237725993143 rxn_smarts="[C:1]([O:2][c:3]1[n:4][n:5]([H:11])[c:6]([H:12])[c:7]1[H:13])([H:8])([H:9])[H:10]>>[C:1]([O:2][N:4]=[C:3]=[C:7]([C:6](=[N:5][H:11])[H:12])[H:13])([H:8])([H:9])[H:10]"
C       -2.35166407       0.38002699      -0.12131144
O       -1.55514824      -0.13797262       0.94475997
C        0.05826352      -0.23776749       0.85079691
N       -0.35153484       0.91272483       1.15218700
N        2.18580618       0.89303540      -0.29072732
C        2.09414323      -0.38533907      -0.34997800
C        0.90853711      -1.02350683       0.17092612
H       -3.16903470      -0.32713037      -0.25198301
H       -2.72281762       1.35986435       0.17755168
H       -1.75901691       0.45070456      -1.03416413
H        2.93789140       1.24949022      -0.86885861
H        2.91708705      -1.04018437      -0.64581600
H        0.80748790      -2.09394561       0.26661682
13
Frame=5 idx=011616 GeodesicLength=0.5552989467743454 rxn_smarts="[C:1]([O:2][c:3]1[n:4][n:5]([H:11])[c:6]([H:12])[c:7]1[H:13])([H:8])([H:9])[H:10]>>[C:1]([O:2][N:4]=[C:3]=[C:7]([C:6](=[N:5][H:11])[H:12])[H:13])([H:8])([H:9])[H:10]"
C       -2.36795367       0.40613993      -0.11841653
O       -1.54731186      -0.15031328       0.90640426
C        0.06470298      -0.27943223       0.83416502
N       -0.31478611       0.89571351       1.07650460
N        2.14071342       0.88362876      -0.29483734
C        2.10659734      -0.40061006      -0.34074281
C        0.93075703      -1.06325329       0.16828587
H       -3.19790137      -0.28700572      -0.24455702
H       -2.71810677       1.38140388       0.21912832
H       -1.80268787       0.49589417      -1.04691566
H        2.87148020       1.27353520      -0.87802673
H        2.97073226      -1.02318551      -0.58106840
H        0.86376441      -2.13251535       0.30007642
13
Frame=6 idx=011616 GeodesicLength=0.665516760503568 rxn_smarts="[C:1]([O:2][c:3]1[n:4][n:5]([H:11])[c:6]([H:12])[c:7]1[H:13])([H:8])([H:9])[H:10]>>[C:1]([O:2][N:4]=[C:3]=[C:7]([C:6](=[N:5][H:11])[H:12])[H:13])([H:8])([H:9])[H:10]"
C       -2.38384343       0.43286701      -0.11584664
O       -1.54041948      -0.16769482       0.86163103
C        0.07050201      -0.31915777       0.81636041
N       -0.28243575       0.87497271       1.00217704
N        2.09651945       0.87206790      -0.30283660
C        2.12004340      -0.41541322      -0.32969902
C        0.95588226      -1.10188657       0.17102664
H       -3.22508957      -0.24644275      -0.24218248
H       -2.71329699       1.39897752       0.26663643
H       -1.84614017       0.55015468      -1.05764879
H        2.80605909       1.29174964      -0.89089954
H        3.02011321      -1.00268261      -0.51851974
H        0.92210597      -2.16751172       0.33980127
13
Frame=7 idx=011616 GeodesicLength=0.7751022060399474 rxn_smarts="[C:1]([O:2][c:3]1[n:4][n:5]([H:11])[c:6]([H:12])[c:7]1[H:13])([H:8])([H:9])[H:10]>>[C:1]([O:2][N:4]=[C:3]=[C:7]([C:6](=[N:5][H:11])[H:12])[H:13])([H:8])([H:9])[H:10]"
C       -2.40077286       0.45931773      -0.11275725
O       -1.53430347      -0.18888823       0.80962899
C        0.07579606      -0.35603299       0.79580938
N       -0.25400589       0.85260607       0.92544254
N        2.05645739       0.85835718      -0.31192797
C        2.13550420      -0.42961690      -0.31637397
C        0.98343530      -1.13836017       0.17751200
H       -3.25249167      -0.20632402      -0.24144990
H       -2.70886521       1.41148552       0.31986512
H       -1.89240668       0.61133198      -1.06592410
H        2.74479404       1.30419977      -0.90527058
H        3.06615446      -0.98013501      -0.45817857
H        0.98070432      -2.19794093       0.38362433
13
Frame=8 idx=011616 GeodesicLength=0.8839416318942589 rxn_smarts="[C:1]([O:2][c:3]1[n:4][n:5]([H:11])[c:6]([H:12])[c:7]1[H:13])([H:8])([H:9])[H:10]>>[C:1]([O:2][N:4]=[C:3]=[C:7]([C:6](=[N:5][H:11])[H:12])[H:13])([H:8])([H:9])[H:10]"
C       -2.41816575       0.48571466      -0.10924396
O       -1.52899068      -0.21408286       0.74851765
C        0.08041712      -0.39092590       0.77296645
N       -0.22917016       0.82828612       0.84659955
N        2.01924704       0.84257846      -0.32311210
C        2.15233673      -0.44316291      -0.30096525
C        1.01329463      -1.17283616       0.18860079
H       -3.27968329      -0.16603411      -0.24354699
H       -2.70403589       1.41760089       0.37969135
H       -1.94059831       0.68120882      -1.07049564
H        2.68651626       1.31114026      -0.92233579
H        3.10931186      -0.95548643      -0.39932802
H        1.03952044      -2.22400084       0.43265195
13
Frame=9 idx=011616 GeodesicLength=0.9918679123608061 rxn_smarts="[C:1]([O:2][c:3]1[n:4][n:5]([H:11])[c:6]([H:12])[c:7]1[H:13])([H:8])([H:9])[H:10]>>[C:1]([O:2][N:4]=[C:3]=[C:7]([C:6](=[N:5][H:11])[H:12])[H:13])([H:8])([H:9])[H:10]"
C       -2.43739801       0.51095942      -0.10440474
O       -1.52417917      -0.24196307       0.67649498
C        0.08438844      -0.42237116       0.74606105
N       -0.20755377       0.80387592       0.76071926
N        1.98832639       0.82524265      -0.33349110
C        2.17144008      -0.45587854      -0.28273976
C        1.04472309      -1.20401861       0.20308908
H       -3.30858221      -0.12655369      -0.24436405
H       -2.69838835       1.41598208       0.44555396
H       -1.99442777       0.75715684      -1.07068612
H        2.63532425       1.31293444      -0.93900552
H        3.14991397      -0.93084549      -0.34288168
H        1.09641307      -2.24452079       0.48565464
13
Frame=10 idx=011616 GeodesicLength=1.0986541889776706 rxn_smarts="[C:1]([O:2][c:3]1[n:4][n:5]([H:11])[c:6]([H:12])[c:7]1[H:13])([H:8])([H:9])[H:10]>>[C:1]([O:2][N:4]=[C:3]=[C:7]([C:6](=[N:5][H:11])[H:12])[H:13])([H:8])([H:9])[H:10]"
C       -2.45813326       0.53476576      -0.09788048
O       -1.51962614      -0.27223737       0.59026602
C        0.08735158      -0.45025883       0.71447249
N       -0.18870821       0.77939653       0.66590053
N        1.96338745       0.80668034      -0.34386736
C        2.19248315      -0.46768539      -0.26136693
C        1.07706586      -1.23146174       0.22146051
H       -3.33901056      -0.08794996      -0.24354630
H       -2.69057933       1.40420884       0.51863884
H       -2.05442074       0.84065599      -1.06446611
H        2.59160951       1.30966063      -0.95598322
H        3.18845947      -0.90663458      -0.28698099
H        1.15012122      -2.25914023       0.54335301
13
Frame=11 idx=011616 GeodesicLength=1.2039414174998928 rxn_smarts="[C:1]([O:2][c:3]1[n:4][n:5]([H:11])[c:6]([H:12])[c:7]1[H:13])([H:8])([H:9])[H:10]>>[C:1]([O:2][N:4]=[C:3]=[C:7]([C:6](=[N:5][H:11])[H:12])[H:13])([H:8])([H:9])[H:10]"
C       -2.48031098       0.55614503      -0.08873445
O       -1.51483327      -0.30364043       0.48548051
C        0.08880293      -0.47325344       0.67635659
N       -0.17195969       0.75566414       0.55762191
N        1.94534468       0.78719053      -0.35483020
C        2.21542506      -0.47853172      -0.23606509
C        1.10897103      -1.25403676       0.24356575
H       -3.37096197      -0.05136017      -0.23908446
H       -2.67892066       1.37857044       0.60017939
H       -2.12279702       0.93269075      -1.04873567
H        2.55804156       1.30105774      -0.97300251
H        3.22524804      -0.88371942      -0.22876021
H        1.19795029      -2.26677669       0.60600844
13
Frame=12 idx=011616 GeodesicLength=1.3066790276938303 rxn_smarts="[C:1]([O:2][c:3]1[n:4][n:5]([H:11])[c:6]([H:12])[c:7]1[H:13])([H:8])([H:9])[H:10]>>[C:1]([O:2][N:4]=[C:3]=[C:7]([C:6](=[N:5][H:11])[H:12])[H:13])([H:8])([H:9])[H:10]"
C       -2.50193965       0.57322380      -0.07661465
O       -1.50995150      -0.33345994       0.36132493
C        0.08742126      -0.48976743       0.63086001
N       -0.15629015       0.73339565       0.43343929
N        1.93418859       0.76798852      -0.36538343
C        2.23795437      -0.48809434      -0.20803223
C        1.13763175      -1.27015502       0.26956301
H       -3.40303339      -0.01854297      -0.22743321
H       -2.65867664       1.33739041       0.68641485
H       -2.19799822       1.02828696      -1.02115132
H        2.53713586       1.28950948      -0.98613970
H        3.25784126      -0.86375081      -0.17052307
H        1.23571647      -2.26602430       0.67367553
13
Frame=13 idx=011616 GeodesicLength=1.4065937610197758 rxn_smarts="[C:1]([O:2][c:3]1[n:4][n:5]([H:11])[c:6]([H:12])[c:7]1[H:13])([H:8])([H:9])[H:10]>>[C:1]([O:2][N:4]=[C:3]=[C:7]([C:6](=[N:5][H:11])[H:12])[H:13])([H:8])([H:9])[H:10]"
C       -2.51862919       0.58478186      -0.06152948
O       -1.50460424      -0.35834233       0.21863095
C        0.08198485      -0.49988092       0.57828859
N       -0.13992174       0.71253197       0.29886727
N        1.92576086       0.74887739      -0.37951122
C        2.25760295      -0.49576927      -0.17667202
C        1.15992958      -1.27914454       0.29902084
H       -3.42986618       0.00902519      -0.21316173
H       -2.62776551       1.27650408       0.77552183
H       -2.27326373       1.12882280      -0.97579508
H        2.52396733       1.27363181      -1.00156414
H        3.28472273      -0.84446983      -0.10715724
H        1.26008229      -2.25656821       0.74506143
13
Frame=14 idx=011616 GeodesicLength=1.5054328846422336 rxn_smarts="[C:1]([O:2][c:3]1[n:4][n:5]([H:11])[c:6]([H:12])[c:7]1[H:13])([H:8])([H:9])[H:10]>>[C:1]([O:2][N:4]=[C:3]=[C:7]([C:6](=[N:5][H:11])[H:12])[H:13])([H:8])([H:9])[H:10]"
C       -2.52708513       0.58988777      -0.04500579
O       -1.50167011      -0.37489706       0.07584616
C        0.07214011      -0.50520195       0.52015403
N       -0.12198722       0.69234649       0.16119694
N        1.91797024       0.73203258      -0.39297791
C        2.27074114      -0.50102576      -0.14599722
C        1.17284904      -1.28174339       0.32749407
H       -3.44924658       0.03074010      -0.19237141
H       -2.58289004       1.20677680       0.85368587
H       -2.33866465       1.21716706      -0.91884504
H        2.51633944       1.25988442      -1.01163455
H        3.30237513      -0.82641769      -0.04611555
H        1.26912864      -2.23954938       0.81457040
13
Frame=15 idx=011616 GeodesicLength=1.6051099974472016 rxn_smarts="[C:1]([O:2][c:3]1[n:4][n:5]([H:11])[c:6]([H:12])[c:7]1[H:13])([H:8])([H:9])[H:10]>>[C:1]([O:2][N:4]=[C:3]=[C:7]([C:6](=[N:5][H:11])[H:12])[H:13])([H:8])([H:9])[H:10]"
C       -2.52592445       0.59056351      -0.02936881
O       -1.50111506      -0.38310701      -0.05743884
C        0.05944630      -0.51025888       0.46125887
N       -0.10224489       0.67212566       0.03653303
N        1.90573155       0.71628556      -0.40921299
C        2.27686344      -0.50361752      -0.11686247
C        1.17803476      -1.28049403       0.35464170
H       -3.45887110       0.04925704      -0.17526544
H       -2.53123069       1.13129517       0.91894177
H       -2.38497796       1.29525813      -0.85194895
H        2.50490640       1.24666314      -1.02432439
H        3.31164868      -0.80574927       0.01292715
H        1.26773303      -2.21822152       0.88011937
13
Frame=16 idx=011616 GeodesicLength=1.7061563691176271 rxn_smarts="[C:1]([O:2][c:3]1[n:4][n:5]([H:11])[c:6]([H:12])[c:7]1[H:13])([H:8])([H:9])[H:10]>>[C:1]([O:2][N:4]=[C:3]=[C:7]([C:6](=[N:5][H:11])[H:12])[H:13])([H:8])([H:9])[H:10]"
C       -2.51740674       0.58876541      -0.01597907
O       -1.50267165      -0.38430981      -0.17609923
C        0.04576514      -0.51745271       0.40435221
N       -0.08129452       0.65219371      -0.06927256
N        1.88914790       0.70130063      -0.42712456
C        2.27714970      -0.50408919      -0.09053372
C        1.17803956      -1.27712422       0.38041371
H       -3.46094115       0.06713754      -0.16505949
H       -2.47884880       1.05358818       0.97122728
H       -2.41090161       1.36265670      -0.77968468
H        2.48731860       1.23413990      -1.04048799
H        3.31424766      -0.78242545       0.06662565
H        1.26039591      -2.19438069       0.94162243
