11
Frame=0 idx=001680 GeodesicLength=0.0 rxn_smarts="[O:1]([C@@:2]1([H:8])[C:3]([H:9])([H:10])[O:4]/[C:5]1=[N:6]\[H:11])[H:7]>>[O:1]=[C:2]([C:3]([O:4]/[C:5](=[N:6]\[H:11])[H:7])([H:9])[H:10])[H:8]"
O        0.38031313       1.62142975       0.97856633
C        1.07669672       0.78386702       0.30679115
C        0.84021885      -0.66390409       0.08574975
O       -0.46821369      -1.03648173       0.04543674
C       -1.17572590       0.09773469      -0.59450831
N       -2.32514097      -0.10291733      -1.02481307
H       -0.55785541       1.33537761       0.79343980
H        2.11071194       1.11071481       0.17149820
H        1.42331232      -0.94366423      -0.80454850
H        1.35020688      -1.13802017       0.94687512
H       -2.65452385      -1.06413631      -0.90448719
11
Frame=1 idx=001680 GeodesicLength=0.11593152898321103 rxn_smarts="[O:1]([C@@:2]1([H:8])[C:3]([H:9])([H:10])[O:4]/[C:5]1=[N:6]\[H:11])[H:7]>>[O:1]=[C:2]([C:3]([O:4]/[C:5](=[N:6]\[H:11])[H:7])([H:9])[H:10])[H:8]"
O        0.38563094       1.59990269       1.01152482
C        1.06574512       0.78114793       0.29842583
C        0.85051872      -0.67407033       0.09729283
O       -0.45890209      -1.05065769       0.02011625
C       -1.16099298       0.10045071      -0.57444260
N       -2.31484026      -0.07276772      -1.00644254
H       -0.57709215       1.31476976       0.81183633
H        2.06999456       1.14510005       0.06754130
H        1.45505789      -0.97174780      -0.77159371
H        1.33006385      -1.13353389       0.98219185
H       -2.64518362      -1.03859371      -0.93645036
11
Frame=2 idx=001680 GeodesicLength=0.23196468984693558 rxn_smarts="[O:1]([C@@:2]1([H:8])[C:3]([H:9])([H:10])[O:4]/[C:5]1=[N:6]\[H:11])[H:7]>>[O:1]=[C:2]([C:3]([O:4]/[C:5](=[N:6]\[H:11])[H:7])([H:9])[H:10])[H:8]"
O        0.39365905       1.58032246       1.04046692
C        1.05612043       0.77825254       0.29020023
C        0.86131097      -0.68369530       0.10850986
O       -0.44810977      -1.06374205      -0.00735334
C       -1.14650753       0.10269548      -0.55370311
N       -2.30405166      -0.04418034      -0.98721965
H       -0.59499059       1.29386805       0.83031466
H        2.02157855       1.17594085      -0.03243485
H        1.48783759      -0.99794111      -0.73761375
H        1.30825964      -1.12961561       1.01584379
H       -2.63510668      -1.01190495      -0.96701076
11
Frame=3 idx=001680 GeodesicLength=0.3481428692732378 rxn_smarts="[O:1]([C@@:2]1([H:8])[C:3]([H:9])([H:10])[O:4]/[C:5]1=[N:6]\[H:11])[H:7]>>[O:1]=[C:2]([C:3]([O:4]/[C:5](=[N:6]\[H:11])[H:7])([H:9])[H:10])[H:8]"
O        0.40463649       1.56297584       1.06562227
C        1.04774650       0.77544125       0.28148463
C        0.87237230      -0.69266105       0.11950885
O       -0.43597605      -1.07545662      -0.03659791
C       -1.13265885       0.10445160      -0.53165287
N       -2.29345920      -0.01717327      -0.96591901
H       -0.61148014       1.27285089       0.84908350
H        1.96646989       1.20261231      -0.12844486
H        1.52111704      -1.02241222      -0.70254859
H        1.28478173      -1.12589046       1.04788068
H       -2.62354971      -0.98473826      -0.99841668
11
Frame=4 idx=001680 GeodesicLength=0.46457512975369814 rxn_smarts="[O:1]([C@@:2]1([H:8])[C:3]([H:9])([H:10])[O:4]/[C:5]1=[N:6]\[H:11])[H:7]>>[O:1]=[C:2]([C:3]([O:4]/[C:5](=[N:6]\[H:11])[H:7])([H:9])[H:10])[H:8]"
O        0.41846756       1.54800488       1.08705058
C        1.04035805       0.77295811       0.27167080
C        0.88356801      -0.70087481       0.13018155
O       -0.42254725      -1.08574019      -0.06759491
C       -1.11973866       0.10542893      -0.50808575
N       -2.28354235       0.00767688      -0.94203796
H       -0.62678405       1.25185729       0.86799427
H        1.90618270       1.22464529      -0.21958038
H        1.55459578      -1.04516729      -0.66655236
H        1.25965761      -1.12199085       1.07815925
H       -2.61021741      -0.95679824      -1.03120510
11
Frame=5 idx=001680 GeodesicLength=0.5810966729378859 rxn_smarts="[O:1]([C@@:2]1([H:8])[C:3]([H:9])([H:10])[O:4]/[C:5]1=[N:6]\[H:11])[H:7]>>[O:1]=[C:2]([C:3]([O:4]/[C:5](=[N:6]\[H:11])[H:7])([H:9])[H:10])[H:8]"
O        0.43467403       1.53524382       1.10500428
C        1.03370206       0.77089624       0.26071070
C        0.89490672      -0.70823099       0.14037103
O       -0.40750939      -1.09435632      -0.10123514
C       -1.10744580       0.10544063      -0.48371243
N       -2.27378527       0.03049705      -0.91697463
H       -0.64125469       1.23063343       0.88668717
H        1.84223756       1.24201456      -0.30486830
H        1.58852165      -1.06589769      -0.62956331
H        1.23258581      -1.11791461       1.10650150
H       -2.59663268      -0.92832611      -1.06292087
11
Frame=6 idx=001680 GeodesicLength=0.6977603645988034 rxn_smarts="[O:1]([C@@:2]1([H:8])[C:3]([H:9])([H:10])[O:4]/[C:5]1=[N:6]\[H:11])[H:7]>>[O:1]=[C:2]([C:3]([O:4]/[C:5](=[N:6]\[H:11])[H:7])([H:9])[H:10])[H:8]"
O        0.45288030       1.52455482       1.11960263
C        1.02744482       0.76929650       0.24845238
C        0.90627217      -0.71474062       0.14995112
O       -0.39094180      -1.10125271      -0.13755552
C       -1.09586959       0.10418853      -0.45871536
N       -2.26430627       0.05082273      -0.89115400
H       -0.65535295       1.20935255       0.90475860
H        1.77646877       1.25487679      -0.38352494
H        1.62259055      -1.08453862      -0.59180541
H        1.20360835      -1.11359881       1.13261086
H       -2.58279434      -0.89896116      -1.09262036
11
Frame=7 idx=001680 GeodesicLength=0.8145777283972905 rxn_smarts="[O:1]([C@@:2]1([H:8])[C:3]([H:9])([H:10])[O:4]/[C:5]1=[N:6]\[H:11])[H:7]>>[O:1]=[C:2]([C:3]([O:4]/[C:5](=[N:6]\[H:11])[H:7])([H:9])[H:10])[H:8]"
O        0.47335091       1.51618991       1.13100383
C        1.02139129       0.76816175       0.23478274
C        0.91738266      -0.72045878       0.15916559
O       -0.37316578      -1.10612172      -0.17559720
C       -1.08535481       0.10143407      -0.43213878
N       -2.25571968       0.06834901      -0.86302461
H       -0.66895734       1.18830448       0.92270254
H        1.70971504       1.26341579      -0.45659047
H        1.65597808      -1.10138579      -0.55342472
H        1.17300843      -1.10900345       1.15650769
H       -2.56762880      -0.86888527      -1.12338661
11
Frame=8 idx=001680 GeodesicLength=0.9315453651695851 rxn_smarts="[O:1]([C@@:2]1([H:8])[C:3]([H:9])([H:10])[O:4]/[C:5]1=[N:6]\[H:11])[H:7]>>[O:1]=[C:2]([C:3]([O:4]/[C:5](=[N:6]\[H:11])[H:7])([H:9])[H:10])[H:8]"
O        0.49575357       1.50973031       1.13951798
C        1.01528298       0.76734972       0.21994854
C        0.92816581      -0.72544276       0.16803873
O       -0.35431724      -1.10889423      -0.21482078
C       -1.07565467       0.09687086      -0.40434878
N       -2.24759489       0.08289112      -0.83364850
H       -0.68248447       1.16755413       0.94009673
H        1.64278084       1.26812523      -0.52398053
H        1.68819073      -1.11639220      -0.51476354
H        1.14124378      -1.10417826       1.17801057
H       -2.55136644      -0.83761392      -1.15405041
11
Frame=9 idx=001680 GeodesicLength=1.0486340661627005 rxn_smarts="[O:1]([C@@:2]1([H:8])[C:3]([H:9])([H:10])[O:4]/[C:5]1=[N:6]\[H:11])[H:7]>>[O:1]=[C:2]([C:3]([O:4]/[C:5](=[N:6]\[H:11])[H:7])([H:9])[H:10])[H:8]"
O        0.51977253       1.50474403       1.14564693
C        1.00901305       0.76673380       0.20438805
C        0.93858101      -0.72975534       0.17660196
O       -0.33458434      -1.10947672      -0.25456697
C       -1.06636177       0.09039750      -0.37594194
N       -2.23914335       0.09496940      -0.80478642
H       -0.69634769       1.14711064       0.95658247
H        1.57619535       1.26961402      -0.58570512
H        1.71881708      -1.12955077      -0.47625355
H        1.10885206      -1.09930581       1.19696125
H       -2.53479392      -0.80548074      -1.18292665
11
Frame=10 idx=001680 GeodesicLength=1.1658967585531184 rxn_smarts="[O:1]([C@@:2]1([H:8])[C:3]([H:9])([H:10])[O:4]/[C:5]1=[N:6]\[H:11])[H:7]>>[O:1]=[C:2]([C:3]([O:4]/[C:5](=[N:6]\[H:11])[H:7])([H:9])[H:10])[H:8]"
O        0.54545236       1.50127192       1.14953421
C        1.00230877       0.76624636       0.18810721
C        0.94852023      -0.73356027       0.18507807
O       -0.31475295      -1.10819519      -0.29268126
C       -1.05765154       0.08170904      -0.34626137
N       -2.23045449       0.10455092      -0.77612019
H       -0.71074172       1.12710313       0.97256197
H        1.50973719       1.26822791      -0.64274280
H        1.74702542      -1.14123742      -0.43874331
H        1.07719204      -1.09432955       1.21358371
H       -2.51663530      -0.77178686      -1.21231626
11
Frame=11 idx=001680 GeodesicLength=1.2833762892329166 rxn_smarts="[O:1]([C@@:2]1([H:8])[C:3]([H:9])([H:10])[O:4]/[C:5]1=[N:6]\[H:11])[H:7]>>[O:1]=[C:2]([C:3]([O:4]/[C:5](=[N:6]\[H:11])[H:7])([H:9])[H:10])[H:8]"
O        0.57255377       1.49896555       1.15145527
C        0.99489582       0.76576307       0.17132962
C        0.95802976      -0.73693852       0.19353863
O       -0.29541609      -1.10563067      -0.32762836
C       -1.04933074       0.07068633      -0.31557380
N       -2.22075646       0.11254168      -0.74939038
H       -0.72610367       1.10725503       0.98807629
H        1.44315073       1.26441882      -0.69537225
H        1.77246218      -1.15153681      -0.40301483
H        1.04750129      -1.08916998       1.22811366
H       -2.49698658      -0.73635450      -1.24153385
11
Frame=12 idx=001680 GeodesicLength=1.401192135260563 rxn_smarts="[O:1]([C@@:2]1([H:8])[C:3]([H:9])([H:10])[O:4]/[C:5]1=[N:6]\[H:11])[H:7]>>[O:1]=[C:2]([C:3]([O:4]/[C:5](=[N:6]\[H:11])[H:7])([H:9])[H:10])[H:8]"
O        0.60103987       1.49778072       1.15132357
C        0.98630168       0.76516934       0.15395784
C        0.96718380      -0.73997939       0.20213963
O       -0.27730157      -1.10273427      -0.35755105
C       -1.04158366       0.05701163      -0.28335177
N       -2.20967942       0.11971296      -0.72524775
H       -0.74269881       1.08710339       1.00374675
H        1.37555344       1.25833394      -0.74441347
H        1.79488152      -1.16064920      -0.36981714
H        1.02123741      -1.08350912       1.24109445
H       -2.47493426      -0.69823999      -1.27188107
11
Frame=13 idx=001680 GeodesicLength=1.5194938705125278 rxn_smarts="[O:1]([C@@:2]1([H:8])[C:3]([H:9])([H:10])[O:4]/[C:5]1=[N:6]\[H:11])[H:7]>>[O:1]=[C:2]([C:3]([O:4]/[C:5](=[N:6]\[H:11])[H:7])([H:9])[H:10])[H:8]"
O        0.63072972       1.49760565       1.14895150
C        0.97600860       0.76432773       0.13592874
C        0.97611705      -0.74272162       0.21093443
O       -0.26087843      -1.10052360      -0.38147267
C       -1.03451236       0.04045452      -0.24943422
N       -2.19638326       0.12754514      -0.70509974
H       -0.76086064       1.06589335       1.02013919
H        1.30606100       1.25005509      -0.79035110
H        1.81449311      -1.16856546      -0.33957562
H        0.99934534      -1.07709733       1.25305073
H       -2.45012013      -0.65697348      -1.30307124
11
Frame=14 idx=001680 GeodesicLength=1.638571462338926 rxn_smarts="[O:1]([C@@:2]1([H:8])[C:3]([H:9])([H:10])[O:4]/[C:5]1=[N:6]\[H:11])[H:7]>>[O:1]=[C:2]([C:3]([O:4]/[C:5](=[N:6]\[H:11])[H:7])([H:9])[H:10])[H:8]"
O        0.66149943       1.49854277       1.14378119
C        0.96331421       0.76307247       0.11698004
C        0.98492838      -0.74517577       0.21999313
O       -0.24657993      -1.10004689      -0.39863220
C       -1.02843247       0.02063137      -0.21331358
N       -2.18019713       0.13726964      -0.68934637
H       -0.78079473       1.04271256       1.03809978
H        1.23348922       1.23933733      -0.83386320
H        1.83159269      -1.17525117      -0.31252564
H        0.98255361      -1.06957110       1.26459091
H       -2.42137327      -0.61152122      -1.33576405
11
Frame=15 idx=001680 GeodesicLength=1.7588166107733658 rxn_smarts="[O:1]([C@@:2]1([H:8])[C:3]([H:9])([H:10])[O:4]/[C:5]1=[N:6]\[H:11])[H:7]>>[O:1]=[C:2]([C:3]([O:4]/[C:5](=[N:6]\[H:11])[H:7])([H:9])[H:10])[H:8]"
O        0.69307429       1.50061153       1.13535616
C        0.94777156       0.76128957       0.09710543
C        0.99359797      -0.74726597       0.22922663
O       -0.23445604      -1.10176691      -0.40951277
C       -1.02330602      -0.00222008      -0.17571601
N       -2.16027209       0.15015103      -0.67830407
H       -0.80275164       1.01657368       1.05795343
H        1.15760018       1.22608085      -0.87496974
H        1.84663619      -1.18058337      -0.28846853
H        0.97050164      -1.06080189       1.27599244
H       -2.38839605      -0.56206844      -1.36866297
11
Frame=16 idx=001680 GeodesicLength=1.8806307290155602 rxn_smarts="[O:1]([C@@:2]1([H:8])[C:3]([H:9])([H:10])[O:4]/[C:5]1=[N:6]\[H:11])[H:7]>>[O:1]=[C:2]([C:3]([O:4]/[C:5](=[N:6]\[H:11])[H:7])([H:9])[H:10])[H:8]"
O        0.72538309       1.50396808       1.12317957
C        0.92927830       0.75892595       0.07637249
C        1.00200061      -0.74886365       0.23853900
O       -0.22443306      -1.10569035      -0.41507665
C       -1.01899124      -0.02734014      -0.13790184
N       -2.13680643       0.16594211      -0.67045643
H       -0.82682058       0.98672769       1.07976979
H        1.07890739       1.21019651      -0.91358445
H        1.86000773      -1.18458016      -0.26691961
H        0.96222757      -1.05063770       1.28740457
H       -2.35075336      -0.50864834      -1.40132645
