13
Frame=0 idx=007861 GeodesicLength=0.0 rxn_smarts="[N:1]([C:2](=[O:3])[C:4]([O:5]/[C:6](=[N:7]/[H:13])[H:12])([H:10])[H:11])([H:8])[H:9]>>[N:1]([C:2][C:4]([O:5][C@:6]1([H:12])[O:3][N:7]1[H:13])([H:10])[H:11])([H:8])[H:9]"
N       -1.96707537      -0.31924700      -0.48017016
C       -1.05284131       0.12429048       0.38371511
O        0.13591773       1.12986868      -0.34502660
C       -0.06940481      -0.93049046       0.81451477
O        1.14925509      -0.27488477       1.14252822
C        1.32425156       0.78132535       0.29927875
N        1.55327277       0.51671408      -1.06732029
H       -2.72246112       0.28078112      -0.75647192
H       -1.82522778      -1.14359596      -1.05332674
H        0.11400319      -1.69239930       0.03750270
H       -0.41963805      -1.42522312       1.71976754
H        1.85978005       1.58692312       0.80019380
H        1.92016807       1.36593774      -1.49518516
13
Frame=1 idx=007861 GeodesicLength=0.12068139657119603 rxn_smarts="[N:1]([C:2](=[O:3])[C:4]([O:5]/[C:6](=[N:7]/[H:13])[H:12])([H:10])[H:11])([H:8])[H:9]>>[N:1]([C:2][C:4]([O:5][C@:6]1([H:12])[O:3][N:7]1[H:13])([H:10])[H:11])([H:8])[H:9]"
N       -1.96729245      -0.32960888      -0.48870209
C       -1.06707855       0.12047433       0.38617821
O        0.10504572       1.16844708      -0.31161511
C       -0.07390335      -0.92455381       0.81953359
O        1.14661058      -0.27056644       1.14568039
C        1.33565079       0.77918162       0.29960808
N        1.52259359       0.51552610      -1.06887822
H       -2.73553475       0.25778467      -0.75714587
H       -1.79064939      -1.13026158      -1.08553972
H        0.11872836      -1.68396665       0.04296157
H       -0.42149992      -1.41507060       1.72799201
H        1.90988635       1.56340452       0.79173271
H        1.91744301       1.34920966      -1.50180555
13
Frame=2 idx=007861 GeodesicLength=0.24106598462864315 rxn_smarts="[N:1]([C:2](=[O:3])[C:4]([O:5]/[C:6](=[N:7]/[H:13])[H:12])([H:10])[H:11])([H:8])[H:9]>>[N:1]([C:2][C:4]([O:5][C@:6]1([H:12])[O:3][N:7]1[H:13])([H:10])[H:11])([H:8])[H:9]"
N       -1.96667083      -0.33966242      -0.49769094
C       -1.08107016       0.11642328       0.38863316
O        0.07410115       1.20600304      -0.27635252
C       -0.07824740      -0.91880532       0.82469376
O        1.14429970      -0.26645528       1.14861449
C        1.34704101       0.77660499       0.29956215
N        1.49210524       0.51537888      -1.06982396
H       -2.74678064       0.23511458      -0.75970715
H       -1.75627624      -1.11561067      -1.11600867
H        0.12333637      -1.67574719       0.04862095
H       -0.42323408      -1.40476447       1.73649115
H        1.95806900       1.53898403       0.78178160
H        1.91332687       1.33253654      -1.50881401
13
Frame=3 idx=007861 GeodesicLength=0.36129049071055996 rxn_smarts="[N:1]([C:2](=[O:3])[C:4]([O:5]/[C:6](=[N:7]/[H:13])[H:12])([H:10])[H:11])([H:8])[H:9]>>[N:1]([C:2][C:4]([O:5][C@:6]1([H:12])[O:3][N:7]1[H:13])([H:10])[H:11])([H:8])[H:9]"
N       -1.96530771      -0.34940079      -0.50702854
C       -1.09480932       0.11215505       0.39104600
O        0.04292971       1.24242505      -0.23945636
C       -0.08241940      -0.91321246       0.82991863
O        1.14226305      -0.26243376       1.15132070
C        1.35840192       0.77366745       0.29909748
N        1.46202511       0.51615897      -1.07013581
H       -2.75640687       0.21281000      -0.76386579
H       -1.72217820      -1.09979112      -1.14479122
H        0.12787429      -1.66767833       0.05437852
H       -0.42481739      -1.39431724       1.74515233
H        2.00426221       1.51384749       0.77052916
H        1.90818260       1.31576970      -1.51616509
13
Frame=4 idx=007861 GeodesicLength=0.481467881512466 rxn_smarts="[N:1]([C:2](=[O:3])[C:4]([O:5]/[C:6](=[N:7]/[H:13])[H:12])([H:10])[H:11])([H:8])[H:9]>>[N:1]([C:2][C:4]([O:5][C@:6]1([H:12])[O:3][N:7]1[H:13])([H:10])[H:11])([H:8])[H:9]"
N       -1.96328395      -0.35880858      -0.51665610
C       -1.10830238       0.10769171       0.39338580
O        0.01136566       1.27765766      -0.20112295
C       -0.08640500      -0.90775493       0.83513322
O        1.14045491      -0.25841441       1.15381524
C        1.36972391       0.77044414       0.29820981
N        1.43253085       0.51775331      -1.06980690
H       -2.76460014       0.19091413      -0.76938949
H       -1.68847022      -1.08297790      -1.17188138
H        0.13239430      -1.65970310       0.06012201
H       -0.42622727      -1.38377114       1.75386731
H        2.04847026       1.48819028       0.75812809
H        1.90234906       1.29877883      -1.52380466
13
Frame=5 idx=007861 GeodesicLength=0.602033138130261 rxn_smarts="[N:1]([C:2](=[O:3])[C:4]([O:5]/[C:6](=[N:7]/[H:13])[H:12])([H:10])[H:11])([H:8])[H:9]>>[N:1]([C:2][C:4]([O:5][C@:6]1([H:12])[O:3][N:7]1[H:13])([H:10])[H:11])([H:8])[H:9]"
N       -1.96069138      -0.36789473      -0.52650997
C       -1.12157287       0.10305838       0.39562157
O       -0.02084753       1.31172718      -0.16155880
C       -0.09019414      -0.90237468       0.84025976
O        1.13880416      -0.25426420       1.15614339
C        1.38107346       0.76699913       0.29691728
N        1.40376114       0.52007758      -1.06884566
H       -2.77161862       0.16934490      -0.77599293
H       -1.65521509      -1.06528130      -1.19736429
H        0.13695913      -1.65172236       0.06574712
H       -0.42745470      -1.37314975       1.76250928
H        2.09083223       1.46209968       0.74476773
H        1.89616420       1.28138017      -1.53169448
13
Frame=6 idx=007861 GeodesicLength=0.722924205013911 rxn_smarts="[N:1]([C:2](=[O:3])[C:4]([O:5]/[C:6](=[N:7]/[H:13])[H:12])([H:10])[H:11])([H:8])[H:9]>>[N:1]([C:2][C:4]([O:5][C@:6]1([H:12])[O:3][N:7]1[H:13])([H:10])[H:11])([H:8])[H:9]"
N       -1.95758219      -0.37665063      -0.53656832
C       -1.13465336       0.09825513       0.39774506
O       -0.05390009       1.34463458      -0.12077248
C       -0.09378224      -0.89705130       0.84525669
O        1.13726105      -0.24989135       1.15833876
C        1.39244795       0.76337450       0.29521489
N        1.37580762       0.52306332      -1.06726176
H       -2.77757956       0.14811192      -0.78355827
H       -1.62247579      -1.04679667      -1.22127071
H        0.14161846      -1.64368218       0.07118843
H       -0.42848141      -1.36249703       1.77101350
H        2.13145390       1.43568816       0.73048495
H        1.88986565       1.26344155      -1.53981073
13
Frame=7 idx=007861 GeodesicLength=0.8440369085869104 rxn_smarts="[N:1]([C:2](=[O:3])[C:4]([O:5]/[C:6](=[N:7]/[H:13])[H:12])([H:10])[H:11])([H:8])[H:9]>>[N:1]([C:2][C:4]([O:5][C@:6]1([H:12])[O:3][N:7]1[H:13])([H:10])[H:11])([H:8])[H:9]"
N       -1.95401057      -0.38508243      -0.54680477
C       -1.14759175       0.09327252       0.39975899
O       -0.08799166       1.37639853      -0.07872852
C       -0.09716497      -0.89174730       0.85009538
O        1.13576122      -0.24516525       1.16044273
C        1.40383679       0.75964257       0.29311294
N        1.34871832       0.52668654      -1.06507138
H       -2.78259282       0.12719340      -0.79198386
H       -1.59026165      -1.02758746      -1.24367926
H        0.14643246      -1.63550930       0.07640060
H       -0.42928817      -1.35184485       1.77931947
H        2.17049033       1.40893897       0.71528310
H        1.88366245       1.24480407      -1.54814543
13
Frame=8 idx=007861 GeodesicLength=0.9654603167977625 rxn_smarts="[N:1]([C:2](=[O:3])[C:4]([O:5]/[C:6](=[N:7]/[H:13])[H:12])([H:10])[H:11])([H:8])[H:9]>>[N:1]([C:2][C:4]([O:5][C@:6]1([H:12])[O:3][N:7]1[H:13])([H:10])[H:11])([H:8])[H:9]"
N       -1.94999415      -0.39318641      -0.55724023
C       -1.16041741       0.08810460       0.40164471
O       -0.12335638       1.40705251      -0.03537437
C       -0.10034024      -0.88642110       0.85474285
O        1.13425113      -0.23997819       1.16249771
C        1.41530134       0.75582147       0.29062264
N        1.32252421       0.53094242      -1.06230188
H       -2.78678445       0.10651918      -0.80113817
H       -1.55860905      -1.00766885      -1.26465758
H        0.15145496      -1.62713150       0.08134210
H       -0.42987070      -1.34121298       1.78736689
H        2.20808638       1.38189154       0.69920786
H        1.87775438       1.22526732      -1.55671254
13
Frame=9 idx=007861 GeodesicLength=1.085887201794318 rxn_smarts="[N:1]([C:2](=[O:3])[C:4]([O:5]/[C:6](=[N:7]/[H:13])[H:12])([H:10])[H:11])([H:8])[H:9]>>[N:1]([C:2][C:4]([O:5][C@:6]1([H:12])[O:3][N:7]1[H:13])([H:10])[H:11])([H:8])[H:9]"
N       -1.94557976      -0.40087591      -0.56777285
C       -1.17319546       0.08262980       0.40357457
O       -0.15996466       1.43638406       0.00951203
C       -0.10324111      -0.88114132       0.85914487
O        1.13273928      -0.23427748       1.16434654
C        1.42657933       0.75212365       0.28773905
N        1.29712862       0.53583465      -1.05908635
H       -2.79004654       0.08639569      -0.81095720
H       -1.52759758      -0.98694301      -1.28426669
H        0.15673894      -1.61850915       0.08583990
H       -0.43000874      -1.33083269       1.79510808
H        2.24374779       1.35522743       0.68240264
H        1.87269988       1.20398429      -1.56558457
13
Frame=10 idx=007861 GeodesicLength=1.2065838039890942 rxn_smarts="[N:1]([C:2](=[O:3])[C:4]([O:5]/[C:6](=[N:7]/[H:13])[H:12])([H:10])[H:11])([H:8])[H:9]>>[N:1]([C:2][C:4]([O:5][C@:6]1([H:12])[O:3][N:7]1[H:13])([H:10])[H:11])([H:8])[H:9]"
N       -1.94076462      -0.40821557      -0.57848289
C       -1.18589112       0.07695352       0.40536020
O       -0.19835655       1.46457559       0.05588958
C       -0.10589587      -0.87575336       0.86329587
O        1.13112588      -0.22786601       1.16619040
C        1.43799873       0.74845216       0.28449097
N        1.27255542       0.54152408      -1.05535100
H       -2.79264206       0.06647228      -0.82132119
H       -1.49712240      -0.96549989      -1.30266457
H        0.16236290      -1.60951815       0.08997445
H       -0.42985675      -1.32051799       1.80247732
H        2.27827929       1.32830024       0.66491869
H        1.86820715       1.18109311      -1.57477785
13
Frame=11 idx=007861 GeodesicLength=1.3274728608898703 rxn_smarts="[N:1]([C:2](=[O:3])[C:4]([O:5]/[C:6](=[N:7]/[H:13])[H:12])([H:10])[H:11])([H:8])[H:9]>>[N:1]([C:2][C:4]([O:5][C@:6]1([H:12])[O:3][N:7]1[H:13])([H:10])[H:11])([H:8])[H:9]"
N       -1.93555822      -0.41519229      -0.58937548
C       -1.19853464       0.07105866       0.40700987
O       -0.23882261       1.49162738       0.10392222
C       -0.10828423      -0.87020218       0.86717650
O        1.12936039      -0.22058669       1.16806783
C        1.44958345       0.74488982       0.28089237
N        1.24874347       0.54812607      -1.05111581
H       -2.79460152       0.04673019      -0.83221450
H       -1.46712732      -0.94333100      -1.31995216
H        0.16840238      -1.60005955       0.09371390
H       -0.42938038      -1.31029316       1.80943154
H        2.31189927       1.30100150       0.64677588
H        1.86431995       1.15623126      -1.58433216
13
Frame=12 idx=007861 GeodesicLength=1.4485457649769313 rxn_smarts="[N:1]([C:2](=[O:3])[C:4]([O:5]/[C:6](=[N:7]/[H:13])[H:12])([H:10])[H:11])([H:8])[H:9]>>[N:1]([C:2][C:4]([O:5][C@:6]1([H:12])[O:3][N:7]1[H:13])([H:10])[H:11])([H:8])[H:9]"
N       -1.92995743      -0.42179444      -0.60046929
C       -1.21114587       0.06493440       0.40851669
O       -0.28167512       1.51752886       0.15379310
C       -0.11038397      -0.86442181       0.87077101
O        1.12739285      -0.21228224       1.17001725
C        1.46140623       0.74147615       0.27695723
N        1.22562675       0.55579788      -1.04639184
H       -2.79593433       0.02715336      -0.84365035
H       -1.43754905      -0.92042140      -1.33621987
H        0.17493594      -1.59002423       0.09703719
H       -0.42854374      -1.30016278       1.81593194
H        2.34483260       1.27319679       0.62798956
H        1.86099514       1.12901948      -1.59428263
13
Frame=13 idx=007861 GeodesicLength=1.5698099871587188 rxn_smarts="[N:1]([C:2](=[O:3])[C:4]([O:5]/[C:6](=[N:7]/[H:13])[H:12])([H:10])[H:11])([H:8])[H:9]>>[N:1]([C:2][C:4]([O:5][C@:6]1([H:12])[O:3][N:7]1[H:13])([H:10])[H:11])([H:8])[H:9]"
N       -1.92391685      -0.42799440      -0.61182057
C       -1.22373654       0.05857146       0.40985654
O       -0.32728166       1.54218712       0.20573809
C       -0.11217724      -0.85831434       0.87408613
O        1.12515227      -0.20273854       1.17210670
C        1.47356022       0.73824433       0.27268864
N        1.20317132       0.56468802      -1.04116397
H       -2.79660708       0.00771159      -0.85570113
H       -1.40828051      -0.89673995      -1.35156337
H        0.18204592      -1.57928196       0.09996663
H       -0.42731864      -1.29008031       1.82195988
H        2.37738396       1.24456760       0.60847195
H        1.85800483       1.09917938      -1.60462552
13
Frame=14 idx=007861 GeodesicLength=1.6910618202119256 rxn_smarts="[N:1]([C:2](=[O:3])[C:4]([O:5]/[C:6](=[N:7]/[H:13])[H:12])([H:10])[H:11])([H:8])[H:9]>>[N:1]([C:2][C:4]([O:5][C@:6]1([H:12])[O:3][N:7]1[H:13])([H:10])[H:11])([H:8])[H:9]"
N       -1.91738364      -0.43375139      -0.62347491
C       -1.23631580       0.05194295       0.41103003
O       -0.37598542       1.56549941       0.26000531
C       -0.11361035      -0.85180336       0.87708984
O        1.12258669      -0.19174222       1.17438719
C        1.48609065       0.73529404       0.26812930
N        1.18129655       0.57512003      -1.03536316
H       -2.79658004      -0.01159377      -0.86840010
H       -1.37924251      -0.87216284      -1.36607100
H        0.18986717      -1.56766754       0.10243781
H       -0.42563212      -1.28008828       1.82744615
H        2.40971060       1.21497576       0.58819201
H        1.85519820       1.06597720      -1.61540846
13
Frame=15 idx=007861 GeodesicLength=1.8122145663500095 rxn_smarts="[N:1]([C:2](=[O:3])[C:4]([O:5]/[C:6](=[N:7]/[H:13])[H:12])([H:10])[H:11])([H:8])[H:9]>>[N:1]([C:2][C:4]([O:5][C@:6]1([H:12])[O:3][N:7]1[H:13])([H:10])[H:11])([H:8])[H:9]"
N       -1.91027399      -0.43900222      -0.63550522
C       -1.24890400       0.04501506       0.41202910
O       -0.42826299       1.58731573       0.31697684
C       -0.11459357      -0.84477636       0.87972631
O        1.11963037      -0.17897009       1.17692303
C        1.49903977       0.73280025       0.26334284
N        1.15991483       0.58760975      -1.02885664
H       -2.79582866      -0.03081879      -0.88178305
H       -1.35028308      -0.84641499      -1.37987361
H        0.19861692      -1.55493681       0.10434745
H       -0.42336198      -1.27025285       1.83227297
H        2.44197380       1.18418632       0.56707278
H        1.85233258       1.02824498      -1.62667280
13
Frame=16 idx=007861 GeodesicLength=1.9332055389487652 rxn_smarts="[N:1]([C:2](=[O:3])[C:4]([O:5]/[C:6](=[N:7]/[H:13])[H:12])([H:10])[H:11])([H:8])[H:9]>>[N:1]([C:2][C:4]([O:5][C@:6]1([H:12])[O:3][N:7]1[H:13])([H:10])[H:11])([H:8])[H:9]"
N       -1.90244542      -0.44366411      -0.64803050
C       -1.26148412       0.03778149       0.41281880
O       -0.48455729       1.60747144       0.37694689
C       -0.11505125      -0.83710053       0.88197126
O        1.11621240      -0.16408704       1.17978831
C        1.51252379       0.73087223       0.25837691
N        1.13903446       0.60252400      -1.02158195
H       -2.79424086      -0.04999172      -0.89597342
H       -1.32123618      -0.81931928      -1.39306359
H        0.20847889      -1.54088324       0.10565707
H       -0.42042581      -1.26056774       1.83638790
H        2.47444701       1.15178756       0.54502611
H        1.84874438       0.98517696      -1.63832379
