15
Frame=0 idx=008742 GeodesicLength=0.0 rxn_smarts="[N:1]([C:2](=[O:3])[N:4]([C:5]([C:6]([O:7][H:15])([H:13])[H:14])([H:11])[H:12])[H:10])([H:8])[H:9]>>[N:1]([C@@:2]1([O:3][H:15])[N:4]([H:10])[C:5]([H:11])([H:12])[C:6]([H:13])([H:14])[O:7]1)([H:8])[H:9]"
N        1.40020579      -0.39655482      -1.72003505
C        0.29879054       0.01295900      -1.06248697
O       -0.21783156       1.16679555      -1.45626323
N       -0.46548812      -0.90620255      -0.42460398
C       -1.21389905      -0.36821784       0.70502694
C       -0.19132813       0.42713576       1.55630312
O        0.64675079       1.09284266       0.70446276
H        1.91513592       0.33717669      -2.17367502
H        1.94289483      -1.15337000      -1.34489374
H        0.02249294      -1.76472204      -0.21792372
H       -1.69758785      -1.18876954       1.23466170
H       -1.98727464       0.29478095       0.31529291
H        0.36138604      -0.28046578       2.20302602
H       -0.75407170       1.09473900       2.22600850
H       -0.06017583       1.63187292      -0.54490018
15
Frame=1 idx=008742 GeodesicLength=0.06159961550278435 rxn_smarts="[N:1]([C:2](=[O:3])[N:4]([C:5]([C:6]([O:7][H:15])([H:13])[H:14])([H:11])[H:12])[H:10])([H:8])[H:9]>>[N:1]([C@@:2]1([O:3][H:15])[N:4]([H:10])[C:5]([H:11])([H:12])[C:6]([H:13])([H:14])[O:7]1)([H:8])[H:9]"
N        1.40579112      -0.40608872      -1.71499061
C        0.30538694       0.01769132      -1.05835676
O       -0.20775928       1.16623259      -1.46765660
N       -0.47266848      -0.89981179      -0.42921737
C       -1.21461886      -0.36895513       0.70757258
C       -0.19161343       0.42631620       1.55535984
O        0.62929614       1.11346095       0.70062960
H        1.91906661       0.32156910      -2.18054255
H        1.95398444      -1.14693537      -1.31611399
H       -0.00189660      -1.77193402      -0.24238384
H       -1.68949775      -1.19317087       1.23948061
H       -1.99441845       0.29259362       0.32778077
H        0.37824929      -0.28152896       2.18606083
H       -0.74943649       1.08272183       2.23910348
H       -0.06986521       1.64783925      -0.54672600
15
Frame=2 idx=008742 GeodesicLength=0.1231193072786905 rxn_smarts="[N:1]([C:2](=[O:3])[N:4]([C:5]([C:6]([O:7][H:15])([H:13])[H:14])([H:11])[H:12])[H:10])([H:8])[H:9]>>[N:1]([C@@:2]1([O:3][H:15])[N:4]([H:10])[C:5]([H:11])([H:12])[C:6]([H:13])([H:14])[O:7]1)([H:8])[H:9]"
N        1.41143995      -0.41568005      -1.70945940
C        0.31197214       0.02246695      -1.05415040
O       -0.19731871       1.16564004      -1.47901026
N       -0.47987932      -0.89326535      -0.43392921
C       -1.21515739      -0.36992670       0.71023502
C       -0.19179503       0.42568459       1.55426086
O        0.61124892       1.13407684       0.69667577
H        1.92397157       0.30594841      -2.18549380
H        1.96385731      -1.14130428      -1.28846089
H       -0.02672299      -1.77833718      -0.26757436
H       -1.68064111      -1.19802114       1.24441337
H       -2.00166867       0.28979195       0.34069889
H        0.39525718      -0.28178667       2.16871523
H       -0.74445086       1.07083042       2.25179598
H       -0.08011296       1.66388216      -0.54871682
15
Frame=3 idx=008742 GeodesicLength=0.18456984640565346 rxn_smarts="[N:1]([C:2](=[O:3])[N:4]([C:5]([C:6]([O:7][H:15])([H:13])[H:14])([H:11])[H:12])[H:10])([H:8])[H:9]>>[N:1]([C@@:2]1([O:3][H:15])[N:4]([H:10])[C:5]([H:11])([H:12])[C:6]([H:13])([H:14])[O:7]1)([H:8])[H:9]"
N        1.41712263      -0.42533803      -1.70346885
C        0.31854090       0.02728916      -1.04987379
O       -0.18647517       1.16505055      -1.49028305
N       -0.48713476      -0.88655095      -0.43875191
C       -1.21551123      -0.37114034       0.71300793
C       -0.19187864       0.42522883       1.55301105
O        0.59262958       1.15462469       0.69261213
H        1.92973788       0.29030655      -2.18874135
H        1.97262034      -1.13646400      -1.26174279
H       -0.05199945      -1.78387880      -0.29349984
H       -1.67099997      -1.20333110       1.24942596
H       -2.00901577       0.28636100       0.35406286
H        0.41235819      -0.28124884       2.15102008
H       -0.73911390       1.05909312       2.26406576
H       -0.09088062       1.67999816      -0.55084418
15
Frame=4 idx=008742 GeodesicLength=0.24596087615482076 rxn_smarts="[N:1]([C:2](=[O:3])[N:4]([C:5]([C:6]([O:7][H:15])([H:13])[H:14])([H:11])[H:12])[H:10])([H:8])[H:9]>>[N:1]([C@@:2]1([O:3][H:15])[N:4]([H:10])[C:5]([H:11])([H:12])[C:6]([H:13])([H:14])[O:7]1)([H:8])[H:9]"
N        1.42280993      -0.43507529      -1.69704586
C        0.32509043       0.03216019      -1.04553180
O       -0.17519409       1.16449564      -1.50143567
N       -0.49444477      -0.87965678      -0.44369515
C       -1.21567530      -0.37260458       0.71588456
C       -0.19187246       0.42493971       1.55161634
O        0.57345965       1.17504411       0.68845018
H        1.93625991       0.27462269      -2.19047494
H        1.98036278      -1.13239478      -1.23580166
H       -0.07773040      -1.78850403      -0.32015861
H       -1.66055350      -1.20911191       1.25448266
H       -2.01644827       0.28228200       0.36788574
H        0.42950006      -0.27992336       2.13301123
H       -0.73343328       1.04754116       2.27589305
H       -0.10213070       1.69618525      -0.55308006
15
Frame=5 idx=008742 GeodesicLength=0.3073037884292014 rxn_smarts="[N:1]([C:2](=[O:3])[N:4]([C:5]([C:6]([O:7][H:15])([H:13])[H:14])([H:11])[H:12])[H:10])([H:8])[H:9]>>[N:1]([C@@:2]1([O:3][H:15])[N:4]([H:10])[C:5]([H:11])([H:12])[C:6]([H:13])([H:14])[O:7]1)([H:8])[H:9]"
N        1.42847294      -0.44490731      -1.69021898
C        0.33161974       0.03708092      -1.04112912
O       -0.16344329       1.16400561      -1.51243161
N       -0.50181590      -0.87257230      -0.44876711
C       -1.21564326      -0.37432834       0.71885749
C       -0.19178648       0.42481145       1.55008439
O        0.55376074       1.19528153       0.68420193
H        1.94344325       0.25887006      -2.19085743
H        1.98715688      -1.12907934      -1.21051404
H       -0.10391107      -1.79215781      -0.34754206
H       -1.64927821      -1.21537480       1.25954607
H       -2.02395396       0.27753335       0.38217769
H        0.44663241      -0.27781620       2.11472951
H       -0.72742424       1.03620933       2.28726079
H       -0.11382956       1.71244385      -0.55539752
15
Frame=6 idx=008742 GeodesicLength=0.36864690645837056 rxn_smarts="[N:1]([C:2](=[O:3])[N:4]([C:5]([C:6]([O:7][H:15])([H:13])[H:14])([H:11])[H:12])[H:10])([H:8])[H:9]>>[N:1]([C@@:2]1([O:3][H:15])[N:4]([H:10])[C:5]([H:11])([H:12])[C:6]([H:13])([H:14])[O:7]1)([H:8])[H:9]"
N        1.43408532      -0.45486113      -1.68301576
C        0.33812806       0.04205236      -1.03667862
O       -0.15119107       1.16362382      -1.52325345
N       -0.50925568      -0.86529309      -0.45398575
C       -1.21540828      -0.37632238       0.72191678
C       -0.19163028       0.42484072       1.54843648
O        0.53355200       1.21530064       0.67988881
H        1.95118673       0.24300175      -2.19006444
H        1.99307885      -1.12648663      -1.18574531
H       -0.13053559      -1.79480321      -0.37564817
H       -1.63714846      -1.22214124       1.26457629
H       -2.03151928       0.27210054       0.39693947
H        0.46371114      -0.27494413       2.09623504
H       -0.72110422       1.02513739       2.29817573
H       -0.12594924       1.72879459      -0.55777709
15
Frame=7 idx=008742 GeodesicLength=0.42986751600405854 rxn_smarts="[N:1]([C:2](=[O:3])[N:4]([C:5]([C:6]([O:7][H:15])([H:13])[H:14])([H:11])[H:12])[H:10])([H:8])[H:9]>>[N:1]([C@@:2]1([O:3][H:15])[N:4]([H:10])[C:5]([H:11])([H:12])[C:6]([H:13])([H:14])[O:7]1)([H:8])[H:9]"
N        1.43961885      -0.46493382      -1.67542096
C        0.34461864       0.04707422      -1.03215557
O       -0.13838869       1.16332013      -1.53382141
N       -0.51677837      -0.85776616      -0.45932312
C       -1.21495702      -0.37858862       0.72506539
C       -0.19141032       0.42500504       1.54661645
O        0.51284968       1.23502145       0.67546471
H        1.95942049       0.22697566      -2.18817566
H        1.99816294      -1.12452489      -1.16137977
H       -0.15765349      -1.79630522      -0.40446771
H       -1.62413145      -1.22937983       1.26954153
H       -2.03911570       0.26592394       0.41222861
H        0.48069885      -0.27128276       2.07746484
H       -0.71448297       1.01429585       2.30855384
H       -0.13845142       1.74516501      -0.56019116
15
Frame=8 idx=008742 GeodesicLength=0.4911124849246654 rxn_smarts="[N:1]([C:2](=[O:3])[N:4]([C:5]([C:6]([O:7][H:15])([H:13])[H:14])([H:11])[H:12])[H:10])([H:8])[H:9]>>[N:1]([C@@:2]1([O:3][H:15])[N:4]([H:10])[C:5]([H:11])([H:12])[C:6]([H:13])([H:14])[O:7]1)([H:8])[H:9]"
N        1.44505703      -0.47515641      -1.66745707
C        0.35107774       0.05215012      -1.02760644
O       -0.12502146       1.16317634      -1.54419149
N       -0.52440661      -0.85000857      -0.46483441
C       -1.21427760      -0.38114681       0.72829107
C       -0.19112517       0.42532230       1.54467766
O        0.49163808       1.25448010       0.67095580
H        1.96812575       0.21078365      -2.18523783
H        2.00241294      -1.12328576      -1.13734426
H       -0.18524382      -1.79668218      -0.43400757
H       -1.61016931      -1.23715108       1.27441222
H       -2.04673359       0.25899898       0.42802994
H        0.49759341      -0.26686295       2.05850650
H       -0.70755911       1.00374960       2.31847356
H       -0.15136828       1.76163265      -0.56266768
15
Frame=9 idx=008742 GeodesicLength=0.5523084257720102 rxn_smarts="[N:1]([C:2](=[O:3])[N:4]([C:5]([C:6]([O:7][H:15])([H:13])[H:14])([H:11])[H:12])[H:10])([H:8])[H:9]>>[N:1]([C@@:2]1([O:3][H:15])[N:4]([H:10])[C:5]([H:11])([H:12])[C:6]([H:13])([H:14])[O:7]1)([H:8])[H:9]"
N        1.45035965      -0.48555134      -1.65916611
C        0.35752290       0.05727211      -1.02299972
O       -0.11106423       1.16318321      -1.55426093
N       -0.53211479      -0.84199366      -0.47048747
C       -1.21336075      -0.38399519       0.73158108
C       -0.19080422       0.42578623       1.54260837
O        0.46996559       1.27358550       0.66637980
H        1.97717998       0.19435397      -2.18141631
H        2.00589481      -1.12270255      -1.11362396
H       -0.21324803      -1.79582486      -0.46420907
H       -1.59524747      -1.24542429       1.27911932
H       -2.05435273       0.25128943       0.44435129
H        0.51431532      -0.26167227       2.03939683
H       -0.70040642       0.99353543       2.32786021
H       -0.16463962       1.77815827      -0.56513333
15
Frame=10 idx=008742 GeodesicLength=0.6135699040487366 rxn_smarts="[N:1]([C:2](=[O:3])[N:4]([C:5]([C:6]([O:7][H:15])([H:13])[H:14])([H:11])[H:12])[H:10])([H:8])[H:9]>>[N:1]([C@@:2]1([O:3][H:15])[N:4]([H:10])[C:5]([H:11])([H:12])[C:6]([H:13])([H:14])[O:7]1)([H:8])[H:9]"
N        1.45549488      -0.49615250      -1.65060836
C        0.36396654       0.06244221      -1.01835856
O       -0.09648515       1.16340470      -1.56404900
N       -0.53989913      -0.83374009      -0.47630614
C       -1.21219722      -0.38715853       0.73492398
C       -0.19046949       0.42641296       1.54046720
O        0.44785527       1.29234840       0.66177599
H        1.98651394       0.17765792      -2.17684445
H        2.00863452      -1.12280631      -1.09020303
H       -0.24162934      -1.79374141      -0.49503500
H       -1.57933957      -1.25424974       1.28362689
H       -2.06195190       0.24276474       0.46116002
H        0.53081189      -0.25572139       2.02027532
H       -0.69307530       0.98372622       2.33676450
H       -0.17822994       1.79481281      -0.56758937
15
Frame=11 idx=008742 GeodesicLength=0.6747642311909648 rxn_smarts="[N:1]([C:2](=[O:3])[N:4]([C:5]([C:6]([O:7][H:15])([H:13])[H:14])([H:11])[H:12])[H:10])([H:8])[H:9]>>[N:1]([C@@:2]1([O:3][H:15])[N:4]([H:10])[C:5]([H:11])([H:12])[C:6]([H:13])([H:14])[O:7]1)([H:8])[H:9]"
N        1.46043881      -0.50697024      -1.64174678
C        0.37042084       0.06765803      -1.01364974
O       -0.08122282       1.16379983      -1.57346945
N       -0.54777281      -0.82517180      -0.48226235
C       -1.21076645      -0.39062987       0.73831916
C       -0.19013308       0.42717806       1.53819123
O        0.42529861       1.31069389       0.65709224
H        1.99605782       0.16060005      -2.17158658
H        2.01065466      -1.12346495      -1.06697688
H       -0.27044200      -1.79027587      -0.52647939
H       -1.56238557      -1.26357370       1.28788769
H       -2.06949606       0.23336136       0.47852088
H        0.54706549      -0.24898663       2.00105615
H       -0.68559128       0.97427199       2.34511205
H       -0.19212616       1.81150983      -0.57000822
15
Frame=12 idx=008742 GeodesicLength=0.7358858238802102 rxn_smarts="[N:1]([C:2](=[O:3])[N:4]([C:5]([C:6]([O:7][H:15])([H:13])[H:14])([H:11])[H:12])[H:10])([H:8])[H:9]>>[N:1]([C@@:2]1([O:3][H:15])[N:4]([H:10])[C:5]([H:11])([H:12])[C:6]([H:13])([H:14])[O:7]1)([H:8])[H:9]"
N        1.46514398      -0.51799724      -1.63263279
C        0.37688040       0.07291782      -1.00887875
O       -0.06527602       1.16438889      -1.58249686
N       -0.55573612      -0.81629142      -0.48835008
C       -1.20905433      -0.39442144       0.74175531
C       -0.18981145       0.42809535       1.53578437
O        0.40232402       1.32860260       0.65232277
H        2.00581023       0.14323377      -2.16560243
H        2.01189462      -1.12481404      -1.04404632
H       -0.29957652      -1.78537038      -0.55841364
H       -1.54435382      -1.27340349       1.29185160
H       -2.07694888       0.22304067       0.49643069
H        0.56301912      -0.24147157       1.98178367
H       -0.67800395       0.96523137       2.35287232
H       -0.20631130       1.82825913      -0.57237987
15
Frame=13 idx=008742 GeodesicLength=0.7970751649357851 rxn_smarts="[N:1]([C:2](=[O:3])[N:4]([C:5]([C:6]([O:7][H:15])([H:13])[H:14])([H:11])[H:12])[H:10])([H:8])[H:9]>>[N:1]([C@@:2]1([O:3][H:15])[N:4]([H:10])[C:5]([H:11])([H:12])[C:6]([H:13])([H:14])[O:7]1)([H:8])[H:9]"
N        1.46959588      -0.52929778      -1.62328506
C        0.38335502       0.07822179      -1.00407002
O       -0.04861373       1.16523324      -1.59116290
N       -0.56380267      -0.80708881      -0.49461581
C       -1.20703905      -0.39855415       0.74522069
C       -0.18951173       0.42918467       1.53329923
O        0.37891083       1.34611996       0.64749872
H        2.01572413       0.12547159      -2.15898169
H        2.01238752      -1.12685900      -1.02132114
H       -0.32907799      -1.77903163      -0.59090572
H       -1.52516195      -1.28378648       1.29547272
H       -2.08429709       0.21176512       0.51487975
H        0.57869110      -0.23317070       1.96256353
H       -0.67034684       0.95665333       2.36012803
H       -0.22081342       1.84513885      -0.57472034
15
Frame=14 idx=008742 GeodesicLength=0.8582898335731789 rxn_smarts="[N:1]([C:2](=[O:3])[N:4]([C:5]([C:6]([O:7][H:15])([H:13])[H:14])([H:11])[H:12])[H:10])([H:8])[H:9]>>[N:1]([C@@:2]1([O:3][H:15])[N:4]([H:10])[C:5]([H:11])([H:12])[C:6]([H:13])([H:14])[O:7]1)([H:8])[H:9]"
N        1.47375594      -0.54088696      -1.61372058
C        0.38985798       0.08356625      -0.99920570
O       -0.03119726       1.16632752      -1.59940849
N       -0.57197225      -0.79752882      -0.50104240
C       -1.20470340      -0.40303192       0.74870393
C       -0.18925618       0.43044440       1.53072216
O        0.35507095       1.36320636       0.64260694
H        2.02573610       0.10726328      -2.15178670
H        2.01213240      -1.12957805      -0.99880130
H       -0.35891023      -1.77116730      -0.62388287
H       -1.50476668      -1.29469736       1.29868889
H       -2.09150150       0.19947953       0.53388086
H        0.59404108      -0.22407214       1.94340643
H       -0.66267763       0.94854889       2.36684433
H       -0.23560932       1.86212632      -0.57700549
15
Frame=15 idx=008742 GeodesicLength=0.9195312123739743 rxn_smarts="[N:1]([C:2](=[O:3])[N:4]([C:5]([C:6]([O:7][H:15])([H:13])[H:14])([H:11])[H:12])[H:10])([H:8])[H:9]>>[N:1]([C@@:2]1([O:3][H:15])[N:4]([H:10])[C:5]([H:11])([H:12])[C:6]([H:13])([H:14])[O:7]1)([H:8])[H:9]"
N        1.47758528      -0.55278612      -1.60397290
C        0.39640482       0.08894685      -0.99427644
O       -0.01299436       1.16768131      -1.60719422
N       -0.58023937      -0.78758892      -0.50762132
C       -1.20202817      -0.40786292       0.75219227
C       -0.18907014       0.43188174       1.52806189
O        0.33081490       1.37984293       0.63764787
H        2.03578857       0.08856845      -2.14407942
H        2.01112413      -1.13298452      -0.97651017
H       -0.38902858      -1.76171904      -0.65727572
H       -1.48312184      -1.30612323       1.30144020
H       -2.09852106       0.18613181       0.55342871
H        0.60902939      -0.21416586       1.92436446
H       -0.65506400       0.94094878       2.37301420
H       -0.25067958       1.87922871      -0.57921941
15
Frame=16 idx=008742 GeodesicLength=0.9807967861572772 rxn_smarts="[N:1]([C:2](=[O:3])[N:4]([C:5]([C:6]([O:7][H:15])([H:13])[H:14])([H:11])[H:12])[H:10])([H:8])[H:9]>>[N:1]([C@@:2]1([O:3][H:15])[N:4]([H:10])[C:5]([H:11])([H:12])[C:6]([H:13])([H:14])[O:7]1)([H:8])[H:9]"
N        1.48104361      -0.56501478      -1.59407741
C        0.40301037       0.09435776      -0.98927337
O        0.00602578       1.16930283      -1.61448105
N       -0.58859871      -0.77724624      -0.51434441
C       -1.19899286      -0.41305271       0.75567115
C       -0.18897941       0.43350326       1.52532710
O        0.30615039       1.39601195       0.63261876
H        2.04582735       0.06935289      -2.13591118
H        2.00935201      -1.13709815      -0.95447826
H       -0.41938131      -1.75063518      -0.69100238
H       -1.46018133      -1.31804219       1.30366498
H       -2.10530810       0.17167276       0.57351487
H        0.62361762      -0.20344452       1.90548632
H       -0.64757503       0.93388020       2.37863411
H       -0.26601038       1.89645211      -0.58134922
