19
Frame=0 idx=007415 GeodesicLength=0.0 rxn_smarts="[C:1]([C@:2]1([H:11])[C:3]([H:12])([H:13])[C@@:4]([C:5]([H:15])([H:16])[H:17])([H:14])[C:6]([H:18])=[C:7]1[H:19])([H:8])([H:9])[H:10]>>[C:1]([C@@:2]1([H:11])[C:3]([H:12])([H:13])[C@:7]1(/[C:6](=[C:4](/[C:5]([H:15])([H:16])[H:17])[H:14])[H:18])[H:19])([H:8])([H:9])[H:10]"
C       -2.12141269      -0.79418354      -0.02881923
C       -1.54536780       0.60371532       0.11444935
C       -0.67884956       0.82454312       1.26321639
C        1.50133298       0.12254550       0.03288254
C        2.55179428      -0.94359841       0.01836344
C        0.70663947       0.43580427      -1.03897417
C       -0.56235143       0.99793153      -0.94986240
H       -1.31327035      -1.52906178      -0.02803303
H       -2.79368256      -1.01757295       0.80371663
H       -2.67471609      -0.89868383      -0.96397401
H       -2.34740380       1.34971658       0.09477573
H       -0.50179792       1.83602372       1.60248017
H       -0.37571256       0.01711282       1.91509118
H        1.51414933       0.81356023       0.86123604
H        2.60031436      -1.44147952      -0.95162832
H        2.32969406      -1.71439335       0.76259350
H        3.54107711      -0.54662603       0.26213774
H        1.07172961       0.20388581      -2.04245089
H       -0.90216639       1.68076051      -1.72720057
19
Frame=1 idx=007415 GeodesicLength=0.0627332444849564 rxn_smarts="[C:1]([C@:2]1([H:11])[C:3]([H:12])([H:13])[C@@:4]([C:5]([H:15])([H:16])[H:17])([H:14])[C:6]([H:18])=[C:7]1[H:19])([H:8])([H:9])[H:10]>>[C:1]([C@@:2]1([H:11])[C:3]([H:12])([H:13])[C@:7]1(/[C:6](=[C:4](/[C:5]([H:15])([H:16])[H:17])[H:14])[H:18])[H:19])([H:8])([H:9])[H:10]"
C       -2.12564799      -0.79616475      -0.03617307
C       -1.54874232       0.60001913       0.11176974
C       -0.65712377       0.81498068       1.24583399
C        1.49523711       0.12638785       0.04000874
C        2.54397084      -0.94243472       0.02805456
C        0.70815169       0.43941644      -1.04050158
C       -0.55975826       1.00317459      -0.94240467
H       -1.31927704      -1.53292124      -0.04239530
H       -2.79447860      -1.02303172       0.79816653
H       -2.68350139      -0.89534278      -0.96926859
H       -2.34836900       1.34828262       0.10421345
H       -0.50539187       1.82094190       1.61332800
H       -0.36946297       0.00007720       1.89598197
H        1.54200575       0.84272528       0.84635923
H        2.56518017      -1.47088419      -0.92668615
H        2.34375846      -1.68903978       0.80242940
H        3.54037837      -0.53961831       0.22955039
H        1.07181186       0.20259420      -2.04269327
H       -0.89874103       1.69083758      -1.71557338
19
Frame=2 idx=007415 GeodesicLength=0.12530781540711894 rxn_smarts="[C:1]([C@:2]1([H:11])[C:3]([H:12])([H:13])[C@@:4]([C:5]([H:15])([H:16])[H:17])([H:14])[C:6]([H:18])=[C:7]1[H:19])([H:8])([H:9])[H:10]>>[C:1]([C@@:2]1([H:11])[C:3]([H:12])([H:13])[C@:7]1(/[C:6](=[C:4](/[C:5]([H:15])([H:16])[H:17])[H:14])[H:18])[H:19])([H:8])([H:9])[H:10]"
C       -2.13000251      -0.79795648      -0.04335758
C       -1.55184017       0.59645816       0.10919093
C       -0.63604380       0.80576785       1.22870569
C        1.48978239       0.13111352       0.04701150
C        2.53642966      -0.94079489       0.03777672
C        0.70973084       0.44272467      -1.04209927
C       -0.55704123       1.00814295      -0.93508152
H       -1.32554577      -1.53667967      -0.05633495
H       -2.79563757      -1.02813343       0.79266188
H       -2.69229973      -0.89188502      -0.97444475
H       -2.34900818       1.34686467       0.11356102
H       -0.50853248       1.80471772       1.62438109
H       -0.36364317      -0.01650929       1.87683447
H        1.56889218       0.87018791       0.83117474
H        2.53065915      -1.49873460      -0.90041279
H        2.35859021      -1.66269264       0.84051735
H        3.53884564      -0.53386039       0.19707246
H        1.07181299       0.20068229      -2.04301611
H       -0.89514846       1.70058668      -1.70414087
19
Frame=3 idx=007415 GeodesicLength=0.18781524480145406 rxn_smarts="[C:1]([C@:2]1([H:11])[C:3]([H:12])([H:13])[C@@:4]([C:5]([H:15])([H:16])[H:17])([H:14])[C:6]([H:18])=[C:7]1[H:19])([H:8])([H:9])[H:10]>>[C:1]([C@@:2]1([H:11])[C:3]([H:12])([H:13])[C@:7]1(/[C:6](=[C:4](/[C:5]([H:15])([H:16])[H:17])[H:14])[H:18])[H:19])([H:8])([H:9])[H:10]"
C       -2.13395385      -0.79956847      -0.05017863
C       -1.55452600       0.59302775       0.10671907
C       -0.61534570       0.79704983       1.21160392
C        1.48511040       0.13714663       0.05346903
C        2.52873628      -0.93875768       0.04754924
C        0.71140311       0.44620816      -1.04393164
C       -0.55431677       1.01297653      -0.92789811
H       -1.33135688      -1.54012191      -0.06986596
H       -2.79631385      -1.03298717       0.78751230
H       -2.70082111      -0.88843076      -0.97904453
H       -2.34936317       1.34526476       0.12291823
H       -0.51136096       1.78746764       1.63550625
H       -0.35767135      -0.03239542       1.85732491
H        1.59495761       0.89638858       0.81548322
H        2.49795059      -1.52363354      -0.87362555
H        2.37180690      -1.63653420       0.87544356
H        3.53596308      -0.53021479       0.16747219
H        1.07103804       0.19743918      -2.04342104
H       -0.89193638       1.70967489      -1.69303646
19
Frame=4 idx=007415 GeodesicLength=0.2504702511506293 rxn_smarts="[C:1]([C@:2]1([H:11])[C:3]([H:12])([H:13])[C@@:4]([C:5]([H:15])([H:16])[H:17])([H:14])[C:6]([H:18])=[C:7]1[H:19])([H:8])([H:9])[H:10]>>[C:1]([C@@:2]1([H:11])[C:3]([H:12])([H:13])[C@:7]1(/[C:6](=[C:4](/[C:5]([H:15])([H:16])[H:17])[H:14])[H:18])[H:19])([H:8])([H:9])[H:10]"
C       -2.13813923      -0.80087144      -0.05705730
C       -1.55709546       0.58965594       0.10430741
C       -0.59550623       0.78839484       1.19473875
C        1.48075086       0.14347131       0.06008076
C        2.52147348      -0.93631459       0.05739607
C        0.71302224       0.44911514      -1.04550986
C       -0.55151964       1.01742288      -0.92063240
H       -1.33757574      -1.54337903      -0.08312185
H       -2.79761279      -1.03734282       0.78194486
H       -2.70925849      -0.88458935      -0.98378247
H       -2.34952351       1.34363737       0.13215500
H       -0.51375529       1.76889622       1.64639724
H       -0.35226797      -0.04815701       1.83757556
H        1.62008011       0.92102827       0.79955919
H        2.46452228      -1.54833925      -0.84462082
H        2.38753174      -1.60840602       0.90993395
H        3.53251310      -0.52733547       0.13569372
H        1.07070675       0.19439536      -2.04349524
H       -0.88834620       1.71871762      -1.68156258
19
Frame=5 idx=007415 GeodesicLength=0.3130660307660028 rxn_smarts="[C:1]([C@:2]1([H:11])[C:3]([H:12])([H:13])[C@@:4]([C:5]([H:15])([H:16])[H:17])([H:14])[C:6]([H:18])=[C:7]1[H:19])([H:8])([H:9])[H:10]>>[C:1]([C@@:2]1([H:11])[C:3]([H:12])([H:13])[C@:7]1(/[C:6](=[C:4](/[C:5]([H:15])([H:16])[H:17])[H:14])[H:18])[H:19])([H:8])([H:9])[H:10]"
C       -2.14225622      -0.80212658      -0.06379674
C       -1.55940584       0.58635866       0.10198069
C       -0.57617149       0.78006440       1.17814528
C        1.47694124       0.15063801       0.06644459
C        2.51421757      -0.93355046       0.06735328
C        0.71470239       0.45202071      -1.04724004
C       -0.54866433       1.02174789      -0.91351607
H       -1.34376737      -1.54657760      -0.09610634
H       -2.79896561      -1.04162259       0.77646633
H       -2.71759278      -0.88078824      -0.98840081
H       -2.34945594       1.34189739       0.14137894
H       -0.51563754       1.74942013       1.65727905
H       -0.34688554      -0.06354891       1.81769690
H        1.64457748       0.94469036       0.78339795
H        2.43152980      -1.57150315      -0.81449846
H        2.40326842      -1.57972879       0.94275292
H        3.52810753      -0.52592291       0.10463671
H        1.07021699       0.19094541      -2.04371249
H       -0.88475876       1.72758629      -1.67026166
19
Frame=6 idx=007415 GeodesicLength=0.37567736509953154 rxn_smarts="[C:1]([C@:2]1([H:11])[C:3]([H:12])([H:13])[C@@:4]([C:5]([H:15])([H:16])[H:17])([H:14])[C:6]([H:18])=[C:7]1[H:19])([H:8])([H:9])[H:10]>>[C:1]([C@@:2]1([H:11])[C:3]([H:12])([H:13])[C@:7]1(/[C:6](=[C:4](/[C:5]([H:15])([H:16])[H:17])[H:14])[H:18])[H:19])([H:8])([H:9])[H:10]"
C       -2.14633147      -0.80327454      -0.07043988
C       -1.56149386       0.58313366       0.09972732
C       -0.55737080       0.77198451       1.16179735
C        1.47359492       0.15849741       0.07260829
C        2.50702393      -0.93045657       0.07741666
C        0.71642301       0.45485966      -1.04904364
C       -0.54575402       1.02592922      -0.90648792
H       -1.34996948      -1.54967095      -0.10887940
H       -2.80040387      -1.04575480       0.77099668
H       -2.72582758      -0.87691905      -0.99291802
H       -2.34918059       1.34006088       0.15059357
H       -0.51707374       1.72899894       1.66807966
H       -0.34155016      -0.07866707       1.79760716
H        1.66845959       0.96740914       0.76701798
H        2.39885396      -1.59327310      -0.78314774
H        2.41935091      -1.55038699       0.97405830
H        3.52278473      -0.52583985       0.07399353
H        1.06960249       0.18708738      -2.04395280
H       -0.88113797       1.73628210      -1.65902712
19
Frame=7 idx=007415 GeodesicLength=0.4382928634422161 rxn_smarts="[C:1]([C@:2]1([H:11])[C:3]([H:12])([H:13])[C@@:4]([C:5]([H:15])([H:16])[H:17])([H:14])[C:6]([H:18])=[C:7]1[H:19])([H:8])([H:9])[H:10]>>[C:1]([C@@:2]1([H:11])[C:3]([H:12])([H:13])[C@:7]1(/[C:6](=[C:4](/[C:5]([H:15])([H:16])[H:17])[H:14])[H:18])[H:19])([H:8])([H:9])[H:10]"
C       -2.15048519      -0.80431783      -0.07703263
C       -1.56340043       0.57997651       0.09754379
C       -0.53909409       0.76409686       1.14573977
C        1.47068547       0.16695239       0.07861867
C        2.49997508      -0.92700940       0.08759609
C        0.71819060       0.45757956      -1.05091462
C       -0.54276484       1.02996665      -0.89954965
H       -1.35633493      -1.55269650      -0.12151208
H       -2.80206896      -1.04974647       0.76550806
H       -2.73409171      -0.87294175      -0.99740721
H       -2.34870145       1.33816272       0.15981626
H       -0.51805789       1.70764228       1.67882927
H       -0.33628119      -0.09361862       1.77733020
H        1.69181211       0.98928746       0.75046240
H        2.36644143      -1.61375331      -0.75049944
H        2.43606060      -1.52030197       1.00399717
H        3.51662177      -0.52693169       0.04355934
H        1.06889187       0.18279534      -2.04423057
H       -0.87739825       1.74485775      -1.64785479
19
Frame=8 idx=007415 GeodesicLength=0.5009892131646173 rxn_smarts="[C:1]([C@:2]1([H:11])[C:3]([H:12])([H:13])[C@@:4]([C:5]([H:15])([H:16])[H:17])([H:14])[C:6]([H:18])=[C:7]1[H:19])([H:8])([H:9])[H:10]>>[C:1]([C@@:2]1([H:11])[C:3]([H:12])([H:13])[C@:7]1(/[C:6](=[C:4](/[C:5]([H:15])([H:16])[H:17])[H:14])[H:18])[H:19])([H:8])([H:9])[H:10]"
C       -2.15448480      -0.80518075      -0.08337304
C       -1.56505139       0.57691606       0.09540010
C       -0.52115643       0.75650945       1.12975432
C        1.46820730       0.17608226       0.08416643
C        2.49292352      -0.92321894       0.09786725
C        0.71992618       0.46027434      -1.05295678
C       -0.53981668       1.03383081      -0.89274189
H       -1.36256726      -1.55549662      -0.13390902
H       -2.80346586      -1.05349004       0.76030229
H       -2.74235894      -0.86883610      -1.00144477
H       -2.34799043       1.33617854       0.16903368
H       -0.51864902       1.68540673       1.68942299
H       -0.33074625      -0.10825336       1.75662217
H        1.71461326       1.01036519       0.73353565
H        2.33550720      -1.63188955      -0.71762926
H        2.45176720      -1.49066613       1.03170547
H        3.50960385      -0.52920235       0.01558550
H        1.06762629       0.17763413      -2.04448581
H       -0.87388774       1.75303632      -1.63685528
19
Frame=9 idx=007415 GeodesicLength=0.5640149559595186 rxn_smarts="[C:1]([C@:2]1([H:11])[C:3]([H:12])([H:13])[C@@:4]([C:5]([H:15])([H:16])[H:17])([H:14])[C:6]([H:18])=[C:7]1[H:19])([H:8])([H:9])[H:10]>>[C:1]([C@@:2]1([H:11])[C:3]([H:12])([H:13])[C@:7]1(/[C:6](=[C:4](/[C:5]([H:15])([H:16])[H:17])[H:14])[H:18])[H:19])([H:8])([H:9])[H:10]"
C       -2.15853227      -0.80586088      -0.08985219
C       -1.56659353       0.57385962       0.09331419
C       -0.50383953       0.74888399       1.11402373
C        1.46599414       0.18557272       0.08979762
C        2.48603419      -0.91911044       0.10832164
C        0.72164698       0.46275564      -1.05481229
C       -0.53682085       1.03752219      -0.88583719
H       -1.36892959      -1.55814835      -0.14632215
H       -2.80514700      -1.05704366       0.75469189
H       -2.75046753      -0.86442626      -1.00565336
H       -2.34715094       1.33406010       0.17827879
H       -0.51883362       1.66210425       1.69962495
H       -0.32535377      -0.12296640       1.73557158
H        1.73687958       1.03064933       0.71641723
H        2.30380147      -1.64951571      -0.68238764
H        2.46937477      -1.45933558       1.05867571
H        3.50154433      -0.53277404      -0.01388111
H        1.06657041       0.17251380      -2.04445957
H       -0.87017724       1.76125966      -1.62551183
19
Frame=10 idx=007415 GeodesicLength=0.6271228151440187 rxn_smarts="[C:1]([C@:2]1([H:11])[C:3]([H:12])([H:13])[C@@:4]([C:5]([H:15])([H:16])[H:17])([H:14])[C:6]([H:18])=[C:7]1[H:19])([H:8])([H:9])[H:10]>>[C:1]([C@@:2]1([H:11])[C:3]([H:12])([H:13])[C@:7]1(/[C:6](=[C:4](/[C:5]([H:15])([H:16])[H:17])[H:14])[H:18])[H:19])([H:8])([H:9])[H:10]"
C       -2.16256288      -0.80650543      -0.09626571
C       -1.56795533       0.57083693       0.09128282
C       -0.48690206       0.74143602       1.09854656
C        1.46414818       0.19564496       0.09518349
C        2.47912900      -0.91470534       0.11893505
C        0.72339470       0.46525177      -1.05679138
C       -0.53379453       1.04112393      -0.87904464
H       -1.37531715      -1.56075059      -0.15866842
H       -2.80685481      -1.06059008       0.74913724
H       -2.75858865      -0.85998391      -1.00977141
H       -2.34613212       1.33181590       0.18758029
H       -0.51850510       1.63803348       1.70963684
H       -0.31980274      -0.13756801       1.71426844
H        1.75879951       1.05036491       0.69908520
H        2.27237741      -1.66567707      -0.64608616
H        2.48706231      -1.42766060       1.08423986
H        3.49257748      -0.53757682      -0.04253393
H        1.06539397       0.16710996      -2.04449452
H       -0.86646721       1.76939999      -1.61423962
19
Frame=11 idx=007415 GeodesicLength=0.6903708838376053 rxn_smarts="[C:1]([C@:2]1([H:11])[C:3]([H:12])([H:13])[C@@:4]([C:5]([H:15])([H:16])[H:17])([H:14])[C:6]([H:18])=[C:7]1[H:19])([H:8])([H:9])[H:10]>>[C:1]([C@@:2]1([H:11])[C:3]([H:12])([H:13])[C@:7]1(/[C:6](=[C:4](/[C:5]([H:15])([H:16])[H:17])[H:14])[H:18])[H:19])([H:8])([H:9])[H:10]"
C       -2.16660968      -0.80704684      -0.10262921
C       -1.56915971       0.56784776       0.08930262
C       -0.47035857       0.73410327       1.08328816
C        1.46261823       0.20618112       0.10036530
C        2.47227955      -0.90998021       0.12969927
C        0.72514626       0.46766658      -1.05883005
C       -0.53073930       1.04459202      -0.87231779
H       -1.38178669      -1.56325678      -0.17098032
H       -2.80862259      -1.06403280       0.74359448
H       -2.76674244      -0.85539373      -1.01378071
H       -2.34493175       1.32946965       0.19694448
H       -0.51774648       1.61314035       1.71939302
H       -0.31413304      -0.15213126       1.69263582
H        1.78033275       1.06949406       0.68150014
H        2.24132179      -1.68039379      -0.60865616
H        2.50504848      -1.39558228       1.10839935
H        3.48269123      -0.54348700      -0.07048920
H        1.06411137       0.16137440      -2.04448800
H       -0.86271940       1.77743548      -1.60295117
19
Frame=12 idx=007415 GeodesicLength=0.7538261654394197 rxn_smarts="[C:1]([C@:2]1([H:11])[C:3]([H:12])([H:13])[C@@:4]([C:5]([H:15])([H:16])[H:17])([H:14])[C:6]([H:18])=[C:7]1[H:19])([H:8])([H:9])[H:10]>>[C:1]([C@@:2]1([H:11])[C:3]([H:12])([H:13])[C@:7]1(/[C:6](=[C:4](/[C:5]([H:15])([H:16])[H:17])[H:14])[H:18])[H:19])([H:8])([H:9])[H:10]"
C       -2.17061735      -0.80751005      -0.10896132
C       -1.57020639       0.56488368       0.08736679
C       -0.45417449       0.72688506       1.06823368
C        1.46137771       0.21719565       0.10534060
C        2.46541743      -0.90495786       0.14063281
C        0.72690303       0.47007468      -1.06092500
C       -0.52767030       1.04796468      -0.86564883
H       -1.38825651      -1.56566448      -0.18329185
H       -2.81036999      -1.06743159       0.73804333
H       -2.77488193      -0.85068715      -1.01769414
H       -2.34356863       1.32698998       0.20638074
H       -0.51654488       1.58746479       1.72886116
H       -0.30828964      -0.16666063       1.67065368
H        1.80154689       1.08808093       0.66367343
H        2.21046615      -1.69367554      -0.57005421
H        2.52329574      -1.36312832       1.13120092
H        3.47183673      -0.55058248      -0.09775011
H        1.06272055       0.15537310      -2.04442114
H       -0.85898412       1.78538554      -1.59164055
19
Frame=13 idx=007415 GeodesicLength=0.8175166020649274 rxn_smarts="[C:1]([C@:2]1([H:11])[C:3]([H:12])([H:13])[C@@:4]([C:5]([H:15])([H:16])[H:17])([H:14])[C:6]([H:18])=[C:7]1[H:19])([H:8])([H:9])[H:10]>>[C:1]([C@@:2]1([H:11])[C:3]([H:12])([H:13])[C@:7]1(/[C:6](=[C:4](/[C:5]([H:15])([H:16])[H:17])[H:14])[H:18])[H:19])([H:8])([H:9])[H:10]"
C       -2.17458316      -0.80789852      -0.11526642
C       -1.57110006       0.56193698       0.08547473
C       -0.43832423       0.71976688       1.05337476
C        1.46040705       0.22866524       0.11011179
C        2.45852846      -0.89963737       0.15174159
C        0.72866548       0.47248313      -1.06307399
C       -0.52458798       1.05124613      -0.85903294
H       -1.39472348      -1.56797183      -0.19562809
H       -2.81208167      -1.07079911       0.73248517
H       -2.78301306      -0.84585863      -1.02150577
H       -2.34204342       1.32436725       0.21590413
H       -0.51491119       1.56102123       1.73801501
H       -0.30225525      -0.18117663       1.64830290
H        1.82247464       1.10615731       0.64558827
H        2.17980429      -1.70549629      -0.53029030
H        2.54177732      -1.33034361       1.15265074
H        3.45999419      -0.55884601      -0.12427221
H        1.06123402       0.14912861      -2.04428282
H       -0.85526196       1.79325524      -1.58029656
19
Frame=14 idx=007415 GeodesicLength=0.8814564530676601 rxn_smarts="[C:1]([C@:2]1([H:11])[C:3]([H:12])([H:13])[C@@:4]([C:5]([H:15])([H:16])[H:17])([H:14])[C:6]([H:18])=[C:7]1[H:19])([H:8])([H:9])[H:10]>>[C:1]([C@@:2]1([H:11])[C:3]([H:12])([H:13])[C@:7]1(/[C:6](=[C:4](/[C:5]([H:15])([H:16])[H:17])[H:14])[H:18])[H:19])([H:8])([H:9])[H:10]"
C       -2.17851163      -0.80822106      -0.12155195
C       -1.57185504       0.55900253       0.08362571
C       -0.42279022       0.71274599       1.03870838
C        1.45969277       0.24056910       0.11468637
C        2.45160394      -0.89402371       0.16302651
C        0.73044212       0.47490727      -1.06527631
C       -0.52149476       1.05444428      -0.85246778
H       -1.40118316      -1.57017918      -0.20800997
H       -2.81375681      -1.07415312       0.72691868
H       -2.79114773      -0.84091824      -1.02522214
H       -2.34037444       1.32159114       0.22552580
H       -0.51285090       1.53384188       1.74684187
H       -0.29601683      -0.19568253       1.62558051
H        1.84316720       1.12373750       0.62725071
H        2.14930977      -1.71583091      -0.48938384
H        2.56049979      -1.29727999       1.17275601
H        3.44715378      -0.56826314      -0.15001965
H        1.05967343       0.14266762      -2.04406906
H       -0.85156128       1.80104456      -1.56891983
19
Frame=15 idx=007415 GeodesicLength=0.9457200319034152 rxn_smarts="[C:1]([C@:2]1([H:11])[C:3]([H:12])([H:13])[C@@:4]([C:5]([H:15])([H:16])[H:17])([H:14])[C:6]([H:18])=[C:7]1[H:19])([H:8])([H:9])[H:10]>>[C:1]([C@@:2]1([H:11])[C:3]([H:12])([H:13])[C@:7]1(/[C:6](=[C:4](/[C:5]([H:15])([H:16])[H:17])[H:14])[H:18])[H:19])([H:8])([H:9])[H:10]"
C       -2.18235197      -0.80848006      -0.12779854
C       -1.57244150       0.55607369       0.08181434
C       -0.40752073       0.70580937       1.02420423
C        1.45919219       0.25288790       0.11903443
C        2.44459079      -0.88812080       0.17449616
C        0.73220567       0.47735359      -1.06753537
C       -0.51839652       1.05756363      -0.84595262
H       -1.40759626      -1.57228550      -0.22043608
H       -2.81530618      -1.07750437       0.72136807
H       -2.79924721      -0.83585618      -1.02879258
H       -2.33851592       1.31865417       0.23525136
H       -0.51037355       1.50592972       1.75528102
H       -0.28953404      -0.21019817       1.60243592
H        1.86360321       1.14084367       0.60860853
H        2.11903512      -1.72462116      -0.44741260
H        2.57926827      -1.26405766       1.19151016
H        3.43326747      -0.57878509      -0.17482527
H        1.05801598       0.13602506      -2.04375964
H       -0.84789481       1.80876819      -1.55749155
19
Frame=16 idx=007415 GeodesicLength=1.010203587690529 rxn_smarts="[C:1]([C@:2]1([H:11])[C:3]([H:12])([H:13])[C@@:4]([C:5]([H:15])([H:16])[H:17])([H:14])[C:6]([H:18])=[C:7]1[H:19])([H:8])([H:9])[H:10]>>[C:1]([C@@:2]1([H:11])[C:3]([H:12])([H:13])[C@:7]1(/[C:6](=[C:4](/[C:5]([H:15])([H:16])[H:17])[H:14])[H:18])[H:19])([H:8])([H:9])[H:10]"
C       -2.18607215      -0.80873411      -0.13393484
C       -1.57290706       0.55315487       0.08003614
C       -0.39255334       0.69909459       1.00987683
C        1.45885435       0.26552650       0.12322553
C        2.43745712      -0.88201638       0.18607165
C        0.73398764       0.47987748      -1.06983260
C       -0.51531069       1.06061131      -0.83951056
H       -1.41386945      -1.57430950      -0.23273512
H       -2.81673572      -1.08087195       0.71590983
H       -2.80723678      -0.83086031      -1.03219190
H       -2.33657001       1.31552663       0.24501208
H       -0.50751844       1.47755117       1.76324683
H       -0.28286505      -0.22450434       1.57901919
H        1.88385213       1.15734587       0.58977649
H        2.08907698      -1.73178929      -0.40479176
H        2.59789544      -1.23109445       1.20878826
H        3.41839044      -0.59035842      -0.19846360
H        1.05644022       0.12949885      -2.04339335
H       -0.84431563       1.81635149      -1.54610912
