10
Frame=0 idx=000833 GeodesicLength=0.0 rxn_smarts="[O:1]=[C:2]1[C:3]([H:7])([H:8])[N:4]=[C:5]([H:9])[N:6]1[H:10]>>[O-:1][c:2]1[c:3]([H:7])[n+:4]([H:8])[c:5]([H:9])[n:6]1[H:10]"
O       -1.19504883       1.95894315       0.49123186
C       -0.63132604       0.90441465       0.27628501
C       -1.03648889      -0.46447919       0.24723538
N        0.11942845      -1.31569480      -0.00364323
C        1.12383811      -0.48693202      -0.21056857
N        0.75566925       0.78869188      -0.03206267
H       -1.92953007      -0.90450709       0.65622459
H       -0.68010351      -1.27592439      -0.83467201
H        2.11256708      -0.79646110      -0.51201561
H        1.36099445       1.59194893      -0.07801475
10
Frame=1 idx=000833 GeodesicLength=0.04129293235656017 rxn_smarts="[O:1]=[C:2]1[C:3]([H:7])([H:8])[N:4]=[C:5]([H:9])[N:6]1[H:10]>>[O-:1][c:2]1[c:3]([H:7])[n+:4]([H:8])[c:5]([H:9])[n:6]1[H:10]"
O       -1.19745743       1.95869128       0.48279900
C       -0.63086732       0.90531069       0.27052910
C       -1.03664232      -0.46545690       0.24071864
N        0.11978736      -1.31209745      -0.00658676
C        1.12458159      -0.48579415      -0.21065047
N        0.75747224       0.79102229      -0.02844854
H       -1.92179149      -0.90225020       0.67036562
H       -0.69258611      -1.28725284      -0.84084245
H        2.11250295      -0.79518441      -0.51506006
H        1.36500054       1.59301169      -0.06282409
10
Frame=2 idx=000833 GeodesicLength=0.08258189325341606 rxn_smarts="[O:1]=[C:2]1[C:3]([H:7])([H:8])[N:4]=[C:5]([H:9])[N:6]1[H:10]>>[O-:1][c:2]1[c:3]([H:7])[n+:4]([H:8])[c:5]([H:9])[n:6]1[H:10]"
O       -1.19985155       1.95843178       0.47415776
C       -0.63039927       0.90620136       0.26461328
C       -1.03673855      -0.46648160       0.23431490
N        0.12020475      -1.30850008      -0.00956636
C        1.12540779      -0.48463901      -0.21054982
N        0.75933287       0.79332617      -0.02445322
H       -1.91383098      -0.89975473       0.68414538
H       -0.70534905      -1.29881991      -0.84665894
H        2.11234457      -0.79376068      -0.51859340
H        1.36887943       1.59399670      -0.04740957
10
Frame=3 idx=000833 GeodesicLength=0.12385709457039658 rxn_smarts="[O:1]=[C:2]1[C:3]([H:7])([H:8])[N:4]=[C:5]([H:9])[N:6]1[H:10]>>[O-:1][c:2]1[c:3]([H:7])[n+:4]([H:8])[c:5]([H:9])[n:6]1[H:10]"
O       -1.20198675       1.95805615       0.46645547
C       -0.62983608       0.90703083       0.25899488
C       -1.03684310      -0.46754999       0.22784694
N        0.12059528      -1.30494233      -0.01269788
C        1.12638733      -0.48355360      -0.20977040
N        0.76134901       0.79550221      -0.01946334
H       -1.90593595      -0.89710246       0.69693457
H       -0.71823183      -1.31028826      -0.85247676
H        2.11227810      -0.79230920      -0.52169120
H        1.37222400       1.59515666      -0.03413227
10
Frame=4 idx=000833 GeodesicLength=0.16514186272690612 rxn_smarts="[O:1]=[C:2]1[C:3]([H:7])([H:8])[N:4]=[C:5]([H:9])[N:6]1[H:10]>>[O-:1][c:2]1[c:3]([H:7])[n+:4]([H:8])[c:5]([H:9])[n:6]1[H:10]"
O       -1.20401638       1.95762779       0.45896919
C       -0.62920201       0.90781627       0.25350722
C       -1.03691615      -0.46867046       0.22142455
N        0.12099946      -1.30140974      -0.01597291
C        1.12748629      -0.48249922      -0.20859079
N        0.76347963       0.79758077      -0.01372251
H       -1.89798132      -0.89430268       0.70911732
H       -0.73137245      -1.32179871      -0.85813526
H        2.11221853      -0.79075378      -0.52483734
H        1.37530440       1.59640974      -0.02175947
10
Frame=5 idx=000833 GeodesicLength=0.20641493195056532 rxn_smarts="[O:1]=[C:2]1[C:3]([H:7])([H:8])[N:4]=[C:5]([H:9])[N:6]1[H:10]>>[O-:1][c:2]1[c:3]([H:7])[n+:4]([H:8])[c:5]([H:9])[n:6]1[H:10]"
O       -1.20616097       1.95725273       0.45054629
C       -0.62857692       0.90862948       0.24756879
C       -1.03686553      -0.46984053       0.21522663
N        0.12152354      -1.29784931      -0.01928690
C        1.12862075      -0.48137060      -0.20759338
N        0.76557028       0.79968326      -0.00803205
H       -1.88966490      -0.89125930       0.72135689
H       -0.74497118      -1.33376770      -0.86318230
H        2.11196575      -0.78894105      -0.52895752
H        1.37855918       1.59746302      -0.00764645
10
Frame=6 idx=000833 GeodesicLength=0.2476543342319291 rxn_smarts="[O:1]=[C:2]1[C:3]([H:7])([H:8])[N:4]=[C:5]([H:9])[N:6]1[H:10]>>[O-:1][c:2]1[c:3]([H:7])[n+:4]([H:8])[c:5]([H:9])[n:6]1[H:10]"
O       -1.20790040       1.95667888       0.44385635
C       -0.62774828       0.90931068       0.24250355
C       -1.03686356      -0.47105551       0.20882577
N        0.12193498      -1.29437115      -0.02294521
C        1.12995635      -0.48041279      -0.20542958
N        0.76792783       0.80150730      -0.00049580
H       -1.88168010      -0.88824598       0.73212773
H       -0.75860316      -1.34521905      -0.86864302
H        2.11194909      -0.78718620      -0.53184438
H        1.38102725       1.59899382       0.00204460
10
Frame=7 idx=000833 GeodesicLength=0.28889922866431444 rxn_smarts="[O:1]=[C:2]1[C:3]([H:7])([H:8])[N:4]=[C:5]([H:9])[N:6]1[H:10]>>[O-:1][c:2]1[c:3]([H:7])[n+:4]([H:8])[c:5]([H:9])[n:6]1[H:10]"
O       -1.20930719       1.95593666       0.43853871
C       -0.62671541       0.90987796       0.23819816
C       -1.03689354      -0.47231227       0.20226899
N        0.12226871      -1.29096556      -0.02688099
C        1.13151445      -0.47961381      -0.20213093
N        0.77056870       0.80304136       0.00899111
H       -1.87405710      -0.88528659       0.74156871
H       -0.77230105      -1.35622501      -0.87444764
H        2.11208463      -0.78541301      -0.53388929
H        1.38283780       1.60096026       0.00778318
10
Frame=8 idx=000833 GeodesicLength=0.3301420684483955 rxn_smarts="[O:1]=[C:2]1[C:3]([H:7])([H:8])[N:4]=[C:5]([H:9])[N:6]1[H:10]>>[O-:1][c:2]1[c:3]([H:7])[n+:4]([H:8])[c:5]([H:9])[n:6]1[H:10]"
O       -1.21057869       1.95512489       0.43359765
C       -0.62558189       0.91041187       0.23400797
C       -1.03687583      -0.47359894       0.19569233
N        0.12262500      -1.28756783      -0.03101653
C        1.13319172      -0.47885915      -0.19831316
N        0.77331474       0.80443247       0.01947576
H       -1.86644964      -0.88227361       0.75037690
H       -0.78628214      -1.36721577      -0.88016886
H        2.11222913      -0.78348038      -0.53584290
H        1.38440761       1.60302645       0.01219085
10
Frame=9 idx=000833 GeodesicLength=0.37140459310513463 rxn_smarts="[O:1]=[C:2]1[C:3]([H:7])([H:8])[N:4]=[C:5]([H:9])[N:6]1[H:10]>>[O-:1][c:2]1[c:3]([H:7])[n+:4]([H:8])[c:5]([H:9])[n:6]1[H:10]"
O       -1.21195032       1.95436741       0.42772493
C       -0.62448032       0.91100373       0.22909883
C       -1.03672779      -0.47491833       0.18928596
N        0.12312329      -1.28411118      -0.03524521
C        1.13488941      -0.47800922      -0.19479564
N        0.77593669       0.80587315       0.02957273
H       -1.85842290      -0.87902221       0.75943289
H       -0.80084527      -1.37879339      -0.88518887
H        2.11221405      -0.78122105      -0.53872108
H        1.38626317       1.60483110       0.01883546
10
Frame=10 idx=000833 GeodesicLength=0.4127131764267562 rxn_smarts="[O:1]=[C:2]1[C:3]([H:7])([H:8])[N:4]=[C:5]([H:9])[N:6]1[H:10]>>[O-:1][c:2]1[c:3]([H:7])[n+:4]([H:8])[c:5]([H:9])[n:6]1[H:10]"
O       -1.21346799       1.95369321       0.42055482
C       -0.62341928       0.91165944       0.22334679
C       -1.03643405      -0.47628489       0.18309717
N        0.12377869      -1.28059219      -0.03960364
C        1.13659176      -0.47703859      -0.19174700
N        0.77840189       0.80738755       0.03909859
H       -1.84986786      -0.87549764       0.76892515
H       -0.81609323      -1.39106941      -0.88936270
H        2.11200463      -0.77858437      -0.54275436
H        1.38850544       1.60632689       0.02844518
10
Frame=11 idx=000833 GeodesicLength=0.45402202760824795 rxn_smarts="[O:1]=[C:2]1[C:3]([H:7])([H:8])[N:4]=[C:5]([H:9])[N:6]1[H:10]>>[O-:1][c:2]1[c:3]([H:7])[n+:4]([H:8])[c:5]([H:9])[n:6]1[H:10]"
O       -1.21513892       1.95310125       0.41194142
C       -0.62238887       0.91236146       0.21675763
C       -1.03598962      -0.47770800       0.17712906
N        0.12458006      -1.27702169      -0.04415221
C        1.13830699      -0.47594992      -0.18920397
N        0.78074160       0.80894847       0.04819376
H       -1.84073547      -0.87168802       0.77888034
H       -0.83206722      -1.40403105      -0.89263382
H        2.11156934      -0.77554260      -0.54800369
H        1.39112211       1.60753011       0.04109149
10
Frame=12 idx=000833 GeodesicLength=0.4952997315909895 rxn_smarts="[O:1]=[C:2]1[C:3]([H:7])([H:8])[N:4]=[C:5]([H:9])[N:6]1[H:10]>>[O-:1][c:2]1[c:3]([H:7])[n+:4]([H:8])[c:5]([H:9])[n:6]1[H:10]"
O       -1.21691501       1.95260121       0.40174449
C       -0.62134766       0.91309582       0.20934440
C       -1.03540098      -0.47919495       0.17136650
N        0.12551031      -1.27339060      -0.04903119
C        1.14004412      -0.47475611      -0.18715791
N        0.78295660       0.81051013       0.05698827
H       -1.83095581      -0.86757599       0.78937306
H       -0.84882959      -1.41767749      -0.89496650
H        2.11090792      -0.77200880      -0.55447314
H        1.39403010       1.60839677       0.05681202
10
Frame=13 idx=000833 GeodesicLength=0.5366273186194599 rxn_smarts="[O:1]=[C:2]1[C:3]([H:7])([H:8])[N:4]=[C:5]([H:9])[N:6]1[H:10]>>[O-:1][c:2]1[c:3]([H:7])[n+:4]([H:8])[c:5]([H:9])[n:6]1[H:10]"
O       -1.21865762       1.95211505       0.39085137
C       -0.62023281       0.91382788       0.20153312
C       -1.03470654      -0.48073223       0.16569065
N        0.12652477      -1.26971934      -0.05427742
C        1.14185242      -0.47351514      -0.18521523
N        0.78511255       0.81202616       0.06585875
H       -1.82077180      -0.86326212       0.79988603
H       -0.86624998      -1.43171590      -0.89665244
H        2.11018187      -0.76811828      -0.56145669
H        1.39694713       1.60909390       0.07378186
10
Frame=14 idx=000833 GeodesicLength=0.5779781581077951 rxn_smarts="[O:1]=[C:2]1[C:3]([H:7])([H:8])[N:4]=[C:5]([H:9])[N:6]1[H:10]>>[O-:1][c:2]1[c:3]([H:7])[n+:4]([H:8])[c:5]([H:9])[n:6]1[H:10]"
O       -1.22027523       1.95158990       0.37983583
C       -0.61900386       0.91453481       0.19358098
C       -1.03393204      -0.48230963       0.16001730
N        0.12758364      -1.26600749      -0.05999529
C        1.14375565      -0.47226413      -0.18316987
N        0.78722367       0.81347334       0.07491840
H       -1.81029996      -0.85882962       0.81016058
H       -0.88428559      -1.44595574      -0.89786827
H        2.10952253      -0.76395491      -0.56838891
H        1.39971120       1.60972348       0.09090925
10
Frame=15 idx=000833 GeodesicLength=0.6193373024377217 rxn_smarts="[O:1]=[C:2]1[C:3]([H:7])([H:8])[N:4]=[C:5]([H:9])[N:6]1[H:10]>>[O-:1][c:2]1[c:3]([H:7])[n+:4]([H:8])[c:5]([H:9])[n:6]1[H:10]"
O       -1.22175678       1.95101747       0.36879193
C       -0.61765341       0.91521314       0.18554279
C       -1.03308049      -0.48392537       0.15433063
N        0.12867914      -1.26224493      -0.06624117
C        1.14575702      -0.47100731      -0.18100759
N        0.78927563       0.81486519       0.08406553
H       -1.79954467      -0.85430871       0.82016632
H       -0.90295714      -1.46036436      -0.89860995
H        2.10897296      -0.75954257      -0.57512762
H        1.40230774       1.61029745       0.10808914
10
Frame=16 idx=000833 GeodesicLength=0.6606999868872909 rxn_smarts="[O:1]=[C:2]1[C:3]([H:7])([H:8])[N:4]=[C:5]([H:9])[N:6]1[H:10]>>[O-:1][c:2]1[c:3]([H:7])[n+:4]([H:8])[c:5]([H:9])[n:6]1[H:10]"
O       -1.22308990       1.95038584       0.35787543
C       -0.61617702       0.91586088       0.17748650
C       -1.03215799      -0.48557560       0.14860594
N        0.12980119      -1.25841737      -0.07308009
C        1.14785632      -0.46975460      -0.17869999
N        0.79125703       0.81620898       0.09322902
H       -1.78851618      -0.84973994       0.82985546
H       -0.92228011      -1.47488895      -0.89889955
H        2.10859539      -0.75492236      -0.58147164
H        1.40471127       1.61084310       0.12509893
