13
Frame=0 idx=010405 GeodesicLength=0.0 rxn_smarts="[C:1]([c:2]1[c:3]([H:11])[n:4]([H:12])[c:5]([O:6][H:13])[n:7]1)([H:8])([H:9])[H:10]>>[C:1](=[C:2]1[C:3]([H:11])=[N:4][C:5]([O:6][H:13])=[N:7]1)([H:8])[H:9].[H:10][H:12]"
C        1.63080139       0.32765021       0.17803063
C        0.60372744       0.33990376      -0.80340652
C        0.14749930      -0.96170610      -1.01674301
N       -0.97989169      -1.08698593      -0.29044835
C       -1.35467699       0.26798891      -0.09619247
O       -2.56561192       0.49453727       0.38385631
N       -0.47898587       1.15297082      -0.42049419
H        1.88972980       1.25689531       0.67441707
H        2.44690420      -0.38155116       0.07508077
H        0.78969395      -0.24635120       1.08147263
H        0.74962531      -1.82951355      -1.24556768
H       -0.22515722      -0.77916725       0.96708185
H       -2.65365775       1.44532895       0.51291295
13
Frame=1 idx=010405 GeodesicLength=0.2478377989164937 rxn_smarts="[C:1]([c:2]1[c:3]([H:11])[n:4]([H:12])[c:5]([O:6][H:13])[n:7]1)([H:8])([H:9])[H:10]>>[C:1](=[C:2]1[C:3]([H:11])=[N:4][C:5]([O:6][H:13])=[N:7]1)([H:8])[H:9].[H:10][H:12]"
C        1.65570365       0.34505467       0.16866052
C        0.59408130       0.35005305      -0.77181464
C        0.13935677      -0.95067272      -0.99372333
N       -1.01072993      -1.06755803      -0.30377973
C       -1.36768241       0.28268230      -0.07869031
O       -2.59091301       0.51638478       0.36707687
N       -0.48400444       1.16486039      -0.39019601
H        1.91162425       1.27480432       0.66665771
H        2.50503839      -0.31239495       0.00873170
H        0.87035385      -0.34858695       1.08742839
H        0.73084751      -1.83712852      -1.17889652
H       -0.25710811      -0.88908161       0.98112285
H       -2.69656782       1.47158326       0.43742250
13
Frame=2 idx=010405 GeodesicLength=0.49500795926370933 rxn_smarts="[C:1]([c:2]1[c:3]([H:11])[n:4]([H:12])[c:5]([O:6][H:13])[n:7]1)([H:8])([H:9])[H:10]>>[C:1](=[C:2]1[C:3]([H:11])=[N:4][C:5]([O:6][H:13])=[N:7]1)([H:8])[H:9].[H:10][H:12]"
C        1.68165460       0.36386797       0.16014329
C        0.58451274       0.35976780      -0.73502224
C        0.13141516      -0.94016912      -0.96532922
N       -1.04083185      -1.04678515      -0.31341378
C       -1.38125200       0.29802757      -0.05881519
O       -2.61666381       0.54063647       0.34910504
N       -0.48944937       1.17716204      -0.35758856
H        1.93506973       1.29511258       0.65818555
H        2.55794060      -0.23894218      -0.05850080
H        0.96371047      -0.45357858       1.08436207
H        0.71027508      -1.84352834      -1.11029559
H       -0.29885339      -1.00828279       0.99143513
H       -2.73752798       1.49671173       0.35573430
13
Frame=3 idx=010405 GeodesicLength=0.7409215283232415 rxn_smarts="[C:1]([c:2]1[c:3]([H:11])[n:4]([H:12])[c:5]([O:6][H:13])[n:7]1)([H:8])([H:9])[H:10]>>[C:1](=[C:2]1[C:3]([H:11])=[N:4][C:5]([O:6][H:13])=[N:7]1)([H:8])[H:9].[H:10][H:12]"
C        1.70942944       0.38475382       0.15173908
C        0.57506813       0.36874883      -0.69126585
C        0.12411074      -0.93048290      -0.92892003
N       -1.07091284      -1.02458309      -0.31966027
C       -1.39583221       0.31401037      -0.03681289
O       -2.64300236       0.56745571       0.32913311
N       -0.49493307       1.18955049      -0.32097645
H        1.96070091       1.31799608       0.64866394
H        2.60574590      -0.16053107      -0.12767611
H        1.07321216      -0.55956654       1.07048589
H        0.68809384      -1.84904597      -1.03866377
H       -0.35604214      -1.13850008       0.99637941
H       -2.77563849       1.52019436       0.26757395
13
Frame=4 idx=010405 GeodesicLength=0.9852452306269001 rxn_smarts="[C:1]([c:2]1[c:3]([H:11])[n:4]([H:12])[c:5]([O:6][H:13])[n:7]1)([H:8])([H:9])[H:10]>>[C:1](=[C:2]1[C:3]([H:11])=[N:4][C:5]([O:6][H:13])=[N:7]1)([H:8])[H:9].[H:10][H:12]"
C        1.73949848       0.40916566       0.14273086
C        0.56615024       0.37586446      -0.63902261
C        0.11890602      -0.92338520      -0.88095252
N       -1.10168553      -1.00139344      -0.32497204
C       -1.41227721       0.33039715      -0.01561227
O       -2.67021078       0.59703102       0.30436952
N       -0.50027419       1.20132696      -0.28074281
H        1.98780321       1.34485441       0.63789585
H        2.64857547      -0.07516521      -0.19984883
H        1.20312238      -0.66380606       1.04353623
H        0.66579031      -1.85594764      -0.95970312
H       -0.43815380      -1.28224344       0.99226170
H       -2.80724458       1.54330131       0.18006002
13
Frame=5 idx=010405 GeodesicLength=1.2274337898852568 rxn_smarts="[C:1]([c:2]1[c:3]([H:11])[n:4]([H:12])[c:5]([O:6][H:13])[n:7]1)([H:8])([H:9])[H:10]>>[C:1](=[C:2]1[C:3]([H:11])=[N:4][C:5]([O:6][H:13])=[N:7]1)([H:8])[H:9].[H:10][H:12]"
C        1.77236096       0.43937737       0.13213286
C        0.55845221       0.37902976      -0.57634955
C        0.11821216      -0.92228157      -0.81546986
N       -1.13335097      -0.97839336      -0.33447670
C       -1.43167761       0.34618810      -0.00111509
O       -2.69931549       0.62784391       0.26645331
N       -0.50551278       1.21093554      -0.23917623
H        2.01554423       1.37859040       0.62444168
H        2.68621528       0.01987898      -0.27627110
H        1.35913492      -0.76119773       1.00126408
H        0.64581207      -1.86814136      -0.86368868
H       -0.55930941      -1.44262135       0.97109312
H       -2.82656557       1.57079130       0.11116218
13
Frame=6 idx=010405 GeodesicLength=1.4661581349760837 rxn_smarts="[C:1]([c:2]1[c:3]([H:11])[n:4]([H:12])[c:5]([O:6][H:13])[n:7]1)([H:8])([H:9])[H:10]>>[C:1](=[C:2]1[C:3]([H:11])=[N:4][C:5]([O:6][H:13])=[N:7]1)([H:8])[H:9].[H:10][H:12]"
C        1.81002962       0.47689971       0.11790365
C        0.55229082       0.37742070      -0.49592410
C        0.12269838      -0.92878847      -0.72072930
N       -1.16502871      -0.95531012      -0.35059551
C       -1.45397215       0.36072140       0.00824595
O       -2.73032340       0.65942335       0.21177127
N       -0.51004965       1.21742308      -0.18907889
H        2.04708797       1.41977995       0.60739939
H        2.71674008       0.12741776      -0.36513543
H        1.55254292      -0.84807729       0.93690581
H        0.62807902      -1.88762970      -0.73716384
H       -0.73398783      -1.62431692       0.91791474
H       -2.83610709       1.60503656       0.05848626
13
Frame=7 idx=010405 GeodesicLength=1.695500751286172 rxn_smarts="[C:1]([c:2]1[c:3]([H:11])[n:4]([H:12])[c:5]([O:6][H:13])[n:7]1)([H:8])([H:9])[H:10]>>[C:1](=[C:2]1[C:3]([H:11])=[N:4][C:5]([O:6][H:13])=[N:7]1)([H:8])[H:9].[H:10][H:12]"
C        1.85259926       0.52161999       0.09751899
C        0.54830464       0.37072646      -0.38593886
C        0.13050119      -0.94353078      -0.57686273
N       -1.19207015      -0.93125039      -0.37105113
C       -1.47801671       0.37364736       0.01721443
O       -2.76083021       0.69232650       0.13862734
N       -0.51317100       1.22002942      -0.11829303
H        2.08636868       1.46581699       0.58729173
H        2.73167742       0.24946288      -0.47731527
H        1.79214873      -0.92138169       0.83264179
H        0.61021550      -1.91500226      -0.55741391
H       -0.96892380      -1.82639841       0.80482444
H       -2.83880355       1.64393393       0.00875622
13
Frame=8 idx=010405 GeodesicLength=1.8993572783848187 rxn_smarts="[C:1]([c:2]1[c:3]([H:11])[n:4]([H:12])[c:5]([O:6][H:13])[n:7]1)([H:8])([H:9])[H:10]>>[C:1](=[C:2]1[C:3]([H:11])=[N:4][C:5]([O:6][H:13])=[N:7]1)([H:8])[H:9].[H:10][H:12]"
C        1.89275463       0.56739159       0.07182460
C        0.54707833       0.36076084      -0.23650158
C        0.13493917      -0.96290921      -0.36323616
N       -1.20182131      -0.90805685      -0.38183536
C       -1.50100443       0.38612116       0.02328769
O       -2.78494883       0.72420650       0.04362136
N       -0.51593347       1.22010094      -0.02383984
H        2.13447555       1.50553897       0.57011473
H        2.71198543       0.38027863      -0.61448246
H        2.05783588      -0.98473568       0.65205566
H        0.58777635      -1.94440028      -0.29520566
H       -1.22729246      -2.02618030       0.60342745
H       -2.83584483       1.68188370      -0.04923043
13
Frame=9 idx=010405 GeodesicLength=2.061385179034222 rxn_smarts="[C:1]([c:2]1[c:3]([H:11])[n:4]([H:12])[c:5]([O:6][H:13])[n:7]1)([H:8])([H:9])[H:10]>>[C:1](=[C:2]1[C:3]([H:11])=[N:4][C:5]([O:6][H:13])=[N:7]1)([H:8])[H:9].[H:10][H:12]"
C        1.91658329       0.59886868       0.04788416
C        0.54884141       0.35658302      -0.06081140
C        0.12681206      -0.97155830      -0.09234309
N       -1.18356220      -0.89010364      -0.35843617
C       -1.51448663       0.40263408       0.01927252
O       -2.79377148       0.74915825      -0.06636771
N       -0.51929580       1.22706104       0.05951875
H        2.18862951       1.52023294       0.56170765
H        2.64500186       0.49349723      -0.74854132
H        2.25654932      -1.04819303       0.37662363
H        0.55795126      -1.95411486       0.05205589
H       -1.39834366      -2.19540418       0.31841642
H       -2.83090894       1.71133877      -0.10897933
13
Frame=10 idx=010405 GeodesicLength=2.197744799901008 rxn_smarts="[C:1]([c:2]1[c:3]([H:11])[n:4]([H:12])[c:5]([O:6][H:13])[n:7]1)([H:8])([H:9])[H:10]>>[C:1](=[C:2]1[C:3]([H:11])=[N:4][C:5]([O:6][H:13])=[N:7]1)([H:8])[H:9].[H:10][H:12]"
C        1.92157417       0.60247935       0.03499053
C        0.55013291       0.37053404       0.12784385
C        0.10205673      -0.95152260       0.19886457
N       -1.14419484      -0.87895290      -0.29175642
C       -1.51379821       0.42251502       0.00596723
O       -2.78364928       0.76005137      -0.18215668
N       -0.52221615       1.24570804       0.12415821
H        2.25499863       1.49899754       0.55805875
H        2.53580547       0.56856070      -0.85773755
H        2.28826580      -1.12839806       0.03068872
H        0.52353029      -1.92053078       0.43042412
H       -1.38504291      -2.31223230      -0.00315039
H       -2.82746261       1.72279058      -0.17619493
13
Frame=11 idx=010405 GeodesicLength=2.346615401378981 rxn_smarts="[C:1]([c:2]1[c:3]([H:11])[n:4]([H:12])[c:5]([O:6][H:13])[n:7]1)([H:8])([H:9])[H:10]>>[C:1](=[C:2]1[C:3]([H:11])=[N:4][C:5]([O:6][H:13])=[N:7]1)([H:8])[H:9].[H:10][H:12]"
C        1.90977333       0.57947639       0.02874004
C        0.54967285       0.39850283       0.29342975
C        0.06515624      -0.90697780       0.46943010
N       -1.10460679      -0.87546561      -0.19172075
C       -1.50228110       0.43765456      -0.00612166
O       -2.75851722       0.75693392      -0.29021025
N       -0.52437559       1.26767158       0.17516458
H        2.32185578       1.44398116       0.55146728
H        2.41551310       0.59716319      -0.92955724
H        2.14124499      -1.20693363      -0.29900692
H        0.49913729      -1.85918937       0.74323792
H       -1.18952860      -2.35044882      -0.30164002
H       -2.82304428       1.71763159      -0.24321283
13
Frame=12 idx=010405 GeodesicLength=2.5227618265061342 rxn_smarts="[C:1]([c:2]1[c:3]([H:11])[n:4]([H:12])[c:5]([O:6][H:13])[n:7]1)([H:8])([H:9])[H:10]>>[C:1](=[C:2]1[C:3]([H:11])=[N:4][C:5]([O:6][H:13])=[N:7]1)([H:8])[H:9].[H:10][H:12]"
C        1.88930188       0.54275619       0.02335408
C        0.54945096       0.42514214       0.41983439
C        0.02820454      -0.85921341       0.68051351
N       -1.07504304      -0.88086962      -0.09230118
C       -1.48619799       0.43952991      -0.01346210
O       -2.72495062       0.74031515      -0.38131569
N       -0.52662657       1.28097705       0.21589291
H        2.37441727       1.37759226       0.53297626
H        2.30977928       0.58898234      -0.97438041
H        1.91439219      -1.26656482      -0.54732101
H        0.48226802      -1.79648054       0.97512984
H       -0.91593801      -2.28777349      -0.54770738
H       -2.81905790       1.69560685      -0.29121322
13
Frame=13 idx=010405 GeodesicLength=2.718069017721615 rxn_smarts="[C:1]([c:2]1[c:3]([H:11])[n:4]([H:12])[c:5]([O:6][H:13])[n:7]1)([H:8])([H:9])[H:10]>>[C:1](=[C:2]1[C:3]([H:11])=[N:4][C:5]([O:6][H:13])=[N:7]1)([H:8])[H:9].[H:10][H:12]"
C        1.86779793       0.50753066       0.01820698
C        0.55229133       0.44398441       0.51466648
C       -0.00020301      -0.82258381       0.83221882
N       -1.04833191      -0.89347188      -0.01628807
C       -1.46895444       0.42873648      -0.01355656
O       -2.68839020       0.71351184      -0.45198073
N       -0.52896870       1.28340382       0.25318638
H        2.41298148       1.31350948       0.51505760
H        2.22423416       0.57366389      -1.00330629
H        1.69142875      -1.30090520      -0.73198444
H        0.47347214      -1.74659979       1.14101903
H       -0.67803021      -2.16382504      -0.71697751
H       -2.80932733       1.66304514      -0.34026169
13
Frame=14 idx=010405 GeodesicLength=2.919491681086603 rxn_smarts="[C:1]([c:2]1[c:3]([H:11])[n:4]([H:12])[c:5]([O:6][H:13])[n:7]1)([H:8])([H:9])[H:10]>>[C:1](=[C:2]1[C:3]([H:11])=[N:4][C:5]([O:6][H:13])=[N:7]1)([H:8])[H:9].[H:10][H:12]"
C        1.84863126       0.48059605       0.01442617
C        0.55840342       0.45619580       0.58858557
C       -0.01887233      -0.79773756       0.94263250
N       -1.02012952      -0.90976576       0.03871573
C       -1.45310251       0.41051348      -0.00428072
O       -2.65588852       0.67993975      -0.49585403
N       -0.53086715       1.27811794       0.28898716
H        2.44194480       1.25751815       0.50377455
H        2.15562269       0.56584089      -1.02161810
H        1.49625514      -1.31204105      -0.88258115
H        0.47313834      -1.70777820       1.26598245
H       -0.51017832      -2.03244421      -0.82907603
H       -2.78495729       1.63104471      -0.40969410
13
Frame=15 idx=010405 GeodesicLength=3.121968087162159 rxn_smarts="[C:1]([c:2]1[c:3]([H:11])[n:4]([H:12])[c:5]([O:6][H:13])[n:7]1)([H:8])([H:9])[H:10]>>[C:1](=[C:2]1[C:3]([H:11])=[N:4][C:5]([O:6][H:13])=[N:7]1)([H:8])[H:9].[H:10][H:12]"
C        1.83354653       0.46000988       0.01283833
C        0.56634619       0.46503383       0.64664063
C       -0.03199071      -0.77811154       1.02808981
N       -0.99039756      -0.92700863       0.08042710
C       -1.43757493       0.38914332       0.00408102
O       -2.62838859       0.64369015      -0.52354896
N       -0.53150507       1.26884188       0.31604338
H        2.46588030       1.20794035       0.49907936
H        2.10307943       0.56303705      -1.03143481
H        1.32975028      -1.30711961      -1.01238574
H        0.47626033      -1.67178208       1.37133554
H       -0.40043117      -1.91167673      -0.91137455
H       -2.75457502       1.59800214      -0.47979112
13
Frame=16 idx=010405 GeodesicLength=3.32555919125677 rxn_smarts="[C:1]([c:2]1[c:3]([H:11])[n:4]([H:12])[c:5]([O:6][H:13])[n:7]1)([H:8])([H:9])[H:10]>>[C:1](=[C:2]1[C:3]([H:11])=[N:4][C:5]([O:6][H:13])=[N:7]1)([H:8])[H:9].[H:10][H:12]"
C        1.82299552       0.44306681       0.01406182
C        0.57533531       0.47340434       0.69329958
C       -0.04305507      -0.75918668       1.09873734
N       -0.95797630      -0.94421100       0.11205293
C       -1.42060913       0.36673832       0.00564761
O       -2.60651508       0.60635499      -0.54001122
N       -0.53013388       1.25867825       0.33131721
H        2.48832764       1.16138708       0.50105829
H        2.06485532       0.56243905      -1.03461326
H        1.18659146      -1.29159728      -1.13103109
H        0.47852704      -1.63380509       1.46963625
H       -0.33224497      -1.80556458      -0.98006931
H       -2.72609786       1.56229579      -0.54008613
