12
Frame=0 idx=003826 GeodesicLength=0.0 rxn_smarts="[C:1]([C@@:2]1([H:10])[N:3]([H:11])[C@:4]1([C:5]#[N:6])[H:12])([H:7])([H:8])[H:9]>>[C:1]([C@@:2]1([H:10])[N:3]([H:11])[C:4]1=[C:5]=[N:6][H:12])([H:7])([H:8])[H:9]"
C       -1.38285478       0.77859163      -0.02239555
C       -0.43443040      -0.30518008       0.40141879
N        0.16150685      -1.23540331      -0.61563338
C        0.95774365      -0.25181097      -0.01283697
C        2.01745966       0.64559523      -0.45549524
N        2.56057723      -0.13084046       0.42029732
H       -1.01566517       1.29270808      -0.91144475
H       -2.36892836       0.36026493      -0.23444990
H       -1.49464566       1.51622029       0.77364413
H       -0.69345373      -0.83267157       1.31364953
H       -0.07095310      -0.98274835      -1.57270954
H        1.76364381      -0.85472547       0.91595558
12
Frame=1 idx=003826 GeodesicLength=0.10662442694000239 rxn_smarts="[C:1]([C@@:2]1([H:10])[N:3]([H:11])[C@:4]1([C:5]#[N:6])[H:12])([H:7])([H:8])[H:9]>>[C:1]([C@@:2]1([H:10])[N:3]([H:11])[C:4]1=[C:5]=[N:6][H:12])([H:7])([H:8])[H:9]"
C       -1.38310732       0.78019556      -0.02384244
C       -0.44205634      -0.31065777       0.39859053
N        0.15148023      -1.24003590      -0.61738422
C        0.95350385      -0.26277062      -0.00685788
C        2.00349017       0.63525705      -0.45144334
N        2.58648658      -0.10665756       0.41906313
H       -1.01244341       1.29423128      -0.91156696
H       -2.37158592       0.36902961      -0.23858201
H       -1.49087355       1.51687040       0.77365304
H       -0.70624842      -0.83846265       1.30919928
H       -0.07780213      -0.98063816      -1.57338488
H        1.78915626      -0.85636125       0.92255573
12
Frame=2 idx=003826 GeodesicLength=0.21323913940004235 rxn_smarts="[C:1]([C@@:2]1([H:10])[N:3]([H:11])[C@:4]1([C:5]#[N:6])[H:12])([H:7])([H:8])[H:9]>>[C:1]([C@@:2]1([H:10])[N:3]([H:11])[C:4]1=[C:5]=[N:6][H:12])([H:7])([H:8])[H:9]"
C       -1.38323205       0.78186032      -0.02526725
C       -0.44997521      -0.31634994       0.39574362
N        0.14098851      -1.24492716      -0.61920618
C        0.94903813      -0.27451241      -0.00056495
C        1.98960225       0.62393456      -0.44702146
N        2.61225434      -0.08050267       0.41770483
H       -1.00880396       1.29578613      -0.91154601
H       -2.37415507       0.37820117      -0.24285601
H       -1.48684554       1.51748849       0.77376178
H       -0.71964757      -0.84448301       1.30459963
H       -0.08478129      -0.97858624      -1.57409304
H        1.81555746      -0.85790925       0.92874503
12
Frame=3 idx=003826 GeodesicLength=0.3198390722497077 rxn_smarts="[C:1]([C@@:2]1([H:10])[N:3]([H:11])[C@:4]1([C:5]#[N:6])[H:12])([H:7])([H:8])[H:9]>>[C:1]([C@@:2]1([H:10])[N:3]([H:11])[C:4]1=[C:5]=[N:6][H:12])([H:7])([H:8])[H:9]"
C       -1.38320620       0.78358857      -0.02666835
C       -0.45819633      -0.32226567       0.39288240
N        0.13000886      -1.25009130      -0.62109605
C        0.94433290      -0.28709303       0.00606711
C        1.97582009       0.61156584      -0.44216339
N        2.63777092      -0.05226396       0.41616447
H       -1.00469797       1.29736827      -0.91136896
H       -2.37660939       0.38780498      -0.24728431
H       -1.48253805       1.51806977       0.77397613
H       -0.73369104      -0.85073606       1.29984277
H       -0.09188503      -0.97659856      -1.57482680
H        1.84289123      -0.85934884       0.93447499
12
Frame=4 idx=003826 GeodesicLength=0.42642048431045754 rxn_smarts="[C:1]([C@@:2]1([H:10])[N:3]([H:11])[C@:4]1([C:5]#[N:6])[H:12])([H:7])([H:8])[H:9]>>[C:1]([C@@:2]1([H:10])[N:3]([H:11])[C:4]1=[C:5]=[N:6][H:12])([H:7])([H:8])[H:9]"
C       -1.38300510       0.78538217      -0.02804418
C       -0.46672960      -0.32841473       0.39001213
N        0.11852207      -1.25554110      -0.62304918
C        0.93937332      -0.30057064       0.01307004
C        1.96216745       0.59809568      -0.43678351
N        2.66291693      -0.02185394       0.41434177
H       -1.00007071       1.29897354      -0.91101967
H       -2.37891847       0.39786678      -0.25188482
H       -1.47792906       1.51860669       0.77430305
H       -0.74842359      -0.85722673       1.29491872
H       -0.09909970      -0.97467872      -1.57557710
H        1.87119646      -0.86063901       0.93971274
12
Frame=5 idx=003826 GeodesicLength=0.5329754669382375 rxn_smarts="[C:1]([C@@:2]1([H:10])[N:3]([H:11])[C@:4]1([C:5]#[N:6])[H:12])([H:7])([H:8])[H:9]>>[C:1]([C@@:2]1([H:10])[N:3]([H:11])[C:4]1=[C:5]=[N:6][H:12])([H:7])([H:8])[H:9]"
C       -1.38260902       0.78723842      -0.02939682
C       -0.47558755      -0.33480378       0.38714238
N        0.10652077      -1.26127823      -0.62505421
C        0.93414312      -0.31499460       0.02049565
C        1.94865214       0.58352133      -0.43072662
N        2.68760363       0.01070084       0.41200904
H       -0.99487017       1.30059226      -0.91048380
H       -2.38105128       0.40840221      -0.25668707
H       -1.47301086       1.51908942       0.77474194
H       -0.76389912      -0.86395854       1.28981663
H       -0.10638691      -0.97281690      -1.57632834
H        1.90049525      -0.86169242       0.94447121
12
Frame=6 idx=003826 GeodesicLength=0.6395004481309997 rxn_smarts="[C:1]([C@@:2]1([H:10])[N:3]([H:11])[C@:4]1([C:5]#[N:6])[H:12])([H:7])([H:8])[H:9]>>[C:1]([C@@:2]1([H:10])[N:3]([H:11])[C:4]1=[C:5]=[N:6][H:12])([H:7])([H:8])[H:9]"
C       -1.38199060       0.78915587      -0.03072232
C       -0.48477900      -0.34144460       0.38427640
N        0.09400197      -1.26730695      -0.62710947
C        0.92862677      -0.33041973       0.02838807
C        1.93529778       0.56780532      -0.42387451
N        2.71170765       0.04540541       0.40894824
H       -0.98903174       1.30222492      -0.90973256
H       -2.38296853       0.41943338      -0.26171933
H       -1.46776954       1.51949752       0.77530982
H       -0.78017096      -0.87094581       1.28451368
H       -0.11370933      -0.97100446      -1.57707170
H        1.93078552      -0.86240088       0.94879368
12
Frame=7 idx=003826 GeodesicLength=0.7459971552688184 rxn_smarts="[C:1]([C@@:2]1([H:10])[N:3]([H:11])[C@:4]1([C:5]#[N:6])[H:12])([H:7])([H:8])[H:9]>>[C:1]([C@@:2]1([H:10])[N:3]([H:11])[C:4]1=[C:5]=[N:6][H:12])([H:7])([H:8])[H:9]"
C       -1.38112755       0.79112854      -0.03201736
C       -0.49431324      -0.34834800       0.38141821
N        0.08098028      -1.27361908      -0.62921390
C        0.92280922      -0.34689058       0.03680850
C        1.92211271       0.55095863      -0.41605227
N        2.73514278       0.08214803       0.40480309
H       -0.98249471       1.30387132      -0.90873355
H       -2.38463007       0.43097276      -0.26702017
H       -1.46220678       1.51980405       0.77602436
H       -0.79729917      -0.87820812       1.27897987
H       -0.12100226      -0.96921583      -1.57779801
H        1.96202880      -0.86260173       0.95280124
12
Frame=8 idx=003826 GeodesicLength=0.8524464711019452 rxn_smarts="[C:1]([C@@:2]1([H:10])[N:3]([H:11])[C@:4]1([C:5]#[N:6])[H:12])([H:7])([H:8])[H:9]>>[C:1]([C@@:2]1([H:10])[N:3]([H:11])[C:4]1=[C:5]=[N:6][H:12])([H:7])([H:8])[H:9]"
C       -1.38004220       0.79313246      -0.03329225
C       -0.50420877      -0.35550622       0.37858611
N        0.06752986      -1.28015044      -0.63134798
C        0.91667602      -0.36438601       0.04588478
C        1.90903672       0.53321338      -0.40685688
N        2.75806673       0.12034641       0.39876852
H       -0.97524881       1.30552144      -0.90746523
H       -2.38601828       0.44297439      -0.27266817
H       -1.45642003       1.51997139       0.77687850
H       -0.81536440      -0.88576328       1.27318323
H       -0.12810334      -0.96735962      -1.57848186
H        1.99409651      -0.86199390       0.95681124
12
Frame=9 idx=003826 GeodesicLength=0.9588645502348988 rxn_smarts="[C:1]([C@@:2]1([H:10])[N:3]([H:11])[C@:4]1([C:5]#[N:6])[H:12])([H:7])([H:8])[H:9]>>[C:1]([C@@:2]1([H:10])[N:3]([H:11])[C:4]1=[C:5]=[N:6][H:12])([H:7])([H:8])[H:9]"
C       -1.37856122       0.79519505      -0.03447829
C       -0.51442254      -0.36299517       0.37570750
N        0.05354563      -1.28701554      -0.63361343
C        0.91021357      -0.38311137       0.05545195
C        1.89629874       0.51395127      -0.39679705
N        2.77970856       0.16104039       0.39150283
H       -0.96706648       1.30721959      -0.90580134
H       -2.38699185       0.45559657      -0.27856329
H       -1.45012631       1.51994080       0.77801669
H       -0.83434703      -0.89367962       1.26702101
H       -0.13518706      -0.96554798      -1.57918086
H        2.02693598      -0.86059400       0.96073430
12
Frame=10 idx=003826 GeodesicLength=1.0652290637490216 rxn_smarts="[C:1]([C@@:2]1([H:10])[N:3]([H:11])[C@:4]1([C:5]#[N:6])[H:12])([H:7])([H:8])[H:9]>>[C:1]([C@@:2]1([H:10])[N:3]([H:11])[C:4]1=[C:5]=[N:6][H:12])([H:7])([H:8])[H:9]"
C       -1.37683898       0.79724849      -0.03562057
C       -0.52500083      -0.37075577       0.37284226
N        0.03926662      -1.29399985      -0.63594606
C        0.90340917      -0.40286060       0.06581921
C        1.88366430       0.49398559      -0.38486133
N        2.80086011       0.20247538       0.38106046
H       -0.95808215       1.30894142      -0.90374566
H       -2.38760400       0.46863813      -0.28490375
H       -1.44370468       1.51964668       0.77937554
H       -0.85437756      -0.90196936       1.26046582
H       -0.14182678      -0.96351254      -1.57983583
H        2.06023476      -0.85783758       0.96534992
12
Frame=11 idx=003826 GeodesicLength=1.1715482420735894 rxn_smarts="[C:1]([C@@:2]1([H:10])[N:3]([H:11])[C@:4]1([C:5]#[N:6])[H:12])([H:7])([H:8])[H:9]>>[C:1]([C@@:2]1([H:10])[N:3]([H:11])[C:4]1=[C:5]=[N:6][H:12])([H:7])([H:8])[H:9]"
C       -1.37482709       0.79928363      -0.03668212
C       -0.53592837      -0.37881962       0.36995843
N        0.02474136      -1.30108591      -0.63840781
C        0.89625035      -0.42367479       0.07699238
C        1.87118677       0.47324058      -0.37098870
N        2.82136132       0.24458807       0.36701399
H       -0.94820751       1.31071766      -0.90119898
H       -2.38778513       0.48212406      -0.29170166
H       -1.43712904       1.51901809       0.78104596
H       -0.87548351      -0.91069776       1.25342135
H       -0.14795180      -0.96120658      -1.58047461
H        2.09377265      -0.85348743       0.97102178
12
Frame=12 idx=003826 GeodesicLength=1.277846851490886 rxn_smarts="[C:1]([C@@:2]1([H:10])[N:3]([H:11])[C@:4]1([C:5]#[N:6])[H:12])([H:7])([H:8])[H:9]>>[C:1]([C@@:2]1([H:10])[N:3]([H:11])[C:4]1=[C:5]=[N:6][H:12])([H:7])([H:8])[H:9]"
C       -1.37262448       0.80125346      -0.03765843
C       -0.54722821      -0.38716849       0.36706329
N        0.01017941      -1.30810950      -0.64101216
C        0.88872143      -0.44540687       0.08916263
C        1.85875733       0.45218216      -0.35453631
N        2.84172567       0.28618412       0.34784418
H       -0.93749818       1.31259654      -0.89805960
H       -2.38754967       0.49592789      -0.29911649
H       -1.43070016       1.51794318       0.78308129
H       -0.89775902      -0.91993981       1.24578088
H       -0.15323875      -0.95840843      -1.58108392
H        2.12721463      -0.84705426       0.97853463
12
Frame=13 idx=003826 GeodesicLength=1.384037003154965 rxn_smarts="[C:1]([C@@:2]1([H:10])[N:3]([H:11])[C@:4]1([C:5]#[N:6])[H:12])([H:7])([H:8])[H:9]>>[C:1]([C@@:2]1([H:10])[N:3]([H:11])[C:4]1=[C:5]=[N:6][H:12])([H:7])([H:8])[H:9]"
C       -1.36969804       0.80324288      -0.03839892
C       -0.55874651      -0.39598163       0.36399243
N       -0.00481926      -1.31544241      -0.64396671
C        0.88080201      -0.46864675       0.10174482
C        1.84693095       0.42915893      -0.33705459
N        2.85958882       0.33029889       0.32594378
H       -0.92534881       1.31457040      -0.89415169
H       -2.38649260       0.51051618      -0.30673170
H       -1.42343124       1.51640861       0.78569416
H       -0.92101868      -0.92974008       1.23741796
H       -0.15831668      -0.95553177      -1.58177367
H        2.16055005      -0.83885325       0.98728413
12
Frame=14 idx=003826 GeodesicLength=1.4901798269409527 rxn_smarts="[C:1]([C@@:2]1([H:10])[N:3]([H:11])[C@:4]1([C:5]#[N:6])[H:12])([H:7])([H:8])[H:9]>>[C:1]([C@@:2]1([H:10])[N:3]([H:11])[C:4]1=[C:5]=[N:6][H:12])([H:7])([H:8])[H:9]"
C       -1.36649688       0.80513463      -0.03895561
C       -0.57058136      -0.40513406       0.36082866
N       -0.01966093      -1.32260285      -0.64723124
C        0.87249384      -0.49281732       0.11531551
C        1.83531391       0.40578924      -0.31664692
N        2.87681651       0.37335354       0.29758239
H       -0.91217554       1.31674045      -0.88936577
H       -2.38485335       0.52543489      -0.31500482
H       -1.41636156       1.51422697       0.78890343
H       -0.94545814      -0.94020341       1.22820991
H       -0.16230618      -0.95196903      -1.58250268
H        2.19326969      -0.82795307       0.99886715
12
Frame=15 idx=003826 GeodesicLength=1.596264419331999 rxn_smarts="[C:1]([C@@:2]1([H:10])[N:3]([H:11])[C@:4]1([C:5]#[N:6])[H:12])([H:7])([H:8])[H:9]>>[C:1]([C@@:2]1([H:10])[N:3]([H:11])[C:4]1=[C:5]=[N:6][H:12])([H:7])([H:8])[H:9]"
C       -1.36293378       0.80690561      -0.03926089
C       -0.58270037      -0.41467091       0.35751396
N       -0.03423314      -1.32952050      -0.65089784
C        0.86377759      -0.51793637       0.12987202
C        1.82399908       0.38202134      -0.29311164
N        2.89292321       0.41502078       0.26195839
H       -0.89781254       1.31915974      -0.88349867
H       -2.38249155       0.54071133      -0.32396027
H       -1.40947518       1.51126115       0.79284585
H       -0.97109290      -0.95143521       1.21797657
H       -0.16505340      -0.94758881      -1.58327799
H        2.22509299      -0.81392814       1.01384050
12
Frame=16 idx=003826 GeodesicLength=1.7022626178184592 rxn_smarts="[C:1]([C@@:2]1([H:10])[N:3]([H:11])[C@:4]1([C:5]#[N:6])[H:12])([H:7])([H:8])[H:9]>>[C:1]([C@@:2]1([H:10])[N:3]([H:11])[C:4]1=[C:5]=[N:6][H:12])([H:7])([H:8])[H:9]"
C       -1.35904590       0.80849979      -0.03926541
C       -0.59507370      -0.42458718       0.35401312
N       -0.04822786      -1.33595961      -0.65503054
C        0.85464516      -0.54381216       0.14555629
C        1.81299414       0.35827112      -0.26572458
N        2.90773920       0.45389430       0.21735629
H       -0.88222056       1.32192852      -0.87630711
H       -2.37931781       0.55622205      -0.33373514
H       -1.40307737       1.50731031       0.79764604
H       -0.99794378      -0.96357274       1.20649865
H       -0.16615030      -0.94205407      -1.58406675
H        2.25567878      -0.79614036       1.03305916
