13
Frame=0 idx=008358 GeodesicLength=0.0 rxn_smarts="[C:1](#[C:2][C:3]1=[C:4]([H:9])[C:5]([H:10])([H:11])[O:6][C:7]1([H:12])[H:13])[H:8]>>[C-:1](=[C:2]1[C+:3]=[C:4]([H:9])[C:5]([H:10])([H:11])[O:6][C:7]1([H:12])[H:13])[H:8]"
C        2.63659004      -0.77018471       0.21633579
C        1.47700340      -0.19745199       0.31361916
C        0.71372143       0.89201494       0.61554108
C       -0.43499780       1.47370728       0.45702468
C       -1.44739704       0.73122272      -0.41651171
O       -0.83009978      -0.40268936      -0.95524925
C        0.00384580      -1.03893407      -0.08098338
H        2.75135555      -1.68300983      -0.36269180
H       -0.73436051       2.38747924       0.95213925
H       -2.30367853       0.45344213       0.21099682
H       -1.79918416       1.33321802      -1.25438639
H        0.41613238      -1.90669160      -0.58131881
H       -0.44893076      -1.27212282       0.88548452
13
Frame=1 idx=008358 GeodesicLength=0.06315220560738553 rxn_smarts="[C:1](#[C:2][C:3]1=[C:4]([H:9])[C:5]([H:10])([H:11])[O:6][C:7]1([H:12])[H:13])[H:8]>>[C-:1](=[C:2]1[C+:3]=[C:4]([H:9])[C:5]([H:10])([H:11])[O:6][C:7]1([H:12])[H:13])[H:8]"
C        2.64915704      -0.75946829       0.21157498
C        1.48640068      -0.19949850       0.31105026
C        0.69284365       0.85795401       0.64663750
C       -0.43324128       1.47148752       0.45090872
C       -1.45260443       0.73575136      -0.41732060
O       -0.84821455      -0.40977272      -0.94658943
C       -0.00361743      -1.03987149      -0.07507502
H        2.78661401      -1.66607821      -0.37121895
H       -0.71754149       2.39573848       0.93543875
H       -2.31564860       0.47455965       0.20801876
H       -1.79398691       1.33615383      -1.26099926
H        0.40472913      -1.90742248      -0.58052783
H       -0.45488982      -1.28953316       0.88810210
13
Frame=2 idx=008358 GeodesicLength=0.12628824072955802 rxn_smarts="[C:1](#[C:2][C:3]1=[C:4]([H:9])[C:5]([H:10])([H:11])[O:6][C:7]1([H:12])[H:13])[H:8]>>[C-:1](=[C:2]1[C+:3]=[C:4]([H:9])[C:5]([H:10])([H:11])[O:6][C:7]1([H:12])[H:13])[H:8]"
C        2.66072984      -0.74825142       0.20913173
C        1.49451078      -0.20175239       0.31024250
C        0.67177534       0.82368275       0.67470286
C       -0.43023582       1.46840108       0.44436903
C       -1.45772865       0.74028440      -0.41796640
O       -0.86770014      -0.41756002      -0.93725462
C       -0.01191132      -1.04162606      -0.06917655
H        2.82288593      -1.64555928      -0.38061847
H       -0.69809109       2.40290951       0.91855414
H       -2.32721128       0.49690596       0.20560928
H       -1.78848966       1.33880119      -1.26756169
H        0.39319831      -1.90820357      -0.58037818
H       -0.46173225      -1.30803215       0.89034636
13
Frame=3 idx=008358 GeodesicLength=0.18942268749292018 rxn_smarts="[C:1](#[C:2][C:3]1=[C:4]([H:9])[C:5]([H:10])([H:11])[O:6][C:7]1([H:12])[H:13])[H:8]>>[C-:1](=[C:2]1[C+:3]=[C:4]([H:9])[C:5]([H:10])([H:11])[O:6][C:7]1([H:12])[H:13])[H:8]"
C        2.67144186      -0.73671710       0.20861910
C        1.50152487      -0.20444100       0.31126504
C        0.65080233       0.78959363       0.69953890
C       -0.42620689       1.46442363       0.43755636
C       -1.46270032       0.74483576      -0.41858881
O       -0.88842061      -0.42598712      -0.92720990
C       -0.02104186      -1.04412105      -0.06313162
H        2.86002375      -1.62149057      -0.39107901
H       -0.67653042       2.40867911       0.90194699
H       -2.33837820       0.52047674       0.20341904
H       -1.78246720       1.34114824      -1.27427606
H        0.38132236      -1.90915078      -0.58054259
H       -0.46936966      -1.32724950       0.89248256
13
Frame=4 idx=008358 GeodesicLength=0.25253544361514874 rxn_smarts="[C:1](#[C:2][C:3]1=[C:4]([H:9])[C:5]([H:10])([H:11])[O:6][C:7]1([H:12])[H:13])[H:8]>>[C-:1](=[C:2]1[C+:3]=[C:4]([H:9])[C:5]([H:10])([H:11])[O:6][C:7]1([H:12])[H:13])[H:8]"
C        2.68158091      -0.72476336       0.20931389
C        1.50779687      -0.20734714       0.31311945
C        0.63030690       0.75616876       0.72068514
C       -0.42145734       1.45963196       0.43060129
C       -1.46765822       0.74943259      -0.41912829
O       -0.91041059      -0.43481264      -0.91655516
C       -0.03084787      -1.04709516      -0.05725131
H        2.89780961      -1.59536056      -0.40066763
H       -0.65353031       2.41275375       0.88628276
H       -2.34914576       0.54504055       0.20152589
H       -1.77625716       1.34324740      -1.28097364
H        0.36903697      -1.91007456      -0.58137358
H       -0.47722402      -1.34682160       0.89442118
13
Frame=5 idx=008358 GeodesicLength=0.31563051435333994 rxn_smarts="[C:1](#[C:2][C:3]1=[C:4]([H:9])[C:5]([H:10])([H:11])[O:6][C:7]1([H:12])[H:13])[H:8]>>[C-:1](=[C:2]1[C+:3]=[C:4]([H:9])[C:5]([H:10])([H:11])[O:6][C:7]1([H:12])[H:13])[H:8]"
C        2.69121553      -0.71260997       0.21105927
C        1.51345830      -0.21064130       0.31577143
C        0.61040659       0.72346365       0.73849176
C       -0.41613752       1.45408000       0.42356485
C       -1.47253734       0.75407521      -0.41966047
O       -0.93354061      -0.44396755      -0.90523937
C       -0.04133636      -1.05052505      -0.05141666
H        2.93621938      -1.56703395      -0.40977715
H       -0.62944783       2.41517335       0.87158856
H       -2.35948838       0.57058897       0.19971789
H       -1.76971150       1.34504195      -1.28778768
H        0.35618172      -1.91107143      -0.58265300
H       -0.48528198      -1.36657387       0.89634057
13
Frame=6 idx=008358 GeodesicLength=0.3787065412054733 rxn_smarts="[C:1](#[C:2][C:3]1=[C:4]([H:9])[C:5]([H:10])([H:11])[O:6][C:7]1([H:12])[H:13])[H:8]>>[C-:1](=[C:2]1[C+:3]=[C:4]([H:9])[C:5]([H:10])([H:11])[O:6][C:7]1([H:12])[H:13])[H:8]"
C        2.70045067      -0.70030569       0.21358575
C        1.51865271      -0.21433751       0.31890087
C        0.59119917       0.69151470       0.75321425
C       -0.41038725       1.44783407       0.41649136
C       -1.47735065       0.75876288      -0.42017173
O       -0.95776563      -0.45333577      -0.89324675
C       -0.05246633      -1.05434453      -0.04568113
H        2.97521597      -1.53682547      -0.41804989
H       -0.60456320       2.41601515       0.85786640
H       -2.36937187       0.59704760       0.19797242
H       -1.76289140       1.34649517      -1.29469751
H        0.34267332      -1.91211615      -0.58444088
H       -0.49339551      -1.38640444       0.89825685
13
Frame=7 idx=008358 GeodesicLength=0.44175594602877033 rxn_smarts="[C:1](#[C:2][C:3]1=[C:4]([H:9])[C:5]([H:10])([H:11])[O:6][C:7]1([H:12])[H:13])[H:8]>>[C-:1](=[C:2]1[C+:3]=[C:4]([H:9])[C:5]([H:10])([H:11])[O:6][C:7]1([H:12])[H:13])[H:8]"
C        2.70925856      -0.68818257       0.21704477
C        1.52342337      -0.21863637       0.32261985
C        0.57268396       0.66021513       0.76530394
C       -0.40425042       1.44092466       0.40939328
C       -1.48200109       0.76348736      -0.42073618
O       -0.98298221      -0.46289044      -0.88050183
C       -0.06428915      -1.05859650      -0.03988995
H        3.01480861      -1.50410186      -0.42627193
H       -0.57898815       2.41539701       0.84495111
H       -2.37873594       0.62446043       0.19609244
H       -1.75560174       1.34751927      -1.30184642
H        0.32836079      -1.91333871      -0.58649562
H       -0.50168659      -1.40625740       0.90033656
13
Frame=8 idx=008358 GeodesicLength=0.5047843851991071 rxn_smarts="[C:1](#[C:2][C:3]1=[C:4]([H:9])[C:5]([H:10])([H:11])[O:6][C:7]1([H:12])[H:13])[H:8]>>[C-:1](=[C:2]1[C+:3]=[C:4]([H:9])[C:5]([H:10])([H:11])[O:6][C:7]1([H:12])[H:13])[H:8]"
C        2.71787075      -0.67577676       0.22069757
C        1.52795654      -0.22324073       0.32611478
C        0.55497471       0.62965639       0.77472935
C       -0.39787529       1.43345461       0.40226995
C       -1.48667057       0.76824793      -0.42117073
O       -1.00928313      -0.47242216      -0.86704660
C       -0.07664883      -1.06310279      -0.03441976
H        3.05493028      -1.47038189      -0.43246938
H       -0.55296937       2.41339558       0.83289737
H       -2.38755584       0.65261238       0.19442943
H       -1.74834283       1.34812915      -1.30892444
H        0.31331857      -1.91445321      -0.58939576
H       -0.50970501      -1.42611853       0.90228820
13
Frame=9 idx=008358 GeodesicLength=0.5677817174166727 rxn_smarts="[C:1](#[C:2][C:3]1=[C:4]([H:9])[C:5]([H:10])([H:11])[O:6][C:7]1([H:12])[H:13])[H:8]>>[C-:1](=[C:2]1[C+:3]=[C:4]([H:9])[C:5]([H:10])([H:11])[O:6][C:7]1([H:12])[H:13])[H:8]"
C        2.72615776      -0.66363052       0.22504687
C        1.53221587      -0.22846926       0.32978750
C        0.53799886       0.59963953       0.78198163
C       -0.39120637       1.42542254       0.39508251
C       -1.49120105       0.77303526      -0.42159546
O       -1.03654804      -0.48195621      -0.85277426
C       -0.08966144      -1.06797758      -0.02900942
H        3.09563606      -1.43437527      -0.43809756
H       -0.52644961       2.41012636       0.82143654
H       -2.39574080       0.68162749       0.19271579
H       -1.74080185       1.34821184      -1.31615631
H        0.29735563      -1.91567125      -0.59275364
H       -0.51775502      -1.44598292       0.90433581
13
Frame=10 idx=008358 GeodesicLength=0.6307442610732029 rxn_smarts="[C:1](#[C:2][C:3]1=[C:4]([H:9])[C:5]([H:10])([H:11])[O:6][C:7]1([H:12])[H:13])[H:8]>>[C-:1](=[C:2]1[C+:3]=[C:4]([H:9])[C:5]([H:10])([H:11])[O:6][C:7]1([H:12])[H:13])[H:8]"
C        2.73410274      -0.65193763       0.23014682
C        1.53621923      -0.23445430       0.33367413
C        0.52172853       0.57004770       0.78733070
C       -0.38422394       1.41683825       0.38779795
C       -1.49554184       0.77784237      -0.42202806
O       -1.06474682      -0.49144384      -0.83762297
C       -0.10336482      -1.07324962      -0.02361289
H        3.13691853      -1.39562945      -0.44341040
H       -0.49940532       2.40566333       0.81040542
H       -2.40320693       0.71153363       0.19089600
H       -1.73293042       1.34769532      -1.32358316
H        0.28036524      -1.91704065      -0.59651450
H       -0.52591418      -1.46586512       0.90652097
13
Frame=11 idx=008358 GeodesicLength=0.6936925048609995 rxn_smarts="[C:1](#[C:2][C:3]1=[C:4]([H:9])[C:5]([H:10])([H:11])[O:6][C:7]1([H:12])[H:13])[H:8]>>[C-:1](=[C:2]1[C+:3]=[C:4]([H:9])[C:5]([H:10])([H:11])[O:6][C:7]1([H:12])[H:13])[H:8]"
C        2.74206084      -0.63975825       0.23497219
C        1.54022457      -0.24053062       0.33640205
C        0.50636468       0.54112311       0.79034438
C       -0.37713976       1.40786669       0.38035538
C       -1.50006997       0.78266127      -0.42211943
O       -1.09408208      -0.50062220      -0.82162580
C       -0.11747021      -1.07860854      -0.01887225
H        3.17878956      -1.35702495      -0.44508702
H       -0.47217381       2.40007695       0.79994131
H       -2.40999413       0.74196025       0.18969613
H       -1.72570024       1.34663446      -1.33064639
H        0.26256043      -1.91801994      -0.60166930
H       -0.53336988      -1.48575824       0.90830875
13
Frame=12 idx=008358 GeodesicLength=0.7565895260001984 rxn_smarts="[C:1](#[C:2][C:3]1=[C:4]([H:9])[C:5]([H:10])([H:11])[O:6][C:7]1([H:12])[H:13])[H:8]>>[C-:1](=[C:2]1[C+:3]=[C:4]([H:9])[C:5]([H:10])([H:11])[O:6][C:7]1([H:12])[H:13])[H:8]"
C        2.74955257      -0.62859601       0.24086555
C        1.54393663      -0.24779917       0.33978061
C        0.49159157       0.51230843       0.79205178
C       -0.36962232       1.39829865       0.37275674
C       -1.50420203       0.78749056      -0.42233450
O       -1.12422545      -0.50969691      -0.80459499
C       -0.13241545      -1.08449542      -0.01390910
H        3.22115591      -1.31406448      -0.44766426
H       -0.44424585       2.39338470       0.78955881
H       -2.41585980       0.77342057       0.18810133
H       -1.71780952       1.34482228      -1.33811299
H        0.24344868      -1.91934769      -0.60690149
H       -0.54130494      -1.50572550       0.91040249
13
Frame=13 idx=008358 GeodesicLength=0.8194683783918856 rxn_smarts="[C:1](#[C:2][C:3]1=[C:4]([H:9])[C:5]([H:10])([H:11])[O:6][C:7]1([H:12])[H:13])[H:8]>>[C-:1](=[C:2]1[C+:3]=[C:4]([H:9])[C:5]([H:10])([H:11])[O:6][C:7]1([H:12])[H:13])[H:8]"
C        2.75716702      -0.61680827       0.24628103
C        1.54778198      -0.25501793       0.34150075
C        0.47777966       0.48412576       0.79151183
C       -0.36205885       1.38842792       0.36488587
C       -1.50862369       0.79230630      -0.42207679
O       -1.15550501      -0.51830467      -0.78657234
C       -0.14767725      -1.09037272      -0.00977127
H        3.26411394      -1.27187324      -0.44573234
H       -0.41622806       2.38570348       0.77951950
H       -2.42095996       0.80525982       0.18738406
H       -1.71096424       1.34237086      -1.34504751
H        0.22346227      -1.92010188      -0.61381219
H       -0.54828780      -1.52571543       0.91192941
13
Frame=14 idx=008358 GeodesicLength=0.8822959442340768 rxn_smarts="[C:1](#[C:2][C:3]1=[C:4]([H:9])[C:5]([H:10])([H:11])[O:6][C:7]1([H:12])[H:13])[H:8]>>[C-:1](=[C:2]1[C+:3]=[C:4]([H:9])[C:5]([H:10])([H:11])[O:6][C:7]1([H:12])[H:13])[H:8]"
C        2.76455153      -0.60550062       0.25212154
C        1.55154057      -0.26305219       0.34293597
C        0.46468326       0.45612879       0.78949647
C       -0.35417692       1.37807685       0.35675248
C       -1.51287726       0.79711612      -0.42169694
O       -1.18766004      -0.52656031      -0.76741931
C       -0.16359009      -1.09657354      -0.00582456
H        3.30750862      -1.22702422      -0.44252880
H       -0.38771040       2.37701062       0.76948904
H       -2.42507296       0.83786524       0.18676696
H       -1.70417922       1.33913751      -1.35201415
H        0.20220876      -1.92082396      -0.62145318
H       -0.55522583      -1.54580029       0.91337446
13
Frame=15 idx=008358 GeodesicLength=0.945112063373967 rxn_smarts="[C:1](#[C:2][C:3]1=[C:4]([H:9])[C:5]([H:10])([H:11])[O:6][C:7]1([H:12])[H:13])[H:8]>>[C-:1](=[C:2]1[C+:3]=[C:4]([H:9])[C:5]([H:10])([H:11])[O:6][C:7]1([H:12])[H:13])[H:8]"
C        2.77152524      -0.59524899       0.25867708
C        1.55507636      -0.27245970       0.34469043
C        0.45215371       0.42798307       0.78641517
C       -0.34578995       1.36708981       0.34835813
C       -1.51672450       0.80192613      -0.42133677
O       -1.22065429      -0.53447250      -0.74699836
C       -0.18039103      -1.10329841      -0.00178599
H        3.35132884      -1.17743345      -0.43933735
H       -0.35829261       2.36726017       0.75918671
H       -2.42801969       0.87150910       0.18588273
H       -1.69695634       1.33501303      -1.35925378
H        0.17937122      -1.92178234      -0.62944176
H       -0.56262694      -1.56608592       0.91494377
13
Frame=16 idx=008358 GeodesicLength=1.0079451520842437 rxn_smarts="[C:1](#[C:2][C:3]1=[C:4]([H:9])[C:5]([H:10])([H:11])[O:6][C:7]1([H:12])[H:13])[H:8]>>[C-:1](=[C:2]1[C+:3]=[C:4]([H:9])[C:5]([H:10])([H:11])[O:6][C:7]1([H:12])[H:13])[H:8]"
C        2.77863960      -0.58436344       0.26461840
C        1.55882265      -0.28191427       0.34446664
C        0.44058765       0.40027281       0.78127339
C       -0.33732080       1.35580252       0.33953109
C       -1.52086434       0.80668272      -0.42040548
O       -1.25470893      -0.54175522      -0.72524183
C       -0.19752898      -1.11001196       0.00140755
H        3.39574658      -1.12835109      -0.43120373
H       -0.32866241       2.35662583       0.74878384
H       -2.43001540       0.90548953       0.18599726
H       -1.69103530       1.33007150      -1.36588385
H        0.15537317      -1.92208025      -0.63918623
H       -0.56903348      -1.58646869       0.91584296
