16
Frame=0 idx=011345 GeodesicLength=0.0 rxn_smarts="[C:1]([c:2]1[c:3]([C:4]([H:11])([H:12])[H:13])[c:5]([H:14])[c:6]([H:15])[n:7]1[H:16])([H:8])([H:9])[H:10]>>[C+:1]([c:2]1[c:3]([C:4]([H:11])([H:12])[H:13])[c:5]([H:14])[c-:6][n:7]1[H:16])([H:8])[H:10].[H:9][H:15]"
C       -0.98307114       1.32912912      -0.25396649
C       -0.13537187       0.64516119       0.62717914
C        0.08631104      -0.76070046       0.40794493
C       -0.95598674      -1.82365023       0.45483026
C        1.34595244      -0.79029815      -0.09976123
C        1.99753754       0.53196445      -0.07105616
N        1.08339991       1.24044605       0.73342269
H       -1.88775674       0.85089074      -0.61277599
H        0.09322545       1.15153978      -1.23485879
H       -1.02187063       2.41414751      -0.24011035
H       -0.61707260      -2.72461360      -0.05600503
H       -1.88408766      -1.48976288      -0.01856222
H       -1.20268292      -2.08967124       1.48476212
H        1.80389042      -1.64950007      -0.57314479
H        1.14483383       0.91848371      -1.24719501
H        1.13274964       2.24643403       0.69929691
16
Frame=1 idx=011345 GeodesicLength=0.09214241291539181 rxn_smarts="[C:1]([c:2]1[c:3]([C:4]([H:11])([H:12])[H:13])[c:5]([H:14])[c:6]([H:15])[n:7]1[H:16])([H:8])([H:9])[H:10]>>[C+:1]([c:2]1[c:3]([C:4]([H:11])([H:12])[H:13])[c:5]([H:14])[c-:6][n:7]1[H:16])([H:8])[H:10].[H:9][H:15]"
C       -0.98905054       1.33204647      -0.25213943
C       -0.13424944       0.64784949       0.62473136
C        0.08939612      -0.75860440       0.41409613
C       -0.95559891      -1.81989955       0.44630472
C        1.35411915      -0.79557964      -0.08557420
C        1.99596053       0.52843245      -0.07946343
N        1.08994669       1.23998866       0.72623531
H       -1.90592957       0.85493795      -0.58051003
H        0.08220119       1.15557291      -1.26539782
H       -1.04153988       2.41616128      -0.21370406
H       -0.61545607      -2.72110872      -0.06343386
H       -1.87859713      -1.48719166      -0.03739564
H       -1.21235232      -2.08723609       1.47344714
H        1.82308423      -1.66455546      -0.52893135
H        1.15322898       0.91338697      -1.27729251
H        1.14483696       2.24579933       0.69902769
16
Frame=2 idx=011345 GeodesicLength=0.18422284328126748 rxn_smarts="[C:1]([c:2]1[c:3]([C:4]([H:11])([H:12])[H:13])[c:5]([H:14])[c:6]([H:15])[n:7]1[H:16])([H:8])([H:9])[H:10]>>[C+:1]([c:2]1[c:3]([C:4]([H:11])([H:12])[H:13])[c:5]([H:14])[c-:6][n:7]1[H:16])([H:8])[H:10].[H:9][H:15]"
C       -0.99513838       1.33504905      -0.25005735
C       -0.13311241       0.65064479       0.62246491
C        0.09243347      -0.75640812       0.42059983
C       -0.95511267      -1.81602282       0.43745556
C        1.36228473      -0.80080566      -0.07070238
C        1.99404235       0.52470992      -0.08832200
N        1.09657180       1.23956334       0.71885457
H       -1.92322999       0.85906616      -0.54758302
H        0.07029554       1.15938378      -1.29653103
H       -1.06112839       2.41755276      -0.18654274
H       -0.61351778      -2.71739064      -0.07118668
H       -1.87269182      -1.48436754      -0.05682126
H       -1.22232948      -2.08480556       1.46156759
H        1.84187304      -1.67874575      -0.48353477
H        1.16155112       0.90747056      -1.30809936
H        1.15720887       2.24510571       0.69843812
16
Frame=3 idx=011345 GeodesicLength=0.27623026715094 rxn_smarts="[C:1]([c:2]1[c:3]([C:4]([H:11])([H:12])[H:13])[c:5]([H:14])[c:6]([H:15])[n:7]1[H:16])([H:8])([H:9])[H:10]>>[C+:1]([c:2]1[c:3]([C:4]([H:11])([H:12])[H:13])[c:5]([H:14])[c-:6][n:7]1[H:16])([H:8])[H:10].[H:9][H:15]"
C       -1.00134135       1.33815159      -0.24767401
C       -0.13197333       0.65355656       0.62042333
C        0.09540783      -0.75410220       0.42750619
C       -0.95451447      -1.81200759       0.42829640
C        1.37043707      -0.80594762      -0.05507180
C        1.99174353       0.52075632      -0.09759353
N        1.10326523       1.23916416       0.71130716
H       -1.93955659       0.86321735      -0.51416546
H        0.05742996       1.16294308      -1.32823721
H       -1.08058162       2.41831507      -0.15865534
H       -0.61124792      -2.71342176      -0.07929389
H       -1.86634009      -1.48124808      -0.07677251
H       -1.23257670      -2.08241038       1.44910614
H        1.86017718      -1.69198263      -0.43710717
H        1.16979769       0.90067393      -1.33960041
H        1.16987358       2.24434218       0.69753211
16
Frame=4 idx=011345 GeodesicLength=0.3681806654277647 rxn_smarts="[C:1]([c:2]1[c:3]([C:4]([H:11])([H:12])[H:13])[c:5]([H:14])[c:6]([H:15])[n:7]1[H:16])([H:8])([H:9])[H:10]>>[C+:1]([c:2]1[c:3]([C:4]([H:11])([H:12])[H:13])[c:5]([H:14])[c-:6][n:7]1[H:16])([H:8])[H:10].[H:9][H:15]"
C       -1.00766216       1.34135822      -0.24495639
C       -0.13085134       0.65658652       0.61864785
C        0.09830323      -0.75168560       0.43485905
C       -0.95379375      -1.80785198       0.41887488
C        1.37856940      -0.81099029      -0.03859923
C        1.98903897       0.51654425      -0.10719630
N        1.11000976       1.23878587       0.70365032
H       -1.95482134       0.86731804      -0.48049571
H        0.04357613       1.16624523      -1.36050603
H       -1.09984817       2.41844063      -0.13011528
H       -0.60864247      -2.70918048      -0.08774762
H       -1.85954620      -1.47781209      -0.09715136
H       -1.24304025      -2.08007890       1.43610493
H        1.87785900      -1.70415910      -0.38997040
H        1.17802034       0.89297580      -1.37175017
H        1.18282885       2.24350388       0.69635145
16
Frame=5 idx=011345 GeodesicLength=0.4600448433729332 rxn_smarts="[C:1]([c:2]1[c:3]([C:4]([H:11])([H:12])[H:13])[c:5]([H:14])[c:6]([H:15])[n:7]1[H:16])([H:8])([H:9])[H:10]>>[C+:1]([c:2]1[c:3]([C:4]([H:11])([H:12])[H:13])[c:5]([H:14])[c-:6][n:7]1[H:16])([H:8])[H:10].[H:9][H:15]"
C       -1.01410290       1.34471356      -0.24184454
C       -0.12975265       0.65975229       0.61718004
C        0.10109622      -0.74913637       0.44267590
C       -0.95292629      -1.80353357       0.40917054
C        1.38665195      -0.81587141      -0.02126562
C        1.98587193       0.51201271      -0.11712614
N        1.11680286       1.23841137       0.69588515
H       -1.96901303       0.87134073      -0.44668421
H        0.02859798       1.16927075      -1.39330075
H       -1.11887998       2.41796517      -0.10091981
H       -0.60567496      -2.70461355      -0.09661620
H       -1.85226275      -1.47400574      -0.11791774
H       -1.25366298      -2.07784415       1.42250712
H        1.89496476      -1.71530739      -0.34206668
H        1.18619014       0.88428650      -1.40455647
H        1.19609970       2.24255909       0.69487942
16
Frame=6 idx=011345 GeodesicLength=0.5518680896549709 rxn_smarts="[C:1]([c:2]1[c:3]([C:4]([H:11])([H:12])[H:13])[c:5]([H:14])[c:6]([H:15])[n:7]1[H:16])([H:8])([H:9])[H:10]>>[C+:1]([c:2]1[c:3]([C:4]([H:11])([H:12])[H:13])[c:5]([H:14])[c-:6][n:7]1[H:16])([H:8])[H:10].[H:9][H:15]"
C       -1.02066041       1.34820713      -0.23832217
C       -0.12870040       0.66304703       0.61605298
C        0.10377434      -0.74646348       0.45099192
C       -0.95190253      -1.79906148       0.39926124
C        1.39468280      -0.82058822      -0.00298986
C        1.98223819       0.50714344      -0.12725564
N        1.12361979       1.23803598       0.68808760
H       -1.98209226       0.87520597      -0.41298491
H        0.01251194       1.17204536      -1.42662507
H       -1.13763559       2.41688409      -0.07117857
H       -0.60233612      -2.69972187      -0.10583882
H       -1.84452048      -1.46983678      -0.13896666
H       -1.26439764      -2.07571619       1.40840184
H        1.91131131      -1.72531755      -0.29386603
H        1.19443197       0.87462787      -1.43794565
H        1.20967509       2.24150870       0.69317781
16
Frame=7 idx=011345 GeodesicLength=0.643655357646674 rxn_smarts="[C:1]([c:2]1[c:3]([C:4]([H:11])([H:12])[H:13])[c:5]([H:14])[c:6]([H:15])[n:7]1[H:16])([H:8])([H:9])[H:10]>>[C+:1]([c:2]1[c:3]([C:4]([H:11])([H:12])[H:13])[c:5]([H:14])[c-:6][n:7]1[H:16])([H:8])[H:10].[H:9][H:15]"
C       -1.02733787       1.35186648      -0.23434543
C       -0.12770770       0.66647810       0.61529979
C        0.10631543      -0.74365615       0.45981918
C       -0.95070733      -1.79442733       0.38916128
C        1.40263439      -0.82509442       0.01624358
C        1.97810330       0.50189320      -0.13753663
N        1.13044977       1.23764620       0.68028049
H       -1.99407573       0.87888437      -0.37953652
H       -0.00474922       1.17457685      -1.46046920
H       -1.15608630       2.41522533      -0.04092164
H       -0.59860346      -2.69447710      -0.11542843
H       -1.83630360      -1.46528381      -0.16023804
H       -1.27518722      -2.07371545       1.39378748
H        1.92688834      -1.73421262      -0.24547792
H        1.20280116       0.86396506      -1.47189252
H        1.22356603       2.24033129       0.69125453
16
Frame=8 idx=011345 GeodesicLength=0.7354248512188111 rxn_smarts="[C:1]([c:2]1[c:3]([C:4]([H:11])([H:12])[H:13])[c:5]([H:14])[c:6]([H:15])[n:7]1[H:16])([H:8])([H:9])[H:10]>>[C+:1]([c:2]1[c:3]([C:4]([H:11])([H:12])[H:13])[c:5]([H:14])[c-:6][n:7]1[H:16])([H:8])[H:10].[H:9][H:15]"
C       -1.03413148       1.35569982      -0.22989888
C       -0.12678962       0.67004362       0.61493864
C        0.10870227      -0.74071472       0.46916060
C       -0.94932566      -1.78963114       0.37890695
C        1.41048682      -0.82936321       0.03644072
C        1.97344913       0.49622652      -0.14789114
N        1.13727795       1.23722710       0.67250180
H       -2.00499102       0.88233834      -0.34647558
H       -0.02323409       1.17690043      -1.49483517
H       -1.17420517       2.41301238      -0.01020382
H       -0.59446278      -2.68886887      -0.12536545
H       -1.82762114      -1.46034356      -0.18166299
H       -1.28598128      -2.07185276       1.37870229
H        1.94164427      -1.74198128      -0.19709841
H        1.21140757       0.85229825      -1.50635638
H        1.23777422       2.23900907       0.68913683
16
Frame=9 idx=011345 GeodesicLength=0.8273755549452952 rxn_smarts="[C:1]([c:2]1[c:3]([C:4]([H:11])([H:12])[H:13])[c:5]([H:14])[c:6]([H:15])[n:7]1[H:16])([H:8])([H:9])[H:10]>>[C+:1]([c:2]1[c:3]([C:4]([H:11])([H:12])[H:13])[c:5]([H:14])[c-:6][n:7]1[H:16])([H:8])[H:10].[H:9][H:15]"
C       -1.04106704       1.35970231      -0.22497677
C       -0.12595336       0.67372919       0.61493305
C        0.11092475      -0.73764763       0.47890716
C       -0.94773187      -1.78467148       0.36847077
C        1.41821207      -0.83336162       0.05746028
C        1.96827555       0.49011813      -0.15824740
N        1.14408024       1.23676401       0.66473287
H       -2.01495252       0.88560046      -0.31369719
H       -0.04320107       1.17911009      -1.52973712
H       -1.19196370       2.41032159       0.02096153
H       -0.58991157      -2.68284779      -0.13575227
H       -1.81852807      -1.45499455      -0.20316306
H       -1.29662976      -2.07017688       1.36312632
H        1.95559424      -1.74871798      -0.14846483
H        1.22057526       0.83955281      -1.54133878
H        1.25227685       2.23751934       0.68678546
16
Frame=10 idx=011345 GeodesicLength=0.9193257223926495 rxn_smarts="[C:1]([c:2]1[c:3]([C:4]([H:11])([H:12])[H:13])[c:5]([H:14])[c:6]([H:15])[n:7]1[H:16])([H:8])([H:9])[H:10]>>[C+:1]([c:2]1[c:3]([C:4]([H:11])([H:12])[H:13])[c:5]([H:14])[c-:6][n:7]1[H:16])([H:8])[H:10].[H:9][H:15]"
C       -1.04811332       1.36391611      -0.21955106
C       -0.12521870       0.67755460       0.61534832
C        0.11295351      -0.73443835       0.48914703
C       -0.94592737      -1.77953786       0.35792326
C        1.42577426      -0.83704548       0.07938180
C        1.96254243       0.48352280      -0.16855638
N        1.15085048       1.23624100       0.65702552
H       -2.02395004       0.88858962      -0.28150616
H       -0.06454707       1.18119034      -1.56517194
H       -1.20938230       2.40713309       0.05254952
H       -0.58492834      -2.67641345      -0.14649921
H       -1.80898467      -1.44923038      -0.22467081
H       -1.30715160      -2.06867117       1.34711512
H        1.96872877      -1.75443763      -0.10000431
H        1.23025671       0.82579065      -1.57678477
H        1.26709726       2.23583611       0.68425407
16
Frame=11 idx=011345 GeodesicLength=1.0112774285208148 rxn_smarts="[C:1]([c:2]1[c:3]([C:4]([H:11])([H:12])[H:13])[c:5]([H:14])[c:6]([H:15])[n:7]1[H:16])([H:8])([H:9])[H:10]>>[C+:1]([c:2]1[c:3]([C:4]([H:11])([H:12])[H:13])[c:5]([H:14])[c-:6][n:7]1[H:16])([H:8])[H:10].[H:9][H:15]"
C       -1.05526841       1.36833746      -0.21362342
C       -0.12460012       0.68150979       0.61618809
C        0.11477347      -0.73109653       0.49987087
C       -0.94391197      -1.77423817       0.34730861
C        1.43314581      -0.84040509       0.10216287
C        1.95624864       0.47641887      -0.17874089
N        1.15757208       1.23564126       0.64940886
H       -2.03203485       0.89128804      -0.24999310
H       -0.08729908       1.18319137      -1.60117047
H       -1.22645915       2.40346289       0.08450249
H       -0.57951731      -2.66955888      -0.15758300
H       -1.79903292      -1.44306100      -0.24609593
H       -1.31748493      -2.06735359       1.33072721
H        1.98100861      -1.75913361      -0.05188753
H        1.24063079       0.81105359      -1.61264849
H        1.28222935       2.23394361       0.68157382
16
Frame=12 idx=011345 GeodesicLength=1.103227953257168 rxn_smarts="[C:1]([c:2]1[c:3]([C:4]([H:11])([H:12])[H:13])[c:5]([H:14])[c:6]([H:15])[n:7]1[H:16])([H:8])([H:9])[H:10]>>[C+:1]([c:2]1[c:3]([C:4]([H:11])([H:12])[H:13])[c:5]([H:14])[c-:6][n:7]1[H:16])([H:8])[H:10].[H:9][H:15]"
C       -1.06252680       1.37297785      -0.20719530
C       -0.12411331       0.68559204       0.61745783
C        0.11636545      -0.72762376       0.51105995
C       -0.94168094      -1.76877127       0.33666645
C        1.44028965      -0.84340853       0.12573831
C        1.94938358       0.46878276      -0.18872969
N        1.16422529       1.23494635       0.64190420
H       -2.03928480       0.89368331      -0.21923237
H       -0.11151817       1.18516986      -1.63775775
H       -1.24320495       2.39932763       0.11677587
H       -0.57367811      -2.66226961      -0.16898550
H       -1.78870191      -1.43648712      -0.26735044
H       -1.32756353      -2.06623599       1.31401180
H        1.99244548      -1.76288477      -0.00423550
H        1.25190056       0.79538498      -1.64889251
H        1.29766251       2.23181625       0.67876465
16
Frame=13 idx=011345 GeodesicLength=1.1951768458108865 rxn_smarts="[C:1]([c:2]1[c:3]([C:4]([H:11])([H:12])[H:13])[c:5]([H:14])[c:6]([H:15])[n:7]1[H:16])([H:8])([H:9])[H:10]>>[C+:1]([c:2]1[c:3]([C:4]([H:11])([H:12])[H:13])[c:5]([H:14])[c-:6][n:7]1[H:16])([H:8])[H:10].[H:9][H:15]"
C       -1.06988722       1.37784237      -0.20027951
C       -0.12377640       0.68979639       0.61915124
C        0.11771048      -0.72402341       0.52268386
C       -0.93923528      -1.76313791       0.32604245
C        1.44716585      -0.84602630       0.15001248
C        1.94194592       0.46060641      -0.19844973
N        1.17078528       1.23414088       0.63453105
H       -2.04578273       0.89577051      -0.18928381
H       -0.13726377       1.18719692      -1.67497312
H       -1.25964373       2.39474466       0.14933878
H       -0.56741933      -2.65453461      -0.18067743
H       -1.77803267      -1.42951465      -0.28833588
H       -1.33731799      -2.06532340       1.29702923
H        2.00306945      -1.76580146       0.04283959
H        1.26430998       0.77883493      -1.68548423
H        1.31337216       2.22942870       0.67585504
16
Frame=14 idx=011345 GeodesicLength=1.2871165802080127 rxn_smarts="[C:1]([c:2]1[c:3]([C:4]([H:11])([H:12])[H:13])[c:5]([H:14])[c:6]([H:15])[n:7]1[H:16])([H:8])([H:9])[H:10]>>[C+:1]([c:2]1[c:3]([C:4]([H:11])([H:12])[H:13])[c:5]([H:14])[c-:6][n:7]1[H:16])([H:8])[H:10].[H:9][H:15]"
C       -1.07734325       1.38292941      -0.19290077
C       -0.12360142       0.69410987       0.62124928
C        0.11879651      -0.72030664       0.53469955
C       -0.93658204      -1.75734659       0.31548348
C        1.45374130      -0.84824912       0.17486617
C        1.93394411       0.45188444      -0.20783859
N        1.17723468       1.23320229       0.62730506
H       -2.05161413       0.89754176      -0.16017820
H       -0.16460327       1.18935120      -1.71286502
H       -1.27580062       2.38971990       0.18216246
H       -0.56076250      -2.64635526      -0.19262454
H       -1.76708444      -1.42216134      -0.30895621
H       -1.34668194      -2.06462281       1.27985402
H        2.01287297      -1.76792918       0.08926096
H        1.27814083       0.76147933      -1.72239118
H        1.32934321       2.22675273       0.67287354
16
Frame=15 idx=011345 GeodesicLength=1.3790347312240046 rxn_smarts="[C:1]([c:2]1[c:3]([C:4]([H:11])([H:12])[H:13])[c:5]([H:14])[c:6]([H:15])[n:7]1[H:16])([H:8])([H:9])[H:10]>>[C+:1]([c:2]1[c:3]([C:4]([H:11])([H:12])[H:13])[c:5]([H:14])[c-:6][n:7]1[H:16])([H:8])[H:10].[H:9][H:15]"
C       -1.08489402       1.38823586      -0.18508537
C       -0.12360248       0.69851943       0.62373040
C        0.11961136      -0.71648413       0.54705795
C       -0.93373458      -1.75140552       0.30504399
C        1.45998146      -0.85006688       0.20016202
C        1.92538943       0.44262757      -0.21684035
N        1.18355146       1.23211129       0.62024183
H       -2.05686169       0.89899576      -0.13194494
H       -0.19361086       1.19172042      -1.75148908
H       -1.29170782       2.38425463       0.21521798
H       -0.55373938      -2.63773657      -0.20478179
H       -1.75592257      -1.41444846      -0.32910647
H       -1.35559103      -2.06413449       1.26257203
H        2.02187524      -1.76935422       0.13494722
H        1.29370706       0.74340393      -1.75958648
H        1.34554842       2.22376139       0.66986105
16
Frame=16 idx=011345 GeodesicLength=1.4709263789134626 rxn_smarts="[C:1]([c:2]1[c:3]([C:4]([H:11])([H:12])[H:13])[c:5]([H:14])[c:6]([H:15])[n:7]1[H:16])([H:8])([H:9])[H:10]>>[C+:1]([c:2]1[c:3]([C:4]([H:11])([H:12])[H:13])[c:5]([H:14])[c-:6][n:7]1[H:16])([H:8])[H:10].[H:9][H:15]"
C       -1.09254140       1.39375452      -0.17686124
C       -0.12379308       0.70301181       0.62656927
C        0.12014555      -0.71256742       0.55970784
C       -0.93071174      -1.74532448       0.29478130
C        1.46585708      -0.85147550       0.22576198
C        1.91629700       0.43285735      -0.22540688
N        1.18971276       1.23085202       0.61335393
H       -2.06160495       0.90013313      -0.10459817
H       -0.22438344       1.19439297      -1.79090792
H       -1.30740241       2.37834574       0.24848650
H       -0.54638890      -2.62868859      -0.21709450
H       -1.74461800      -1.40640108      -0.34868634
H       -1.36399230      -2.06385264       1.24527536
H        2.03009778      -1.77016626       0.17981206
H        1.31137172       0.72469772      -1.79704902
H        1.36195435       2.22043071       0.66685583
