16
Frame=0 idx=001483 GeodesicLength=0.0 rxn_smarts="[C:1]([C@@:2]1([H:10])[C@@:3]2([H:11])[C:4]([H:12])([H:13])[C:5]([H:14])([H:15])[C@@:6]12[H:16])([H:7])([H:8])[H:9]>>[C:1]([C:2]([C@@:6]1([H:16])[C:3]([H:11])=[C:4]([H:12])[C:5]1([H:14])[H:15])([H:9])[H:10])([H:7])([H:8])[H:13]"
C        1.29105829      -0.04654134       1.11083066
C        0.87363376      -0.87091582      -0.01645993
C       -1.20948371      -0.75811087      -0.29595129
C       -1.29456481       0.53065582       0.37427380
C       -0.48069262       1.11787364      -0.80150537
C       -0.06779421      -0.33614102      -1.11147328
H        1.46439618      -0.49250054       2.08178164
H        1.65065074       0.95835437       0.94195573
H        2.05496681      -0.61602725       0.00816562
H        0.84170448      -1.94431084       0.13205553
H       -1.64914227      -1.72858863      -0.11121974
H       -2.23598057       0.97005533       0.69684137
H       -0.57184283       0.53943783       1.28120276
H        0.30002267       1.84845539      -0.57947697
H       -1.12876518       1.49681412      -1.58958636
H        0.16183325      -0.66851019      -2.12143419
16
Frame=1 idx=001483 GeodesicLength=0.09653687162906759 rxn_smarts="[C:1]([C@@:2]1([H:10])[C@@:3]2([H:11])[C:4]([H:12])([H:13])[C:5]([H:14])([H:15])[C@@:6]12[H:16])([H:7])([H:8])[H:9]>>[C:1]([C:2]([C@@:6]1([H:16])[C:3]([H:11])=[C:4]([H:12])[C:5]1([H:14])[H:15])([H:9])[H:10])([H:7])([H:8])[H:13]"
C        1.28637820      -0.05228208       1.11775540
C        0.87120849      -0.87193511      -0.01793928
C       -1.20361815      -0.75709515      -0.28614785
C       -1.29656062       0.53661682       0.37071351
C       -0.48533205       1.11951913      -0.80918214
C       -0.06575471      -0.33420594      -1.11161904
H        1.47191226      -0.51047452       2.08097913
H        1.63383279       0.95832036       0.95422332
H        2.06275202      -0.60542992       0.01515687
H        0.85136262      -1.94736745       0.11846836
H       -1.65282217      -1.72318050      -0.10197277
H       -2.24159606       0.97317664       0.68588411
H       -0.55216730       0.54089115       1.29250969
H        0.29695784       1.84872385      -0.58792524
H       -1.13067819       1.49814599      -1.59971543
H        0.15412504      -0.67342326      -2.12118863
16
Frame=2 idx=001483 GeodesicLength=0.1929576990684269 rxn_smarts="[C:1]([C@@:2]1([H:10])[C@@:3]2([H:11])[C:4]([H:12])([H:13])[C:5]([H:14])([H:15])[C@@:6]12[H:16])([H:7])([H:8])[H:9]>>[C:1]([C:2]([C@@:6]1([H:16])[C:3]([H:11])=[C:4]([H:12])[C:5]1([H:14])[H:15])([H:9])[H:10])([H:7])([H:8])[H:13]"
C        1.28202187      -0.05800667       1.12451615
C        0.86864597      -0.87305034      -0.01926380
C       -1.19779292      -0.75600286      -0.27635434
C       -1.29891837       0.54250025       0.36696835
C       -0.48996321       1.12112541      -0.81669529
C       -0.06371421      -0.33223640      -1.11166034
H        1.47976699      -0.52787702       2.07990600
H        1.61741572       0.95803073       0.96602914
H        2.07055220      -0.59500543       0.02223102
H        0.86081442      -1.95022914       0.10514538
H       -1.65663356      -1.71761436      -0.09303341
H       -2.24770034       0.97604271       0.67438375
H       -0.53232529       0.54200622       1.30434381
H        0.29376770       1.84901385      -0.59595916
H       -1.13231297       1.49957027      -1.60982880
H        0.14637599      -0.67826721      -2.12072845
16
Frame=3 idx=001483 GeodesicLength=0.28930566662586343 rxn_smarts="[C:1]([C@@:2]1([H:10])[C@@:3]2([H:11])[C:4]([H:12])([H:13])[C:5]([H:14])([H:15])[C@@:6]12[H:16])([H:7])([H:8])[H:9]>>[C:1]([C:2]([C@@:6]1([H:16])[C:3]([H:11])=[C:4]([H:12])[C:5]1([H:14])[H:15])([H:9])[H:10])([H:7])([H:8])[H:13]"
C        1.27799477      -0.06370615       1.13111243
C        0.86593803      -0.87426174      -0.02042977
C       -1.19201715      -0.75483047      -0.26655958
C       -1.30165988       0.54831321       0.36301707
C       -0.49458210       1.12269508      -0.82405289
C       -0.06167985      -0.33023595      -1.11159280
H        1.48797691      -0.54472031       2.07856798
H        1.60140842       0.95750533       0.97737429
H        2.07837417      -0.58474186       0.02936909
H        0.87006008      -1.95290377       0.09208393
H       -1.66058041      -1.71188391      -0.08439675
H       -2.25430410       0.97865715       0.66231310
H       -0.51231008       0.54274346       1.31675838
H        0.29045441       1.84932774      -0.60357594
H       -1.13365127       1.50109067      -1.61994044
H        0.13857806      -0.68304850      -2.12004809
16
Frame=4 idx=001483 GeodesicLength=0.38563038321997056 rxn_smarts="[C:1]([C@@:2]1([H:10])[C@@:3]2([H:11])[C:4]([H:12])([H:13])[C:5]([H:14])([H:15])[C@@:6]12[H:16])([H:7])([H:8])[H:9]>>[C:1]([C:2]([C@@:6]1([H:16])[C:3]([H:11])=[C:4]([H:12])[C:5]1([H:14])[H:15])([H:9])[H:10])([H:7])([H:8])[H:13]"
C        1.27430209      -0.06937213       1.13754350
C        0.86307551      -0.87556902      -0.02143227
C       -1.18630082      -0.75357377      -0.25675232
C       -1.30480893       0.55406289       0.35883455
C       -0.49918464       1.12423088      -0.83126342
C       -0.05965924      -0.32820820      -1.11141183
H        1.49656209      -0.56101472       2.07696834
H        1.58581731       0.95676331       0.98825989
H        2.08622382      -0.57462689       0.03655182
H        0.87909882      -1.95539852       0.07928126
H       -1.66466480      -1.70598269      -0.07605742
H       -2.26141942       0.98102527       0.64964494
H       -0.49211272       0.54305843       1.32981297
H        0.28702005       1.84966774      -0.61077235
H       -1.13467281       1.50271128      -1.63006630
H        0.13072368      -0.68777387      -2.11914137
16
Frame=5 idx=001483 GeodesicLength=0.4819537799029909 rxn_smarts="[C:1]([C@@:2]1([H:10])[C@@:3]2([H:11])[C:4]([H:12])([H:13])[C:5]([H:14])([H:15])[C@@:6]12[H:16])([H:7])([H:8])[H:9]>>[C:1]([C:2]([C@@:6]1([H:16])[C:3]([H:11])=[C:4]([H:12])[C:5]1([H:14])[H:15])([H:9])[H:10])([H:7])([H:8])[H:13]"
C        1.27095174      -0.07499503       1.14380916
C        0.86004993      -0.87697308      -0.02226748
C       -1.18065291      -0.75222632      -0.24691728
C       -1.30838749       0.55975646       0.35439714
C       -0.50376542       1.12573552      -0.83833614
C       -0.05766039      -0.32615761      -1.11111220
H        1.50554433      -0.57677092       2.07510605
H        1.57064441       0.95582629       0.99869171
H        2.09410700      -0.56464541       0.04375761
H        0.88793040      -1.95772161       0.06673354
H       -1.66889163      -1.69990218      -0.06800875
H       -2.26905771       0.98315053       0.63634624
H       -0.47172754       0.54290366       1.34356806
H        0.28346863       1.85003477      -0.61754479
H       -1.13535595       1.50443633      -1.64022141
H        0.12280260      -0.69245139      -2.11800148
16
Frame=6 idx=001483 GeodesicLength=0.5782976545264843 rxn_smarts="[C:1]([C@@:2]1([H:10])[C@@:3]2([H:11])[C:4]([H:12])([H:13])[C:5]([H:14])([H:15])[C@@:6]12[H:16])([H:7])([H:8])[H:9]>>[C:1]([C:2]([C@@:6]1([H:16])[C:3]([H:11])=[C:4]([H:12])[C:5]1([H:14])[H:15])([H:9])[H:10])([H:7])([H:8])[H:13]"
C        1.26795132      -0.08056803       1.14990859
C        0.85685112      -0.87847393      -0.02292936
C       -1.17508446      -0.75078007      -0.23703983
C       -1.31241902       0.56540279       0.34967898
C       -0.50831917       1.12721243      -0.84528027
C       -0.05569235      -0.32408806      -1.11068800
H        1.51494963      -0.59199895       2.07297926
H        1.55588823       0.95471417       1.00867346
H        2.10203025      -0.55478020       0.05096316
H        0.89655219      -1.95987882       0.05443806
H       -1.67326218      -1.69363448      -0.06024079
H       -2.27723049       0.98503666       0.62237868
H       -0.45114665       0.54222523       1.35808820
H        0.27980399       1.85042954      -0.62388889
H       -1.13567722       1.50627077      -1.65042083
H        0.11480480      -0.69708905      -2.11662041
16
Frame=7 idx=001483 GeodesicLength=0.6747033297674927 rxn_smarts="[C:1]([C@@:2]1([H:10])[C@@:3]2([H:11])[C:4]([H:12])([H:13])[C:5]([H:14])([H:15])[C@@:6]12[H:16])([H:7])([H:8])[H:9]>>[C:1]([C:2]([C@@:6]1([H:16])[C:3]([H:11])=[C:4]([H:12])[C:5]1([H:14])[H:15])([H:9])[H:10])([H:7])([H:8])[H:13]"
C        1.26530857      -0.08608399       1.15584077
C        0.85346845      -0.88007113      -0.02341237
C       -1.16960632      -0.74922533      -0.22710481
C       -1.31692994       0.57101102       0.34464748
C       -0.51283944       1.12866490      -0.85210757
C       -0.05376420      -0.32200427      -1.11013429
H        1.52480950      -0.60670840       2.07057992
H        1.54154077       0.95344762       1.01821223
H        2.10999699      -0.54501224       0.05814650
H        0.90496141      -1.96187372       0.04239352
H       -1.67777649      -1.68717099      -0.05274078
H       -2.28595409       0.98669230       0.60770619
H       -0.43035617       0.54095841       1.37344788
H        0.27603060       1.85085206      -0.62979998
H       -1.13560931       1.50821995      -1.66068402
H        0.10671968      -0.70169618      -2.11499066
16
Frame=8 idx=001483 GeodesicLength=0.7711704434730501 rxn_smarts="[C:1]([C@@:2]1([H:10])[C@@:3]2([H:11])[C:4]([H:12])([H:13])[C:5]([H:14])([H:15])[C@@:6]12[H:16])([H:7])([H:8])[H:9]>>[C:1]([C:2]([C@@:6]1([H:16])[C:3]([H:11])=[C:4]([H:12])[C:5]1([H:14])[H:15])([H:9])[H:10])([H:7])([H:8])[H:13]"
C        1.26303111      -0.09153694       1.16160512
C        0.84989121      -0.88176519      -0.02371032
C       -1.16422980      -0.74754946      -0.21709278
C       -1.32194261       0.57659125       0.33927480
C       -0.51731922       1.13009665      -0.85882953
C       -0.05188635      -0.31991131      -1.10944415
H        1.53515595      -0.62090963       2.06790005
H        1.52758916       0.95204553       1.02732068
H        2.11801336      -0.53531589       0.06527902
H        0.91315576      -1.96371177       0.03059444
H       -1.68243536      -1.68050043      -0.04549240
H       -2.29523917       0.98812057       0.59228108
H       -0.40934672       0.53903982       1.38971862
H        0.27215468       1.85130134      -0.63527433
H       -1.13512521       1.51028900      -1.67102789
H        0.09853320      -0.70628355      -2.11310241
16
Frame=9 idx=001483 GeodesicLength=0.8677012262812583 rxn_smarts="[C:1]([C@@:2]1([H:10])[C@@:3]2([H:11])[C:4]([H:12])([H:13])[C:5]([H:14])([H:15])[C@@:6]12[H:16])([H:7])([H:8])[H:9]>>[C:1]([C:2]([C@@:6]1([H:16])[C:3]([H:11])=[C:4]([H:12])[C:5]1([H:14])[H:15])([H:9])[H:10])([H:7])([H:8])[H:13]"
C        1.26113028      -0.09692230       1.16720038
C        0.84610861      -0.88355542      -0.02381675
C       -1.15896669      -0.74574075      -0.20698566
C       -1.32748455       0.58215222       0.33352464
C       -0.52175180       1.13151043      -0.86545777
C       -0.05006966      -0.31781517      -1.10861180
H        1.54602642      -0.63461324       2.06492759
H        1.51401697       0.95052737       1.03601016
H        2.12608159      -0.52566964       0.07233527
H        0.92113100      -1.96539478       0.01903916
H       -1.68723172      -1.67360898      -0.03848031
H       -2.30510278       0.98932961       0.57606172
H       -0.38810534       0.53640459       1.40697566
H        0.26818045       1.85177545      -0.64030480
H       -1.13419452       1.51248358      -1.68147073
H        0.09023175      -0.71086296      -2.11094677
16
Frame=10 idx=001483 GeodesicLength=0.9642920173561761 rxn_smarts="[C:1]([C@@:2]1([H:10])[C@@:3]2([H:11])[C:4]([H:12])([H:13])[C:5]([H:14])([H:15])[C@@:6]12[H:16])([H:7])([H:8])[H:9]>>[C:1]([C:2]([C@@:6]1([H:16])[C:3]([H:11])=[C:4]([H:12])[C:5]1([H:14])[H:15])([H:9])[H:10])([H:7])([H:8])[H:13]"
C        1.25961497      -0.10223640       1.17262636
C        0.84210842      -0.88544166      -0.02372400
C       -1.15382892      -0.74377987      -0.19675941
C       -1.33357884       0.58770740       0.32736417
C       -0.52612811       1.13291126      -0.87200623
C       -0.04832625      -0.31572137      -1.10762933
H        1.55746274      -0.64782725       2.06164351
H        1.50079607       0.94891125       1.04430174
H        2.13420487      -0.51603852       0.07928412
H        0.92888363      -1.96692526       0.00772216
H       -1.69216782      -1.66648619      -0.03167805
H       -2.31555636       0.99032399       0.55898756
H       -0.36661454       0.53296763       1.42529914
H        0.26411679       1.85227218      -0.64488846
H       -1.13278405       1.51480992      -1.69203171
H        0.08179740      -0.71544710      -2.10851155
16
Frame=11 idx=001483 GeodesicLength=1.0609411319010327 rxn_smarts="[C:1]([C@@:2]1([H:10])[C@@:3]2([H:11])[C:4]([H:12])([H:13])[C:5]([H:14])([H:15])[C@@:6]12[H:16])([H:7])([H:8])[H:9]>>[C:1]([C:2]([C@@:6]1([H:16])[C:3]([H:11])=[C:4]([H:12])[C:5]1([H:14])[H:15])([H:9])[H:10])([H:7])([H:8])[H:13]"
C        1.25849597      -0.10747818       1.17788215
C        0.83787758      -0.88742306      -0.02342428
C       -1.14882975      -0.74164667      -0.18639130
C       -1.34025131       0.59327127       0.32075507
C       -0.53043869       1.13430363      -0.87849010
C       -0.04666891      -0.31363583      -1.10648982
H        1.56951382      -0.66056307       2.05802610
H        1.48789110       0.94721321       1.05222045
H        2.14238407      -0.50638535       0.08609301
H        0.93640832      -1.96830143      -0.00335960
H       -1.69723795      -1.65911873      -0.02505333
H       -2.32661676       0.99111187       0.54099563
H       -0.34485203       0.52863972       1.44477506
H        0.25997135       1.85278860      -0.64902065
H       -1.13085784       1.51727447      -1.70273312
H        0.07321102      -0.72005045      -2.10578526
16
Frame=12 idx=001483 GeodesicLength=1.1576275719809281 rxn_smarts="[C:1]([C@@:2]1([H:10])[C@@:3]2([H:11])[C:4]([H:12])([H:13])[C:5]([H:14])([H:15])[C@@:6]12[H:16])([H:7])([H:8])[H:9]>>[C:1]([C:2]([C@@:6]1([H:16])[C:3]([H:11])=[C:4]([H:12])[C:5]1([H:14])[H:15])([H:9])[H:10])([H:7])([H:8])[H:13]"
C        1.25778523      -0.11264668       1.18296752
C        0.83340355      -0.88949823      -0.02290985
C       -1.14398123      -0.73931782      -0.17585475
C       -1.34752744       0.59885757       0.31365629
C       -0.53467323       1.13569232      -0.88492560
C       -0.04511121      -0.31156539      -1.10518583
H        1.58223069      -0.67283031       2.05404803
H        1.47525772       0.94544873       1.05979855
H        2.15061888      -0.49666705       0.09272681
H        0.94369716      -1.96952506      -0.01420903
H       -1.70243759      -1.65149095      -0.01857276
H       -2.33829663       0.99169753       0.52202249
H       -0.32279339       0.52332974       1.46548708
H        0.25575314       1.85332074      -0.65269751
H       -1.12837691       1.51988371      -1.71359673
H        0.06445125      -0.72468884      -2.10275472
16
Frame=13 idx=001483 GeodesicLength=1.25431649167038 rxn_smarts="[C:1]([C@@:2]1([H:10])[C@@:3]2([H:11])[C:4]([H:12])([H:13])[C:5]([H:14])([H:15])[C@@:6]12[H:16])([H:7])([H:8])[H:9]>>[C:1]([C:2]([C@@:6]1([H:16])[C:3]([H:11])=[C:4]([H:12])[C:5]1([H:14])[H:15])([H:9])[H:10])([H:7])([H:8])[H:13]"
C        1.25749511      -0.11774446       1.18788192
C        0.82867299      -0.89166668      -0.02217189
C       -1.13929674      -0.73676754      -0.16512089
C       -1.35543323       0.60448150       0.30602516
C       -0.53882094       1.13708193      -0.89132834
C       -0.04366828      -0.30951754      -1.10370870
H        1.59566790      -0.68464134       2.04967977
H        1.46284698       0.94362982       1.06707116
H        2.15890785      -0.48683689       0.09914911
H        0.95074451      -1.97059258      -0.02483177
H       -1.70775719      -1.64358430      -0.01219635
H       -2.35061168       0.99208493       0.50199340
H       -0.30041062       0.51694547       1.48751973
H        0.25147128       1.85386340      -0.65591365
H       -1.12530092       1.52264361      -1.72464339
H        0.05549299      -0.72937932      -2.09940529
16
Frame=14 idx=001483 GeodesicLength=1.3509941739623041 rxn_smarts="[C:1]([C@@:2]1([H:10])[C@@:3]2([H:11])[C:4]([H:12])([H:13])[C:5]([H:14])([H:15])[C@@:6]12[H:16])([H:7])([H:8])[H:9]>>[C:1]([C:2]([C@@:6]1([H:16])[C:3]([H:11])=[C:4]([H:12])[C:5]1([H:14])[H:15])([H:9])[H:10])([H:7])([H:8])[H:13]"
C        1.25764177      -0.12277577       1.19262546
C        0.82367072      -0.89392636      -0.02120028
C       -1.13478939      -0.73396315      -0.15415559
C       -1.36399769       0.61016040       0.29781264
C       -0.54286866       1.13847865      -0.89771662
C       -0.04235704      -0.30749994      -1.10204896
H        1.60989353      -0.69600710       2.04487999
H        1.45059161       0.94176659       1.07408835
H        2.16724585      -0.47683522       0.10531542
H        0.95753894      -1.97150339      -0.03523036
H       -1.71319078      -1.63538008      -0.00587393
H       -2.36358035       0.99227460       0.48081666
H       -0.27766143       0.50937859       1.51096730
H        0.24713618       1.85441136      -0.65866222
H       -1.12158012       1.52556258      -1.73589852
H        0.04630687      -0.73414178      -2.09571934
16
Frame=15 idx=001483 GeodesicLength=1.447611733478412 rxn_smarts="[C:1]([C@@:2]1([H:10])[C@@:3]2([H:11])[C:4]([H:12])([H:13])[C:5]([H:14])([H:15])[C@@:6]12[H:16])([H:7])([H:8])[H:9]>>[C:1]([C:2]([C@@:6]1([H:16])[C:3]([H:11])=[C:4]([H:12])[C:5]1([H:14])[H:15])([H:9])[H:10])([H:7])([H:8])[H:13]"
C        1.25824048      -0.12774780       1.19719770
C        0.81838170      -0.89627581      -0.01998454
C       -1.13047248      -0.73087001      -0.14292382
C       -1.37324797       0.61591155       0.28896886
C       -0.54680309       1.13988794      -0.90410814
C       -0.04119514      -0.30552121      -1.10019707
H        1.62497439      -0.70693917       2.03960472
H        1.43841921       0.93986406       1.08090555
H        2.17562630      -0.46659755       0.11118188
H        0.96407047      -1.97225313      -0.04540879
H       -1.71872761      -1.62685629       0.00044919
H       -2.37721892       0.99226672       0.45839951
H       -0.25450223       0.50052254       1.53591663
H        0.24275899       1.85495767      -0.66093769
H       -1.11716503       1.52864732      -1.74738519
H        0.03686094      -0.73899683      -2.09167880
16
Frame=16 idx=001483 GeodesicLength=1.544112287335969 rxn_smarts="[C:1]([C@@:2]1([H:10])[C@@:3]2([H:11])[C:4]([H:12])([H:13])[C:5]([H:14])([H:15])[C@@:6]12[H:16])([H:7])([H:8])[H:9]>>[C:1]([C:2]([C@@:6]1([H:16])[C:3]([H:11])=[C:4]([H:12])[C:5]1([H:14])[H:15])([H:9])[H:10])([H:7])([H:8])[H:13]"
C        1.25930847      -0.13267021       1.20159851
C        0.81278997      -0.89871315      -0.01851356
C       -1.12635920      -0.72744733      -0.13138585
C       -1.38321237       0.62175325       0.27944004
C       -0.55060910       1.14131640      -0.91052153
C       -0.04020202      -0.30359030      -1.09814254
H        1.64098381      -0.71744950       2.03380246
H        1.42624656       0.93792310       1.08758771
H        2.18403901      -0.45605096       0.11670047
H        0.97032627      -1.97283724      -0.05537116
H       -1.72435529      -1.61798764       0.00683823
H       -2.39154362       0.99205385       0.43463362
H       -0.23088143       0.49026531       1.56245555
H        0.23835133       1.85549519      -0.66273233
H       -1.11200030       1.53190608      -1.75912679
H        0.02711790      -0.74396684      -2.08726284
