13
Frame=0 idx=009969 GeodesicLength=0.0 rxn_smarts="[C:1]([C@@:2]([O:3][H:12])([C:4](=[O:5])[C:6]#[C:7][H:13])[H:11])([H:8])([H:9])[H:10]>>[C:1](=[C:2]([C:4](=[O:5])[C:6]#[C:7][H:13])[H:11])([H:8])[H:10].[O:3]([H:9])[H:12]"
C       -1.26876313       0.97716004       0.15598742
C       -0.53327259      -0.23680456       0.38836145
O       -1.67815034      -1.33225689      -0.17687266
C        0.65463873      -0.48434897      -0.49604914
O        0.57871621      -1.05352343      -1.55969530
C        1.89900081       0.07151248       0.00138546
C        2.92039197       0.51613673       0.43986252
H       -1.62668126       1.51236678       1.02656465
H       -2.10918071      -0.28468621      -0.29539444
H       -0.94600940       1.59980793      -0.67184098
H       -0.38971446      -0.57598718       1.41028810
H       -1.33449187      -1.62184640      -1.04253138
H        3.83351608       0.91246972       0.81993430
13
Frame=1 idx=009969 GeodesicLength=0.08857523316826632 rxn_smarts="[C:1]([C@@:2]([O:3][H:12])([C:4](=[O:5])[C:6]#[C:7][H:13])[H:11])([H:8])([H:9])[H:10]>>[C:1](=[C:2]([C:4](=[O:5])[C:6]#[C:7][H:13])[H:11])([H:8])[H:10].[O:3]([H:9])[H:12]"
C       -1.25128140       0.98202983       0.16263621
C       -0.53724336      -0.24485813       0.38992353
O       -1.70432288      -1.33237641      -0.19707074
C        0.65781941      -0.50652929      -0.47954023
O        0.58907896      -1.09496876      -1.53323272
C        1.89426012       0.07883023       0.00420109
C        2.91414729       0.54204643       0.42669821
H       -1.61474888       1.50742467       1.03735578
H       -2.12914245      -0.26663356      -0.32419458
H       -0.89029407       1.62246943      -0.63557965
H       -0.41943644      -0.60570639       1.40759171
H       -1.33756946      -1.63190980      -1.04921806
H        3.82873315       0.95018175       0.79042944
13
Frame=2 idx=009969 GeodesicLength=0.17716102638923562 rxn_smarts="[C:1]([C@@:2]([O:3][H:12])([C:4](=[O:5])[C:6]#[C:7][H:13])[H:11])([H:8])([H:9])[H:10]>>[C:1](=[C:2]([C:4](=[O:5])[C:6]#[C:7][H:13])[H:11])([H:8])[H:10].[O:3]([H:9])[H:12]"
C       -1.23380431       0.98681588       0.16953274
C       -0.54094980      -0.25232890       0.39176591
O       -1.72979274      -1.33169477      -0.21817610
C        0.66110842      -0.52798953      -0.46246141
O        0.59941102      -1.13642382      -1.50527632
C        1.88997322       0.08473966       0.00711625
C        2.90829030       0.56629711       0.41261268
H       -1.60447386       1.50189148       1.04784175
H       -2.14816724      -0.24750548      -0.35454621
H       -0.83480105       1.64382689      -0.59678144
H       -0.44993858      -0.63431585       1.40433078
H       -1.33977993      -1.64207103      -1.05543117
H        3.82292455       0.98875837       0.75947253
13
Frame=3 idx=009969 GeodesicLength=0.2657595929356785 rxn_smarts="[C:1]([C@@:2]([O:3][H:12])([C:4](=[O:5])[C:6]#[C:7][H:13])[H:11])([H:8])([H:9])[H:10]>>[C:1](=[C:2]([C:4](=[O:5])[C:6]#[C:7][H:13])[H:11])([H:8])[H:10].[O:3]([H:9])[H:12]"
C       -1.21676078       0.99146776       0.17661089
C       -0.54447289      -0.25909060       0.39396764
O       -1.75427218      -1.33045791      -0.24017478
C        0.66452923      -0.54834767      -0.44466650
O        0.60993201      -1.17756323      -1.47558611
C        1.88597991       0.09026530       0.01021149
C        2.90239573       0.59052934       0.39749581
H       -1.59647950       1.49574371       1.05780579
H       -2.16624225      -0.22765579      -0.38652631
H       -0.78029510       1.66384030      -0.55552294
H       -0.48122780      -0.66158628       1.40055882
H       -1.34078804      -1.65250811      -1.06103605
H        3.81770166       1.02536319       0.72686225
13
Frame=4 idx=009969 GeodesicLength=0.3543178197520458 rxn_smarts="[C:1]([C@@:2]([O:3][H:12])([C:4](=[O:5])[C:6]#[C:7][H:13])[H:11])([H:8])([H:9])[H:10]>>[C:1](=[C:2]([C:4](=[O:5])[C:6]#[C:7][H:13])[H:11])([H:8])[H:10].[O:3]([H:9])[H:12]"
C       -1.20039855       0.99600499       0.18382334
C       -0.54775146      -0.26501462       0.39652161
O       -1.77752991      -1.32885704      -0.26290266
C        0.66808069      -0.56731373      -0.42631681
O        0.62060277      -1.21810847      -1.44422918
C        1.88219223       0.09621634       0.01299390
C        2.89668398       0.61426198       0.38157762
H       -1.59099546       1.48905246       1.06711332
H       -2.18338193      -0.20735239      -0.41999938
H       -0.72744598       1.68255682      -0.51194561
H       -0.51298645      -0.68730790       1.39623668
H       -1.34048582      -1.66335782      -1.06581341
H        3.81341588       1.05921939       0.69294057
13
Frame=5 idx=009969 GeodesicLength=0.44285296899509147 rxn_smarts="[C:1]([C@@:2]([O:3][H:12])([C:4](=[O:5])[C:6]#[C:7][H:13])[H:11])([H:8])([H:9])[H:10]>>[C:1](=[C:2]([C:4](=[O:5])[C:6]#[C:7][H:13])[H:11])([H:8])[H:10].[O:3]([H:9])[H:12]"
C       -1.18419245       1.00047132       0.19130157
C       -0.55065197      -0.27033811       0.39944650
O       -1.79979331      -1.32669187      -0.28642742
C        0.67173598      -0.58547174      -0.40751422
O        0.63109063      -1.25845625      -1.41132584
C        1.87879040       0.10179330       0.01518591
C        2.89141526       0.63685614       0.36416707
H       -1.58722267       1.48198980       1.07587097
H       -2.19946753      -0.18622898      -0.45488278
H       -0.67575693       1.69990715      -0.46593510
H       -0.54511242      -0.71182669       1.39129622
H       -1.33935218      -1.67442732      -1.06982397
H        3.80851719       1.09242325       0.65864108
13
Frame=6 idx=009969 GeodesicLength=0.5313200770588369 rxn_smarts="[C:1]([C@@:2]([O:3][H:12])([C:4](=[O:5])[C:6]#[C:7][H:13])[H:11])([H:8])([H:9])[H:10]>>[C:1](=[C:2]([C:4](=[O:5])[C:6]#[C:7][H:13])[H:11])([H:8])[H:10].[O:3]([H:9])[H:12]"
C       -1.16872934       1.00484373       0.19893489
C       -0.55320631      -0.27483686       0.40278420
O       -1.82067484      -1.32436127      -0.31054206
C        0.67552769      -0.60221418      -0.38829149
O        0.64158023      -1.29802128      -1.37681670
C        1.87551069       0.10836699       0.01639041
C        2.88630563       0.65945235       0.34525005
H       -1.58587198       1.47452500       1.08383953
H       -2.21460886      -0.16485228      -0.49107666
H       -0.62630071       1.71599588      -0.41773192
H       -0.57734307      -0.73479564       1.38578779
H       -1.33700223      -1.68598094      -1.07278054
H        3.80481311       1.12187848       0.62425251
13
Frame=7 idx=009969 GeodesicLength=0.6197711455914159 rxn_smarts="[C:1]([C@@:2]([O:3][H:12])([C:4](=[O:5])[C:6]#[C:7][H:13])[H:11])([H:8])([H:9])[H:10]>>[C:1](=[C:2]([C:4](=[O:5])[C:6]#[C:7][H:13])[H:11])([H:8])[H:10].[O:3]([H:9])[H:12]"
C       -1.15335103       1.00914118       0.20694118
C       -0.55543680      -0.27889100       0.40666641
O       -1.84051774      -1.32148653      -0.33570344
C        0.67945399      -0.61838574      -0.36831912
O        0.65190677      -1.33728771      -1.34053885
C        1.87254627       0.11460344       0.01713984
C        2.88142372       0.68128195       0.32481104
H       -1.58620249       1.46675701       1.09114397
H       -2.22856246      -0.14258773      -0.52884782
H       -0.57809431       1.73069454      -0.36688537
H       -0.61011547      -0.75680278       1.37969260
H       -1.33388314      -1.69763262      -1.07505394
H        3.80083270       1.15059599       0.58895349
13
Frame=8 idx=009969 GeodesicLength=0.7081776416398774 rxn_smarts="[C:1]([C@@:2]([O:3][H:12])([C:4](=[O:5])[C:6]#[C:7][H:13])[H:11])([H:8])([H:9])[H:10]>>[C:1](=[C:2]([C:4](=[O:5])[C:6]#[C:7][H:13])[H:11])([H:8])[H:10].[O:3]([H:9])[H:12]"
C       -1.13840836       1.01334852       0.21530511
C       -0.55739273      -0.28239731       0.41116853
O       -1.85905509      -1.31830042      -0.36188050
C        0.68353839      -0.63364739      -0.34751622
O        0.66220297      -1.37586420      -1.30239202
C        1.86969099       0.12133729       0.01723747
C        2.87654207       0.70297954       0.30295471
H       -1.58866402       1.45865400       1.09763036
H       -2.24134078      -0.11974472      -0.56820538
H       -0.53181456       1.74406901      -0.31341862
H       -0.64333980      -0.77770392       1.37303086
H       -1.32974526      -1.70949532      -1.07651363
H        3.79778617       1.17676491       0.55259932
13
Frame=9 idx=009969 GeodesicLength=0.7965741328001954 rxn_smarts="[C:1]([C@@:2]([O:3][H:12])([C:4](=[O:5])[C:6]#[C:7][H:13])[H:11])([H:8])([H:9])[H:10]>>[C:1](=[C:2]([C:4](=[O:5])[C:6]#[C:7][H:13])[H:11])([H:8])[H:10].[O:3]([H:9])[H:12]"
C       -1.12323297       1.01746690       0.22422792
C       -0.55903150      -0.28568207       0.41641454
O       -1.87649760      -1.31441705      -0.38941514
C        0.68777888      -0.64878759      -0.32561643
O        0.67222517      -1.41427477      -1.26225097
C        1.86714606       0.12737944       0.01695973
C        2.87175578       0.72381244       0.27925841
H       -1.59243384       1.45036602       1.10338685
H       -2.25261614      -0.09570452      -0.60929600
H       -0.48659001       1.75586320      -0.25697904
H       -0.67731854      -0.79791953       1.36574859
H       -1.32499391      -1.72121640      -1.07743462
H        3.79380862       1.20311393       0.51499616
13
Frame=10 idx=009969 GeodesicLength=0.8848887555019592 rxn_smarts="[C:1]([C@@:2]([O:3][H:12])([C:4](=[O:5])[C:6]#[C:7][H:13])[H:11])([H:8])([H:9])[H:10]>>[C:1](=[C:2]([C:4](=[O:5])[C:6]#[C:7][H:13])[H:11])([H:8])[H:10].[O:3]([H:9])[H:12]"
C       -1.10819799       1.02150324       0.23364166
C       -0.56031453      -0.28856604       0.42242761
O       -1.89252215      -1.31013076      -0.41804671
C        0.69218764      -0.66336330      -0.30276755
O        0.68196179      -1.45203051      -1.22026730
C        1.86467267       0.13374880       0.01554372
C        2.86714067       0.74377706       0.25382446
H       -1.59790967       1.44189257       1.10822001
H       -2.26246684      -0.07087634      -0.65192732
H       -0.44321640       1.76615966      -0.19771905
H       -0.71168132      -0.81715814       1.35784743
H       -1.31943747      -1.73299578      -1.07751202
H        3.78978362       1.22803952       0.47673505
13
Frame=11 idx=009969 GeodesicLength=0.9731516572998345 rxn_smarts="[C:1]([C@@:2]([O:3][H:12])([C:4](=[O:5])[C:6]#[C:7][H:13])[H:11])([H:8])([H:9])[H:10]>>[C:1](=[C:2]([C:4](=[O:5])[C:6]#[C:7][H:13])[H:11])([H:8])[H:10].[O:3]([H:9])[H:12]"
C       -1.09310383       1.02543263       0.24368388
C       -0.56128637      -0.29120979       0.42936005
O       -1.90706997      -1.30533718      -0.44802390
C        0.69679075      -0.67766777      -0.27863712
O        0.69140908      -1.48925793      -1.17622289
C        1.86223944       0.14012895       0.01317932
C        2.86235561       0.76330784       0.22618672
H       -1.60484597       1.43330552       1.11211089
H       -2.27067558      -0.04504328      -0.69621879
H       -0.40152065       1.77478024      -0.13539412
H       -0.74666963      -0.83560535       1.34931211
H       -1.31311854      -1.74464439      -1.07691756
H        3.78549565       1.25181050       0.43758143
13
Frame=12 idx=009969 GeodesicLength=1.0613389994422935 rxn_smarts="[C:1]([C@@:2]([O:3][H:12])([C:4](=[O:5])[C:6]#[C:7][H:13])[H:11])([H:8])([H:9])[H:10]>>[C:1](=[C:2]([C:4](=[O:5])[C:6]#[C:7][H:13])[H:11])([H:8])[H:10].[O:3]([H:9])[H:12]"
C       -1.07784552       1.02928535       0.25435624
C       -0.56185240      -0.29360191       0.43726691
O       -1.92001206      -1.30006759      -0.47918275
C        0.70160601      -0.69174626      -0.25329217
O        0.70037787      -1.52589567      -1.13027935
C        1.85976134       0.14665058       0.00915579
C        2.85757115       0.78195574       0.19584819
H       -1.61318561       1.42467619       1.11487246
H       -2.27715229      -0.01822183      -0.74203858
H       -0.36153006       1.78165685      -0.06987507
H       -0.78205486      -0.85315014       1.34014091
H       -1.30614255      -1.75621542      -1.07545365
H        3.78045900       1.27467409       0.39848106
13
Frame=13 idx=009969 GeodesicLength=1.1492797442279903 rxn_smarts="[C:1]([C@@:2]([O:3][H:12])([C:4](=[O:5])[C:6]#[C:7][H:13])[H:11])([H:8])([H:9])[H:10]>>[C:1](=[C:2]([C:4](=[O:5])[C:6]#[C:7][H:13])[H:11])([H:8])[H:10].[O:3]([H:9])[H:12]"
C       -1.06277721       1.03299588       0.26583198
C       -0.56222600      -0.29576251       0.44631171
O       -1.93098497      -1.29440437      -0.51193219
C        0.70664370      -0.70527554      -0.22627461
O        0.70920964      -1.56158234      -1.08196305
C        1.85681542       0.15392564       0.00378486
C        2.85252754       0.79955017       0.16469957
H       -1.62307118       1.41594181       1.11659974
H       -2.28181424       0.00951505      -0.78955975
H       -0.32403349       1.78670251      -0.00116132
H       -0.81811057      -0.86993496       1.33023154
H       -1.29808102      -1.76741019      -1.07344799
H        3.77590237       1.29573884       0.35687949
13
Frame=14 idx=009969 GeodesicLength=1.236986790498113 rxn_smarts="[C:1]([C@@:2]([O:3][H:12])([C:4](=[O:5])[C:6]#[C:7][H:13])[H:11])([H:8])([H:9])[H:10]>>[C:1](=[C:2]([C:4](=[O:5])[C:6]#[C:7][H:13])[H:11])([H:8])[H:10].[O:3]([H:9])[H:12]"
C       -1.04739823       1.03669280       0.27782366
C       -0.56186697      -0.29757851       0.45631766
O       -1.94007956      -1.28855257      -0.54512250
C        0.71195452      -0.71841660      -0.19861434
O        0.71714284      -1.59647555      -1.03234317
C        1.85342773       0.16191274      -0.00568512
C        2.84791338       0.81529900       0.12983906
H       -1.63355270       1.40751920       1.11703813
H       -2.28502913       0.03792531      -0.83776536
H       -0.28872043       1.78980372       0.06993689
H       -0.85358652      -0.88548549       1.31970450
H       -1.28964501      -1.77861384      -1.07005710
H        3.76944008       1.31596980       0.31892767
13
Frame=15 idx=009969 GeodesicLength=1.324537183495166 rxn_smarts="[C:1]([C@@:2]([O:3][H:12])([C:4](=[O:5])[C:6]#[C:7][H:13])[H:11])([H:8])([H:9])[H:10]>>[C:1](=[C:2]([C:4](=[O:5])[C:6]#[C:7][H:13])[H:11])([H:8])[H:10].[O:3]([H:9])[H:12]"
C       -1.03152496       1.04028396       0.29075863
C       -0.56116304      -0.29939469       0.46765144
O       -1.94708201      -1.28215854      -0.57982754
C        0.71758334      -0.73157711      -0.16913807
O        0.72457521      -1.63082351      -0.98042898
C        1.84940315       0.16983975      -0.01754829
C        2.84291220       0.82961101       0.09239413
H       -1.64450142       1.39941746       1.11638606
H       -2.28624239       0.06762097      -0.88733032
H       -0.25525780       1.79054159       0.14412887
H       -0.88962462      -0.90031618       1.30841963
H       -1.28047664      -1.78924322      -1.06614610
H        3.76139898       1.33619852       0.28068052
13
Frame=16 idx=009969 GeodesicLength=1.411818041116139 rxn_smarts="[C:1]([C@@:2]([O:3][H:12])([C:4](=[O:5])[C:6]#[C:7][H:13])[H:11])([H:8])([H:9])[H:10]>>[C:1](=[C:2]([C:4](=[O:5])[C:6]#[C:7][H:13])[H:11])([H:8])[H:10].[O:3]([H:9])[H:12]"
C       -1.01480260       1.04375784       0.30467169
C       -0.56001340      -0.30128494       0.48037456
O       -1.95179201      -1.27509742      -0.61597163
C        0.72354695      -0.74490633      -0.13782213
O        0.73126466      -1.66465299      -0.92632224
C        1.84451857       0.17731121      -0.03234934
C        2.83770282       0.84136177       0.05264349
H       -1.65534548       1.39182383       1.11455103
H       -2.28534021       0.09878569      -0.93802344
H       -0.22337219       1.78854594       0.22120717
H       -0.92604013      -0.91434478       1.29631932
H       -1.27066799      -1.79912542      -1.06171298
H        3.75034102       1.35782559       0.24243450
