15
Frame=0 idx=005963 GeodesicLength=0.0 rxn_smarts="[C:1]([C:2]([C:3](=[O:4])[N:5]([C:6]([H:13])([H:14])[H:15])[H:12])([H:10])[H:11])([H:7])([H:8])[H:9]>>[C:1]([C:2]([C:3](=[O:4])[N+:5]([C-:6]([H:13])[H:14])([H:12])[H:15])([H:10])[H:11])([H:7])([H:8])[H:9]"
C        2.33943464      -0.27494863       0.22107315
C        1.07484990       0.43427561      -0.22701072
C       -0.17353900      -0.12262638       0.41663115
O       -0.19587271      -1.03714497       1.18789900
N       -1.36856706       0.52675106       0.02814986
C       -2.84184443      -0.33921573      -0.21644631
H        2.29520450      -1.33668671      -0.01974613
H        3.21208470       0.15654392      -0.26968937
H        2.47157934      -0.18895943       1.29940159
H        1.11980504       1.50533673      -0.00231632
H        0.94379640       0.36030756      -1.31251980
H       -1.27682579       1.28978438      -0.62512287
H       -2.90052441      -0.33133878      -1.30807304
H       -2.51297928      -1.32464458       0.12236799
H       -2.18660178       0.68256602       0.70540176
15
Frame=1 idx=005963 GeodesicLength=0.07420301988582362 rxn_smarts="[C:1]([C:2]([C:3](=[O:4])[N:5]([C:6]([H:13])([H:14])[H:15])[H:12])([H:10])[H:11])([H:7])([H:8])[H:9]>>[C:1]([C:2]([C:3](=[O:4])[N+:5]([C-:6]([H:13])[H:14])([H:12])[H:15])([H:10])[H:11])([H:7])([H:8])[H:9]"
C        2.32873734      -0.29027874       0.20369022
C        1.06841861       0.44369542      -0.21662669
C       -0.17907560      -0.09707259       0.44216348
O       -0.19984279      -0.98610708       1.24367956
N       -1.37597055       0.53621648       0.03421502
C       -2.80881541      -0.35387026      -0.24179326
H        2.26481112      -1.34790821      -0.05073518
H        3.20085389       0.13464874      -0.29376717
H        2.47794370      -0.21971097       1.28086771
H        1.13514953       1.51061201       0.02204829
H        0.92249321       0.38490510      -1.30094518
H       -1.28344365       1.30114696      -0.61680598
H       -2.83919686      -0.37055869      -1.33436588
H       -2.48751730      -1.32980447       0.12947072
H       -2.22454523       0.68408630       0.69890435
15
Frame=2 idx=005963 GeodesicLength=0.14853324376487614 rxn_smarts="[C:1]([C:2]([C:3](=[O:4])[N:5]([C:6]([H:13])([H:14])[H:15])[H:12])([H:10])[H:11])([H:7])([H:8])[H:9]>>[C:1]([C:2]([C:3](=[O:4])[N+:5]([C-:6]([H:13])[H:14])([H:12])[H:15])([H:10])[H:11])([H:7])([H:8])[H:9]"
C        2.31688577      -0.30555186       0.18679835
C        1.06248411       0.45363864      -0.20658795
C       -0.18427128      -0.07133537       0.46609169
O       -0.20351245      -0.93479604       1.29605322
N       -1.38298066       0.54515520       0.03908644
C       -2.77478599      -0.36863299      -0.26453748
H        2.23297742      -1.35835243      -0.08177854
H        3.18913315       0.11288817      -0.31596113
H        2.48145758      -0.25162380       1.26265569
H        1.15117406       1.51567922       0.04634374
H        0.90298156       0.41091861      -1.28952112
H       -1.29042449       1.31148174      -0.61034605
H       -2.77775157      -0.40899390      -1.35680545
H       -2.46151987      -1.33465505       0.13758715
H       -2.26184735       0.68417986       0.69092145
15
Frame=3 idx=005963 GeodesicLength=0.22299086060613701 rxn_smarts="[C:1]([C:2]([C:3](=[O:4])[N:5]([C:6]([H:13])([H:14])[H:15])[H:12])([H:10])[H:11])([H:7])([H:8])[H:9]>>[C:1]([C:2]([C:3](=[O:4])[N+:5]([C-:6]([H:13])[H:14])([H:12])[H:15])([H:10])[H:11])([H:7])([H:8])[H:9]"
C        2.30396640      -0.32071198       0.17035921
C        1.05704360       0.46404878      -0.19687974
C       -0.18913448      -0.04542836       0.48855622
O       -0.20690307      -0.88333934       1.34522183
N       -1.38958223       0.55355659       0.04287336
C       -2.73992729      -0.38341941      -0.28480605
H        2.19986808      -1.36792133      -0.11292090
H        3.17700710       0.09130854      -0.33636834
H        2.48219755      -0.28458621       1.24474334
H        1.16787102       1.52046651       0.07052323
H        0.88519278       0.43818604      -1.27822906
H       -1.29769933       1.32080579      -0.60560404
H       -2.71635942      -0.44653788      -1.37564491
H       -2.43503199      -1.33920128       0.14658903
H       -2.29850873       0.68277354       0.68158682
15
Frame=4 idx=005963 GeodesicLength=0.2975689638214855 rxn_smarts="[C:1]([C:2]([C:3](=[O:4])[N:5]([C:6]([H:13])([H:14])[H:15])[H:12])([H:10])[H:11])([H:7])([H:8])[H:9]>>[C:1]([C:2]([C:3](=[O:4])[N+:5]([C-:6]([H:13])[H:14])([H:12])[H:15])([H:10])[H:11])([H:7])([H:8])[H:9]"
C        2.29007129      -0.33569359       0.15435327
C        1.05209297       0.47484783      -0.18750652
C       -0.19367255      -0.01940595       0.50964174
O       -0.21002963      -0.83187288       1.39135518
N       -1.39575607       0.56140317       0.04567375
C       -2.70441003      -0.39812886      -0.30270532
H        2.16568682      -1.37651596      -0.14416628
H        3.16456272       0.06996995      -0.35504884
H        2.48022186      -0.31844535       1.22711981
H        1.18520088       1.52488484       0.09450826
H        0.86907167       0.46650867      -1.26706442
H       -1.30519890       1.32912898      -0.60244278
H       -2.65523562      -0.48303478      -1.39111214
H       -2.40810272      -1.34344149       0.15634504
H       -2.33450268       0.67979542       0.67104926
15
Frame=5 idx=005963 GeodesicLength=0.37227721985146167 rxn_smarts="[C:1]([C:2]([C:3](=[O:4])[N:5]([C:6]([H:13])([H:14])[H:15])[H:12])([H:10])[H:11])([H:7])([H:8])[H:9]>>[C:1]([C:2]([C:3](=[O:4])[N+:5]([C-:6]([H:13])[H:14])([H:12])[H:15])([H:10])[H:11])([H:7])([H:8])[H:9]"
C        2.27525013      -0.35047042       0.13873461
C        1.04761708       0.48599776      -0.17844484
C       -0.19789893       0.00676906       0.52950471
O       -0.21291318      -0.78044485       1.43468282
N       -1.40149482       0.56871421       0.04760047
C       -2.66833174      -0.41271296      -0.31837944
H        2.13052103      -1.38407906      -0.17554785
H        3.15184145       0.04884886      -0.37212299
H        2.47559489      -0.35310225       1.20974075
H        1.20316320       1.52888958       0.11825758
H        0.85451930       0.49574935      -1.25599841
H       -1.31287031       1.33649655      -0.60071581
H       -2.59444506      -0.51843013      -1.40347022
H       -2.38069838      -1.34740230       0.16674188
H       -2.36985465       0.67517661       0.65941674
15
Frame=6 idx=005963 GeodesicLength=0.4471149559844768 rxn_smarts="[C:1]([C:2]([C:3](=[O:4])[N:5]([C:6]([H:13])([H:14])[H:15])[H:12])([H:10])[H:11])([H:7])([H:8])[H:9]>>[C:1]([C:2]([C:3](=[O:4])[N+:5]([C-:6]([H:13])[H:14])([H:12])[H:15])([H:10])[H:11])([H:7])([H:8])[H:9]"
C        2.25957697      -0.36499344       0.12348367
C        1.04360952       0.49743497      -0.16969487
C       -0.20182378       0.03304719       0.54819709
O       -0.21556813      -0.72915222       1.47535472
N       -1.40678126       0.57548639       0.04872993
C       -2.63182756      -0.42708145      -0.33193006
H        2.09454430      -1.39053166      -0.20707758
H        3.13891070       0.02797743      -0.38763377
H        2.46835489      -0.38842671       1.19258544
H        1.22171044       1.53240537       0.14172366
H        0.84148484       0.52575397      -1.24502187
H       -1.32065081       1.34291832      -0.60031698
H       -2.53413972      -0.55263475      -1.41292935
H       -2.35286511      -1.35106853       0.17771676
H       -2.40453527       0.66886513       0.64681322
15
Frame=7 idx=005963 GeodesicLength=0.5221012704850553 rxn_smarts="[C:1]([C:2]([C:3](=[O:4])[N:5]([C:6]([H:13])([H:14])[H:15])[H:12])([H:10])[H:11])([H:7])([H:8])[H:9]>>[C:1]([C:2]([C:3](=[O:4])[N+:5]([C-:6]([H:13])[H:14])([H:12])[H:15])([H:10])[H:11])([H:7])([H:8])[H:9]"
C        2.24308733      -0.37924573       0.10855994
C        1.04005569       0.50912926      -0.16123482
C       -0.20546127       0.05945450       0.56582745
O       -0.21801247      -0.67801309       1.51356763
N       -1.41160813       0.58174352       0.04914887
C       -2.59496810      -0.44119045      -0.34348275
H        2.05783165      -1.39582500      -0.23878976
H        3.12579744       0.00731787      -0.40167148
H        2.45853606      -0.42433737       1.17560532
H        1.24082613       1.53539101       0.16488815
H        0.82988782       0.55642338      -1.23410618
H       -1.32849342       1.34842812      -0.60113694
H       -2.47435011      -0.58562970      -1.41971468
H       -2.32457347      -1.35444953       0.18921276
H       -2.43855514       0.66080321       0.63332651
15
Frame=8 idx=005963 GeodesicLength=0.5972520947367729 rxn_smarts="[C:1]([C:2]([C:3](=[O:4])[N:5]([C:6]([H:13])([H:14])[H:15])[H:12])([H:10])[H:11])([H:7])([H:8])[H:9]>>[C:1]([C:2]([C:3](=[O:4])[N+:5]([C-:6]([H:13])[H:14])([H:12])[H:15])([H:10])[H:11])([H:7])([H:8])[H:9]"
C        2.22581988      -0.39320479       0.09393311
C        1.03694319       0.52104232      -0.15305186
C       -0.20882435       0.08599048       0.58246808
O       -0.22026064      -0.62705660       1.54948547
N       -1.41596539       0.58750515       0.04893242
C       -2.55782753      -0.45498556      -0.35314895
H        2.02047932      -1.39990810      -0.27070301
H        3.11252910      -0.01315671      -0.41430157
H        2.44616239      -0.46073547       1.15875808
H        1.26047867       1.53779695       0.18772866
H        0.81966048       0.58765172      -1.22323032
H       -1.33634816       1.35305212      -0.60307752
H       -2.41512348      -0.61738711      -1.42402780
H       -2.29581757      -1.35753990       0.20118747
H       -2.47190589       0.65093549       0.61904775
15
Frame=9 idx=005963 GeodesicLength=0.6726008040221937 rxn_smarts="[C:1]([C:2]([C:3](=[O:4])[N:5]([C:6]([H:13])([H:14])[H:15])[H:12])([H:10])[H:11])([H:7])([H:8])[H:9]>>[C:1]([C:2]([C:3](=[O:4])[N+:5]([C-:6]([H:13])[H:14])([H:12])[H:15])([H:10])[H:11])([H:7])([H:8])[H:9]"
C        2.20779152      -0.40686095       0.07956617
C        1.03425780       0.53315228      -0.14512265
C       -0.21192812       0.11268605       0.59820376
O       -0.22232686      -0.57628321       1.58326627
N       -1.41984711       0.59279990       0.04815211
C       -2.52044591      -0.46843049      -0.36103858
H        1.98253632      -1.40273649      -0.30284669
H        3.09911013      -0.03350201      -0.42559901
H        2.43124388      -0.49754936       1.14198735
H        1.28065094       1.53958568       0.21024259
H        0.81073011       0.61936719      -1.21236274
H       -1.34417239       1.35681682      -0.60605079
H       -2.35644722      -0.64791653      -1.42605155
H       -2.26656234      -1.36033415       0.21361491
H       -2.50459075       0.63920526       0.60403885
15
Frame=10 idx=005963 GeodesicLength=0.7481577970901335 rxn_smarts="[C:1]([C:2]([C:3](=[O:4])[N:5]([C:6]([H:13])([H:14])[H:15])[H:12])([H:10])[H:11])([H:7])([H:8])[H:9]>>[C:1]([C:2]([C:3](=[O:4])[N+:5]([C-:6]([H:13])[H:14])([H:12])[H:15])([H:10])[H:11])([H:7])([H:8])[H:9]"
C        2.18905605      -0.42018135       0.06544507
C        1.03199406       0.54541099      -0.13744763
C       -0.21478273       0.13949086       0.61304874
O       -0.22422179      -0.52575414       1.61501433
N       -1.42323850       0.59764032       0.04685698
C       -2.48291737      -0.48145524      -0.36723148
H        1.94415238      -1.40425557      -0.33523018
H        3.08558194      -0.05371424      -0.43557762
H        2.41378916      -0.53466496       1.12526524
H        1.30128255       1.54070165       0.23241049
H        0.80305936       0.65146201      -1.20149898
H       -1.35190636       1.35972980      -0.60999590
H       -2.29841924      -0.67718725      -1.42594286
H       -2.23685969      -1.36280332       0.22648764
H       -2.53656984       0.62558045       0.58839616
15
Frame=11 idx=005963 GeodesicLength=0.8239528492088788 rxn_smarts="[C:1]([C:2]([C:3](=[O:4])[N:5]([C:6]([H:13])([H:14])[H:15])[H:12])([H:10])[H:11])([H:7])([H:8])[H:9]>>[C:1]([C:2]([C:3](=[O:4])[N+:5]([C-:6]([H:13])[H:14])([H:12])[H:15])([H:10])[H:11])([H:7])([H:8])[H:9]"
C        2.16964423      -0.43314857       0.05154469
C        1.03014319       0.55778906      -0.13001428
C       -0.21740106       0.16639456       0.62704290
O       -0.22595699      -0.47549331       1.64484299
N       -1.42613060       0.60205074       0.04509754
C       -2.44529971      -0.49401299      -0.37181339
H        1.90542330      -1.40441941      -0.36787882
H        3.07196154      -0.07382419      -0.44426973
H        2.39379787      -0.57199928       1.10854444
H        1.32233188       1.54110433       0.25423359
H        0.79659981       0.68386423      -1.19062144
H       -1.35949778       1.36180387      -0.61485548
H       -2.24106505      -0.70521174      -1.42384687
H       -2.20672823      -1.36492188       0.23980726
H       -2.56782240       0.61002458       0.57218660
15
Frame=12 idx=005963 GeodesicLength=0.8999675258184716 rxn_smarts="[C:1]([C:2]([C:3](=[O:4])[N:5]([C:6]([H:13])([H:14])[H:15])[H:12])([H:10])[H:11])([H:7])([H:8])[H:9]>>[C:1]([C:2]([C:3](=[O:4])[N+:5]([C-:6]([H:13])[H:14])([H:12])[H:15])([H:10])[H:11])([H:7])([H:8])[H:9]"
C        2.14962983      -0.44573880       0.03784832
C        1.02873703       0.57026023      -0.12282218
C       -0.21978912       0.19337331       0.64023212
O       -0.22754987      -0.42550257       1.67292311
N       -1.42853185       0.60604783       0.04292177
C       -2.40772712      -0.50607784      -0.37487163
H        1.86646741      -1.40318822      -0.40082225
H        3.05834025      -0.09384708      -0.45170854
H        2.37130865      -0.60945464       1.09182207
H        1.34381602       1.54076803       0.27571513
H        0.79134557       0.71650686      -1.17975997
H       -1.36689625       1.36304752      -0.62059569
H       -2.18453286      -0.73198239      -1.41996212
H       -2.17625469      -1.36669528       0.25356278
H       -2.59836300       0.59248304       0.55551708
15
Frame=13 idx=005963 GeodesicLength=0.9764945170818047 rxn_smarts="[C:1]([C:2]([C:3](=[O:4])[N:5]([C:6]([H:13])([H:14])[H:15])[H:12])([H:10])[H:11])([H:7])([H:8])[H:9]>>[C:1]([C:2]([C:3](=[O:4])[N+:5]([C-:6]([H:13])[H:14])([H:12])[H:15])([H:10])[H:11])([H:7])([H:8])[H:9]"
C        2.12866820      -0.45808037       0.02416435
C        1.02768853       0.58299850      -0.11569131
C       -0.22199437       0.22085885       0.65283531
O       -0.22900764      -0.37532809       1.69945943
N       -1.43042761       0.60972641       0.04035070
C       -2.36975783      -0.51781487      -0.37650640
H        1.82671041      -1.40044584      -0.43439130
H        3.04435583      -0.11417000      -0.45802772
H        2.34596402      -0.64743159       1.07472091
H        1.36584317       1.53968970       0.29712348
H        0.78716339       0.74980396      -1.16861221
H       -1.37411645       1.36344509      -0.62724365
H       -2.12797187      -0.75794976      -1.41420414
H       -2.14491982      -1.36810463       0.26793165
H       -2.62819796       0.57280264       0.53809089
15
Frame=14 idx=005963 GeodesicLength=1.0535094093033106 rxn_smarts="[C:1]([C:2]([C:3](=[O:4])[N:5]([C:6]([H:13])([H:14])[H:15])[H:12])([H:10])[H:11])([H:7])([H:8])[H:9]>>[C:1]([C:2]([C:3](=[O:4])[N+:5]([C-:6]([H:13])[H:14])([H:12])[H:15])([H:10])[H:11])([H:7])([H:8])[H:9]"
C        2.10699710      -0.47006163       0.01066240
C        1.02696319       0.59574336      -0.10879613
C       -0.22398876       0.24848457       0.66469685
O       -0.23031071      -0.32539186       1.72436190
N       -1.43178958       0.61308419       0.03749614
C       -2.33166902      -0.52894323      -0.37678054
H        1.78679131      -1.39627692      -0.46810350
H        3.03011745      -0.13464434      -0.46322032
H        2.31798999      -0.68525279       1.05747048
H        1.38806078       1.53774593       0.31806894
H        0.78395917       0.78310251      -1.15739146
H       -1.38108525       1.36311526      -0.63453400
H       -2.07195703      -0.78249867      -1.40684593
H       -2.11291482      -1.36911095       0.28259353
H       -2.65716382       0.55090457       0.52032163
15
Frame=15 idx=005963 GeodesicLength=1.131117612402196 rxn_smarts="[C:1]([C:2]([C:3](=[O:4])[N:5]([C:6]([H:13])([H:14])[H:15])[H:12])([H:10])[H:11])([H:7])([H:8])[H:9]>>[C:1]([C:2]([C:3](=[O:4])[N+:5]([C-:6]([H:13])[H:14])([H:12])[H:15])([H:10])[H:11])([H:7])([H:8])[H:9]"
C        2.08440104      -0.48176621      -0.00285166
C        1.02664555       0.60871333      -0.10197219
C       -0.22581286       0.27667440       0.67607687
O       -0.23151541      -0.27524638       1.74800173
N       -1.43266648       0.61618277       0.03437173
C       -2.29330374      -0.53969513      -0.37580961
H        1.74615103      -1.39053130      -0.50238666
H        3.01552487      -0.15558263      -0.46744698
H        2.28710791      -0.72329581       1.03982145
H        1.41087307       1.53499073       0.33889287
H        0.78180229       0.81689312      -1.14594443
H       -1.38779672       1.36200606      -0.64259989
H       -2.01593204      -0.80616019      -1.39794574
H       -2.08007931      -1.36975658       0.29779147
H       -2.68539920       0.52657382       0.50200104
15
Frame=16 idx=005963 GeodesicLength=1.2094864890465482 rxn_smarts="[C:1]([C:2]([C:3](=[O:4])[N:5]([C:6]([H:13])([H:14])[H:15])[H:12])([H:10])[H:11])([H:7])([H:8])[H:9]>>[C:1]([C:2]([C:3](=[O:4])[N+:5]([C-:6]([H:13])[H:14])([H:12])[H:15])([H:10])[H:11])([H:7])([H:8])[H:9]"
C        2.06083405      -0.49318217      -0.01639426
C        1.02670164       0.62187155      -0.09521400
C       -0.22747971       0.30540975       0.68693192
O       -0.23262081      -0.22488687       1.77037199
N       -1.43302539       0.61903762       0.03098381
C       -2.25461697      -0.55001177      -0.37359862
H        1.70487673      -1.38312115      -0.53724951
H        3.00048312      -0.17705133      -0.47067420
H        2.25315936      -0.76148321       1.02167535
H        1.43415372       1.53133187       0.35959912
H        0.78067049       0.85114449      -1.13421857
H       -1.39419252       1.36009330      -0.65143252
H       -1.95985272      -0.82889541      -1.38749463
H       -2.04632641      -1.36998119       0.31355442
H       -2.71276455       0.49972454       0.48315968
