10
Frame=0 idx=005283 GeodesicLength=0.0 rxn_smarts="[c:1]1([H:7])[c:2]([H:8])[n:3][n:4][c:5]([H:9])[c:6]1[H:10]>>[C:1](/[C:2](=[N:3]\[N+:4]#[C-:5])[H:8])(=[C:6]([H:9])[H:10])[H:7]"
C        0.54142703       0.76874450      -0.18666747
C        1.24471378      -0.36876424       0.01301443
N        0.65195047      -1.60441633      -0.05315590
N       -0.61245446      -1.73340080      -0.15701437
C       -1.52632795      -0.67566864      -0.05254548
C       -0.87722315       0.62956676      -0.09935020
H        1.01957822       1.72151827      -0.37665291
H        2.32290119      -0.39534500       0.10641305
H       -1.24435532       0.15648949       0.96968377
H       -1.52020982       1.50127600      -0.16372491
10
Frame=1 idx=005283 GeodesicLength=0.09888723689727016 rxn_smarts="[c:1]1([H:7])[c:2]([H:8])[n:3][n:4][c:5]([H:9])[c:6]1[H:10]>>[C:1](/[C:2](=[N:3]\[N+:4]#[C-:5])[H:8])(=[C:6]([H:9])[H:10])[H:7]"
C        0.54079503       0.77221732      -0.17701513
C        1.24631223      -0.37143526       0.01059918
N        0.65861556      -1.60489476      -0.05072902
N       -0.60991583      -1.73469176      -0.14209319
C       -1.52806538      -0.69324539      -0.05909663
C       -0.87450831       0.63917498      -0.09623672
H        1.02373971       1.72174618      -0.37100341
H        2.32610273      -0.39571468       0.08594922
H       -1.27185943       0.15214917       0.96988022
H       -1.51121631       1.51469420      -0.17025451
10
Frame=2 idx=005283 GeodesicLength=0.19777135150480152 rxn_smarts="[c:1]1([H:7])[c:2]([H:8])[n:3][n:4][c:5]([H:9])[c:6]1[H:10]>>[C:1](/[C:2](=[N:3]\[N+:4]#[C-:5])[H:8])(=[C:6]([H:9])[H:10])[H:7]"
C        0.54021331       0.77565318      -0.16736627
C        1.24793311      -0.37407182       0.00800085
N        0.66536092      -1.60537269      -0.04815380
N       -0.60718452      -1.73595624      -0.12695194
C       -1.52973712      -0.71133693      -0.06570891
C       -0.87170924       0.64905209      -0.09277568
H        1.02794141       1.72179927      -0.36585178
H        2.32900479      -0.39591938       0.06558168
H       -1.30006922       0.14761307       0.96926165
H       -1.50175345       1.52853946      -0.17603581
10
Frame=3 idx=005283 GeodesicLength=0.2966516639477783 rxn_smarts="[c:1]1([H:7])[c:2]([H:8])[n:3][n:4][c:5]([H:9])[c:6]1[H:10]>>[C:1](/[C:2](=[N:3]\[N+:4]#[C-:5])[H:8])(=[C:6]([H:9])[H:10])[H:7]"
C        0.53968200       0.77904310      -0.15781054
C        1.24956964      -0.37667752       0.00517143
N        0.67218797      -1.60585437      -0.04543021
N       -0.60426513      -1.73719651      -0.11147145
C       -1.53133241      -0.72997839      -0.07237619
C       -0.86882365       0.65920528      -0.08897270
H        1.03218865       1.72170745      -0.36105906
H        2.33161374      -0.39597081       0.04526915
H       -1.32899705       0.14290280       0.96773886
H       -1.49182377       1.54281897      -0.18105929
10
Frame=4 idx=005283 GeodesicLength=0.3955291585901897 rxn_smarts="[c:1]1([H:7])[c:2]([H:8])[n:3][n:4][c:5]([H:9])[c:6]1[H:10]>>[C:1](/[C:2](=[N:3]\[N+:4]#[C-:5])[H:8])(=[C:6]([H:9])[H:10])[H:7]"
C        0.53919869       0.78237878      -0.14846537
C        1.25121286      -0.37925767       0.00202184
N        0.67909542      -1.60634502      -0.04260111
N       -0.60116319      -1.73840857      -0.09553554
C       -1.53283964      -0.74920983      -0.07907377
C       -0.86585037       0.66964317      -0.08482586
H        1.03648682       1.72150076      -0.35652126
H        2.33393024      -0.39588007       0.02506419
H       -1.35863740       0.13803758       0.96522958
H       -1.48143343       1.55754087      -0.18529270
10
Frame=5 idx=005283 GeodesicLength=0.49440062881604224 rxn_smarts="[c:1]1([H:7])[c:2]([H:8])[n:3][n:4][c:5]([H:9])[c:6]1[H:10]>>[C:1](/[C:2](=[N:3]\[N+:4]#[C-:5])[H:8])(=[C:6]([H:9])[H:10])[H:7]"
C        0.53876513       0.78565183      -0.13939014
C        1.25285639      -0.38181783      -0.00145710
N        0.68608312      -1.60684744      -0.03961242
N       -0.59787531      -1.73958235      -0.07898795
C       -1.53423990      -0.76907997      -0.08580640
C       -0.86278681       0.68037163      -0.08034618
H        1.04085662       1.72122453      -0.35201390
H        2.33596893      -0.39567175       0.00477264
H       -1.38904176       0.13304643       0.96160676
H       -1.47058640       1.57270492      -0.18876531
10
Frame=6 idx=005283 GeodesicLength=0.5932683665746691 rxn_smarts="[c:1]1([H:7])[c:2]([H:8])[n:3][n:4][c:5]([H:9])[c:6]1[H:10]>>[C:1](/[C:2](=[N:3]\[N+:4]#[C-:5])[H:8])(=[C:6]([H:9])[H:10])[H:7]"
C        0.53837899       0.78886219      -0.13068088
C        1.25448778      -0.38436314      -0.00536647
N        0.69314551      -1.60736366      -0.03654402
N       -0.59440288      -1.74069259      -0.06174813
C       -1.53551532      -0.78963602      -0.09254453
C       -0.85963102       0.69140651      -0.07549733
H        1.04530381       1.72089056      -0.34756223
H        2.33772971      -0.39535815      -0.01545107
H       -1.42020595       0.12792771       0.95678533
H       -1.45929062       1.58832657      -0.19139068
10
Frame=7 idx=005283 GeodesicLength=0.6921303578387198 rxn_smarts="[c:1]1([H:7])[c:2]([H:8])[n:3][n:4][c:5]([H:9])[c:6]1[H:10]>>[C:1](/[C:2](=[N:3]\[N+:4]#[C-:5])[H:8])(=[C:6]([H:9])[H:10])[H:7]"
C        0.53804279       0.79200882      -0.12237095
C        1.25609912      -0.38690011      -0.00973331
N        0.70027828      -1.60789421      -0.03332630
N       -0.59073857      -1.74170763      -0.04369810
C       -1.53663789      -0.81093526      -0.09929273
C       -0.85637840       0.70275996      -0.07025840
H        1.04984969       1.72053142      -0.34303043
H        2.33922304      -0.39496618      -0.03575549
H       -1.45218853       0.12269181       0.95062024
H       -1.44754951       1.60441139      -0.19315453
10
Frame=8 idx=005283 GeodesicLength=0.7909878650112675 rxn_smarts="[c:1]1([H:7])[c:2]([H:8])[n:3][n:4][c:5]([H:9])[c:6]1[H:10]>>[C:1](/[C:2](=[N:3]\[N+:4]#[C-:5])[H:8])(=[C:6]([H:9])[H:10])[H:7]"
C        0.53775667       0.79509457      -0.11451596
C        1.25767811      -0.38943348      -0.01463978
N        0.70747370      -1.60843733      -0.02990768
N       -0.58687787      -1.74258368      -0.02477796
C       -1.53757861      -0.83303724      -0.10603899
C       -0.85302393       0.71445006      -0.06457882
H        1.05450798       1.72016281      -0.33839755
H        2.34045267      -0.39452008      -0.05613859
H       -1.48502070       0.11733086       0.94297462
H       -1.43536803       1.62097351      -0.19397930
10
Frame=9 idx=005283 GeodesicLength=0.8898384145982354 rxn_smarts="[c:1]1([H:7])[c:2]([H:8])[n:3][n:4][c:5]([H:9])[c:6]1[H:10]>>[C:1](/[C:2](=[N:3]\[N+:4]#[C-:5])[H:8])(=[C:6]([H:9])[H:10])[H:7]"
C        0.53752784       0.79812587      -0.10706618
C        1.25921684      -0.39196506      -0.02006156
N        0.71473465      -1.60898643      -0.02596437
N       -0.58280634      -1.74327225      -0.00491053
C       -1.53828595      -0.85601346      -0.11283595
C       -0.84955752       0.72649397      -0.05841558
H        1.05931514       1.71982142      -0.33344799
H        2.34141439      -0.39406516      -0.07704602
H       -1.51881932       0.11183991       0.93361253
H       -1.42273974       1.63802118      -0.19386434
10
Frame=10 idx=005283 GeodesicLength=0.9886772657477243 rxn_smarts="[c:1]1([H:7])[c:2]([H:8])[n:3][n:4][c:5]([H:9])[c:6]1[H:10]>>[C:1](/[C:2](=[N:3]\[N+:4]#[C-:5])[H:8])(=[C:6]([H:9])[H:10])[H:7]"
C        0.53736567       0.80111268      -0.10000014
C        1.26070965      -0.39450175      -0.02605904
N        0.72206841      -1.60952382      -0.02119813
N       -0.57852244      -1.74370887       0.01590112
C       -1.53870390      -0.87992486      -0.11974338
C       -0.84596179       0.73891606      -0.05167038
H        1.06428376       1.71950767      -0.32820325
H        2.34207375      -0.39363175      -0.09866199
H       -1.55366235       0.10617666       0.92229491
H       -1.40965076       1.65557798      -0.19265972
10
Frame=11 idx=005283 GeodesicLength=1.087509776176454 rxn_smarts="[c:1]1([H:7])[c:2]([H:8])[n:3][n:4][c:5]([H:9])[c:6]1[H:10]>>[C:1](/[C:2](=[N:3]\[N+:4]#[C-:5])[H:8])(=[C:6]([H:9])[H:10])[H:7]"
C        0.53726332       0.80407723      -0.09348936
C        1.26210304      -0.39703687      -0.03274052
N        0.72946390      -1.61002692      -0.01567359
N       -0.57404986      -1.74382862       0.03737554
C       -1.53880601      -0.90480159      -0.12676984
C       -0.84222391       0.75177344      -0.04409238
H        1.06936308       1.71911319      -0.32346996
H        2.34245940      -0.39321830      -0.12022625
H       -1.58946656       0.10021355       0.90891951
H       -1.39610640       1.67373489      -0.18983318
10
Frame=12 idx=005283 GeodesicLength=1.186331834799106 rxn_smarts="[c:1]1([H:7])[c:2]([H:8])[n:3][n:4][c:5]([H:9])[c:6]1[H:10]>>[C:1](/[C:2](=[N:3]\[N+:4]#[C-:5])[H:8])(=[C:6]([H:9])[H:10])[H:7]"
C        0.53721404       0.80703070      -0.08773475
C        1.26335095      -0.39957472      -0.04026626
N        0.73691442      -1.61046628      -0.00930686
N       -0.56942266      -1.74357436       0.05930841
C       -1.53856660      -0.93067875      -0.13394278
C       -0.83832293       0.76510976      -0.03544071
H        1.07450449       1.71857379      -0.31982550
H        2.34261268      -0.39283606      -0.14119426
H       -1.62617702       0.09385830       0.89331471
H       -1.38210738       1.69255763      -0.18491202
10
Frame=13 idx=005283 GeodesicLength=1.2851429579509894 rxn_smarts="[c:1]1([H:7])[c:2]([H:8])[n:3][n:4][c:5]([H:9])[c:6]1[H:10]>>[C:1](/[C:2](=[N:3]\[N+:4]#[C-:5])[H:8])(=[C:6]([H:9])[H:10])[H:7]"
C        0.53723486       0.80998611      -0.08261121
C        1.26445010      -0.40212425      -0.04845522
N        0.74447401      -1.61078409      -0.00124010
N       -0.56465001      -1.74290176       0.08175435
C       -1.53786470      -0.95763552      -0.14148359
C       -0.83421647       0.77894883      -0.02555219
H        1.07973756       1.71793428      -0.31698174
H        2.34245557      -0.39257257      -0.16260032
H       -1.66400769       0.08708746       0.87494292
H       -1.36761323       1.71206152      -0.17777289
10
Frame=14 idx=005283 GeodesicLength=1.3839418580493372 rxn_smarts="[c:1]1([H:7])[c:2]([H:8])[n:3][n:4][c:5]([H:9])[c:6]1[H:10]>>[C:1](/[C:2](=[N:3]\[N+:4]#[C-:5])[H:8])(=[C:6]([H:9])[H:10])[H:7]"
C        0.53728679       0.81295062      -0.07866969
C        1.26530575      -0.40470017      -0.05759730
N        0.75210910      -1.61093694       0.00809950
N       -0.55981170      -1.74176891       0.10427880
C       -1.53672416      -0.98566521      -0.14934652
C       -0.82987028       0.79335595      -0.01395867
H        1.08490364       1.71702949      -0.31639849
H        2.34214040      -0.39239520      -0.18268721
H       -1.70269906       0.07976897       0.85374479
H       -1.35264049       1.73236140      -0.16746521
10
Frame=15 idx=005283 GeodesicLength=1.482728734439263 rxn_smarts="[c:1]1([H:7])[c:2]([H:8])[n:3][n:4][c:5]([H:9])[c:6]1[H:10]>>[C:1](/[C:2](=[N:3]\[N+:4]#[C-:5])[H:8])(=[C:6]([H:9])[H:10])[H:7]"
C        0.53736970       0.81593756      -0.07585994
C        1.26591051      -0.40731134      -0.06731515
N        0.75986779      -1.61082548       0.01945583
N       -0.55494376      -1.74014304       0.12690223
C       -1.53499604      -1.01483902      -0.15779061
C       -0.82520074       0.80835305      -0.00030203
H        1.08995573       1.71585197      -0.31815215
H        2.34157431      -0.39238461      -0.20233085
H       -1.74242085       0.07189814       0.82903313
H       -1.33711666       1.75346278      -0.15364046
10
Frame=16 idx=005283 GeodesicLength=1.5814983638464113 rxn_smarts="[c:1]1([H:7])[c:2]([H:8])[n:3][n:4][c:5]([H:9])[c:6]1[H:10]>>[C:1](/[C:2](=[N:3]\[N+:4]#[C-:5])[H:8])(=[C:6]([H:9])[H:10])[H:7]"
C        0.53741633       0.81894159      -0.07476278
C        1.26620022      -0.40998287      -0.07760111
N        0.76770534      -1.61037940       0.03246305
N       -0.55014643      -1.73800484       0.14921581
C       -1.53267936      -1.04513617      -0.16686920
C       -0.82010717       0.82398465       0.01609812
H        1.09461367       1.71420522      -0.32390743
H        2.34093630      -0.39249585      -0.21996067
H       -1.78294336       0.06342481       0.80049379
H       -1.32099554       1.77544287      -0.13516958
