18
Frame=0 idx=004838 GeodesicLength=0.0 rxn_smarts="[C:1]([C:2]1([H:10])[C:3]([H:11])([H:12])[C:4]([H:13])([H:14])[C:5]([H:15])([H:16])[C:6]1([H:17])[H:18])([H:7])([H:8])[H:9]>>[C:1](/[C:2](=[C:3](/[C:4]([H:11])([H:13])[H:14])[H:12])[H:10])([H:7])([H:8])[H:9].[C:5](=[C:6]([H:17])[H:18])([H:15])[H:16]"
C        2.20078549      -0.09935313       0.70130676
C        0.94145143       0.37158298       0.03934250
C       -0.15746713       0.81755084       0.75187131
C       -1.40157120       1.13452985       0.06253239
C       -1.57952227      -0.95431416      -0.90764701
C       -0.28455289      -1.38766219      -0.79436586
H        2.00624977      -0.43353047       1.72292519
H        2.96800000       0.68020781       0.74625715
H        2.63444244      -0.94243700       0.15704708
H        1.04220853       0.73020501      -0.98004008
H       -0.52663647       2.02800821       0.68273987
H       -0.25881529       0.53388242       1.79533421
H       -2.31007040       1.27245734       0.63319691
H       -1.35582416       1.57523984      -0.92369113
H       -2.32536525      -1.25430669      -0.18245526
H       -1.96421243      -0.61361865      -1.86124005
H        0.01030265      -2.03736110       0.02046578
H        0.36059725      -1.42108097      -1.66357982
18
Frame=1 idx=004838 GeodesicLength=0.05032359725757414 rxn_smarts="[C:1]([C:2]1([H:10])[C:3]([H:11])([H:12])[C:4]([H:13])([H:14])[C:5]([H:15])([H:16])[C:6]1([H:17])[H:18])([H:7])([H:8])[H:9]>>[C:1](/[C:2](=[C:3](/[C:4]([H:11])([H:13])[H:14])[H:12])[H:10])([H:7])([H:8])[H:9].[C:5](=[C:6]([H:17])[H:18])([H:15])[H:16]"
C        2.20650036      -0.09523712       0.69982558
C        0.94004492       0.36083378       0.03950456
C       -0.14975573       0.82407693       0.75939801
C       -1.40007925       1.13154043       0.07065671
C       -1.58337405      -0.94650636      -0.92210355
C       -0.28942673      -1.38864272      -0.79232371
H        2.01867811      -0.42899187       1.72284168
H        2.96528701       0.69263181       0.74009866
H        2.64772868      -0.93496726       0.15650482
H        1.04217635       0.72627919      -0.97789527
H       -0.53117014       2.04032644       0.68861431
H       -0.24521582       0.54004201       1.80360919
H       -2.30708896       1.25467464       0.64799252
H       -1.35915765       1.57868866      -0.91329856
H       -2.34351166      -1.25067837      -0.21345103
H       -1.95357118      -0.61733759      -1.88576398
H       -0.01323316      -2.03013984       0.03597988
H        0.35516891      -1.45659276      -1.66018981
18
Frame=2 idx=004838 GeodesicLength=0.1003785080235937 rxn_smarts="[C:1]([C:2]1([H:10])[C:3]([H:11])([H:12])[C:4]([H:13])([H:14])[C:5]([H:15])([H:16])[C:6]1([H:17])[H:18])([H:7])([H:8])[H:9]>>[C:1](/[C:2](=[C:3](/[C:4]([H:11])([H:13])[H:14])[H:12])[H:10])([H:7])([H:8])[H:9].[C:5](=[C:6]([H:17])[H:18])([H:15])[H:16]"
C        2.21207816      -0.09122692       0.69819649
C        0.93863200       0.35029489       0.03982555
C       -0.14189304       0.83085154       0.76680828
C       -1.39854263       1.12844682       0.07880417
C       -1.58688599      -0.93854403      -0.93669672
C       -0.29421709      -1.38951776      -0.79024057
H        2.03094910      -0.42489209       1.72245149
H        2.96241933       0.70474996       0.73411040
H        2.66082866      -0.92729681       0.15543245
H        1.04216771       0.72247626      -0.97559002
H       -0.53623063       2.05275507       0.69466102
H       -0.23147666       0.54640769       1.81173121
H       -2.30385370       1.23635036       0.66275713
H       -1.36264738       1.58203260      -0.90282084
H       -2.36095471      -1.24651384      -0.24470892
H       -1.94244321      -0.62144762      -1.91020883
H       -0.03704210      -2.02230235       0.05132836
H        0.34911218      -1.49262379      -1.65584066
18
Frame=3 idx=004838 GeodesicLength=0.15010110600593246 rxn_smarts="[C:1]([C:2]1([H:10])[C:3]([H:11])([H:12])[C:4]([H:13])([H:14])[C:5]([H:15])([H:16])[C:6]1([H:17])[H:18])([H:7])([H:8])[H:9]>>[C:1](/[C:2](=[C:3](/[C:4]([H:11])([H:13])[H:14])[H:12])[H:10])([H:7])([H:8])[H:9].[C:5](=[C:6]([H:17])[H:18])([H:15])[H:16]"
C        2.21746157      -0.08741031       0.69650303
C        0.93724078       0.34003380       0.04030186
C       -0.13389581       0.83792059       0.77404560
C       -1.39694211       1.12529474       0.08686875
C       -1.59007248      -0.93051668      -0.95126503
C       -0.29884267      -1.39019696      -0.78825814
H        2.04287796      -0.42144532       1.72177807
H        2.95938574       0.71643863       0.72856567
H        2.67369758      -0.91946325       0.15384904
H        1.04229907       0.71890663      -0.97310232
H       -0.54182250       2.06533991       0.70078687
H       -0.21766943       0.55303833       1.81964252
H       -2.30034795       1.21761449       0.67733569
H       -1.36623522       1.58520221      -0.89241372
H       -2.37746666      -1.24191188      -0.27577278
H       -1.93117187      -0.62617615      -1.93431670
H       -0.06081462      -2.01385238       0.06620413
H        0.34231862      -1.52881640      -1.65075254
18
Frame=4 idx=004838 GeodesicLength=0.19938654420044338 rxn_smarts="[C:1]([C:2]1([H:10])[C:3]([H:11])([H:12])[C:4]([H:13])([H:14])[C:5]([H:15])([H:16])[C:6]1([H:17])[H:18])([H:7])([H:8])[H:9]>>[C:1](/[C:2](=[C:3](/[C:4]([H:11])([H:13])[H:14])[H:12])[H:10])([H:7])([H:8])[H:9].[C:5](=[C:6]([H:17])[H:18])([H:15])[H:16]"
C        2.22257916      -0.08389447       0.69485545
C        0.93590022       0.33011058       0.04093956
C       -0.12578853       0.84533590       0.78105047
C       -1.39525427       1.12214771       0.09472300
C       -1.59296496      -0.92253052      -0.96559543
C       -0.30319651      -1.39057335      -0.78655074
H        2.05424383      -0.41887177       1.72086989
H        2.95616851       0.72754092       0.72376238
H        2.68628066      -0.91153247       0.15182103
H        1.04271779       0.71569188      -0.97039039
H       -0.54794200       2.07811181       0.70685896
H       -0.20389406       0.55999504       1.82728289
H       -2.29655866       1.19867919       0.69154170
H       -1.36984005       1.58811984      -0.88226911
H       -2.39281277      -1.23702340      -0.30605866
H       -1.92021617      -0.63180528      -1.95778789
H       -0.08413352      -2.00481691       0.08027328
H        0.33471133      -1.56468469      -1.64532640
18
Frame=5 idx=004838 GeodesicLength=0.2484046269796556 rxn_smarts="[C:1]([C:2]1([H:10])[C:3]([H:11])([H:12])[C:4]([H:13])([H:14])[C:5]([H:15])([H:16])[C:6]1([H:17])[H:18])([H:7])([H:8])[H:9]>>[C:1](/[C:2](=[C:3](/[C:4]([H:11])([H:13])[H:14])[H:12])[H:10])([H:7])([H:8])[H:9].[C:5](=[C:6]([H:17])[H:18])([H:15])[H:16]"
C        2.22752012      -0.08056775       0.69316780
C        0.93459131       0.32048254       0.04170959
C       -0.11755734       0.85303174       0.78786788
C       -1.39350117       1.11894944       0.10249424
C       -1.59554456      -0.91447225      -0.97993441
C       -0.30736044      -1.39074852      -0.78499018
H        2.06529602      -0.41685415       1.71974332
H        2.95285648       0.73820489       0.71935623
H        2.69858952      -0.90350744       0.14937821
H        1.04328992       0.71271335      -0.96752432
H       -0.55462003       2.09100077       0.71305612
H       -0.19006007       0.56719012       1.83470107
H       -2.29247188       1.17934015       0.70556029
H       -1.37354069       1.59089879      -0.87218536
H       -2.40727352      -1.23175607      -0.33610902
H       -1.90919067      -0.63807640      -1.98094046
H       -0.10735528      -1.99517243       0.09382904
H        0.32633228      -1.60065678      -1.63918005
18
Frame=6 idx=004838 GeodesicLength=0.297224952553946 rxn_smarts="[C:1]([C:2]1([H:10])[C:3]([H:11])([H:12])[C:4]([H:13])([H:14])[C:5]([H:15])([H:16])[C:6]1([H:17])[H:18])([H:7])([H:8])[H:9]>>[C:1](/[C:2](=[C:3](/[C:4]([H:11])([H:13])[H:14])[H:12])[H:10])([H:7])([H:8])[H:9].[C:5](=[C:6]([H:17])[H:18])([H:15])[H:16]"
C        2.23234988      -0.07734035       0.69135234
C        0.93328497       0.31109559       0.04259845
C       -0.10919277       0.86095584       0.79454040
C       -1.39170181       1.11563877       0.11029737
C       -1.59774749      -0.90623208      -0.99448717
C       -0.31141518      -1.39082300      -0.78343979
H        2.07625061      -0.41509054       1.71840226
H        2.94951419       0.74854162       0.71499595
H        2.71061118      -0.89541751       0.14654936
H        1.04388404       0.70985503      -0.96455243
H       -0.56191240       2.10391961       0.71953616
H       -0.17608665       0.57456655       1.84193974
H       -2.28806694       1.15938961       0.71953571
H       -1.37741706       1.59362169      -0.86197269
H       -2.42103542      -1.22598535      -0.36642215
H       -1.89768352      -0.64475715      -2.00402426
H       -0.13081708      -1.98487571       0.10713636
H        0.31718145      -1.63706262      -1.63198562
18
Frame=7 idx=004838 GeodesicLength=0.3460012402335193 rxn_smarts="[C:1]([C:2]1([H:10])[C:3]([H:11])([H:12])[C:4]([H:13])([H:14])[C:5]([H:15])([H:16])[C:6]1([H:17])[H:18])([H:7])([H:8])[H:9]>>[C:1](/[C:2](=[C:3](/[C:4]([H:11])([H:13])[H:14])[H:12])[H:10])([H:7])([H:8])[H:9].[C:5](=[C:6]([H:17])[H:18])([H:15])[H:16]"
C        2.23701291      -0.07432825       0.68949812
C        0.93202041       0.30202632       0.04358525
C       -0.10073519       0.86919197       0.80102687
C       -1.38986179       1.11231612       0.11802975
C       -1.59960882      -0.89791417      -1.00906767
C       -0.31521816      -1.39074848      -0.78206361
H        2.08687379      -0.41388257       1.71688678
H        2.94611940       0.75842835       0.71100256
H        2.72235420      -0.88733507       0.14332801
H        1.04465934       0.70726258      -0.96149394
H       -0.56985001       2.11698666       0.72618193
H       -0.16208738       0.58221435       1.84899085
H       -2.28336371       1.13905362       0.73335583
H       -1.38142283       1.59627825      -0.85181801
H       -2.43392976      -1.21987458      -0.39644297
H       -1.88611782      -0.65209752      -2.02681511
H       -0.15410412      -1.97403226       0.11994195
H        0.30725955      -1.67354531      -1.62412657
18
Frame=8 idx=004838 GeodesicLength=0.3942558055908314 rxn_smarts="[C:1]([C:2]1([H:10])[C:3]([H:11])([H:12])[C:4]([H:13])([H:14])[C:5]([H:15])([H:16])[C:6]1([H:17])[H:18])([H:7])([H:8])[H:9]>>[C:1](/[C:2](=[C:3](/[C:4]([H:11])([H:13])[H:14])[H:12])[H:10])([H:7])([H:8])[H:9].[C:5](=[C:6]([H:17])[H:18])([H:15])[H:16]"
C        2.24155428      -0.07138983       0.68754210
C        0.93075632       0.29320499       0.04469856
C       -0.09210618       0.87759644       0.80731007
C       -1.38792367       1.10879168       0.12576320
C       -1.60108571      -0.88939942      -1.02389011
C       -0.31895133      -1.39047105      -0.78070740
H        2.09740729      -0.41282396       1.71513230
H        2.94273187       0.76794898       0.70706434
H        2.73371669      -0.87916025       0.13982974
H        1.04543304       0.70475887      -0.95826357
H       -0.57836178       2.12989516       0.73311851
H       -0.14788211       0.59001005       1.85575238
H       -2.27822286       1.11799867       0.74704341
H       -1.38557696       1.59876911      -0.84150422
H       -2.44609013      -1.21325456      -0.42676067
H       -1.87412943      -0.65991560      -2.04947025
H       -0.17762506      -1.96231946       0.13239293
H        0.29635573      -1.71023981      -1.61505132
18
Frame=9 idx=004838 GeodesicLength=0.4425067626636836 rxn_smarts="[C:1]([C:2]1([H:10])[C:3]([H:11])([H:12])[C:4]([H:13])([H:14])[C:5]([H:15])([H:16])[C:6]1([H:17])[H:18])([H:7])([H:8])[H:9]>>[C:1](/[C:2](=[C:3](/[C:4]([H:11])([H:13])[H:14])[H:12])[H:10])([H:7])([H:8])[H:9].[C:5](=[C:6]([H:17])[H:18])([H:15])[H:16]"
C        2.24598727      -0.06859576       0.68550967
C        0.92952263       0.28465860       0.04589571
C       -0.08337966       0.88625465       0.81342019
C       -1.38594981       1.10519479       0.13349332
C       -1.60217382      -0.88073629      -1.03889976
C       -0.32249813      -1.39010546      -0.77946853
H        2.10777434      -0.41204078       1.71324577
H        2.93937239       0.77709946       0.70322743
H        2.74477779      -0.87104907       0.13603382
H        1.04630753       0.70242703      -0.95498662
H       -0.58756563       2.14283636       0.74035951
H       -0.13358882       0.59803971       1.86234406
H       -2.27273205       1.09638508       0.76063760
H       -1.38990749       1.60122878      -0.83112047
H       -2.45748932      -1.20620802      -0.45710633
H       -1.86184384      -0.66825500      -2.07197193
H       -0.20118271      -1.95000069       0.14443356
H        0.28456935      -1.74713341      -1.60504703
18
Frame=10 idx=004838 GeodesicLength=0.49063594082257417 rxn_smarts="[C:1]([C:2]1([H:10])[C:3]([H:11])([H:12])[C:4]([H:13])([H:14])[C:5]([H:15])([H:16])[C:6]1([H:17])[H:18])([H:7])([H:8])[H:9]>>[C:1](/[C:2](=[C:3](/[C:4]([H:11])([H:13])[H:14])[H:12])[H:10])([H:7])([H:8])[H:9].[C:5](=[C:6]([H:17])[H:18])([H:15])[H:16]"
C        2.25030350      -0.06594097       0.68341574
C        0.92832080       0.27639229       0.04717468
C       -0.07454331       0.89514873       0.81932693
C       -1.38391742       1.10149306       0.14119896
C       -1.60286924      -0.87191925      -1.05409458
C       -0.32586636      -1.38961574      -0.77835456
H        2.11795756      -0.41152327       1.71121217
H        2.93604715       0.78586658       0.69953038
H        2.75551247      -0.86298148       0.13197530
H        1.04728297       0.70025863      -0.95164096
H       -0.59745046       2.15573440       0.74790264
H       -0.11918274       0.60630533       1.86871548
H       -2.26683348       1.07416900       0.77408679
H       -1.39440296       1.60360947      -0.82066268
H       -2.46810690      -1.19873401      -0.48746274
H       -1.84930791      -0.67715036      -2.09427008
H       -0.22475448      -1.93700541       0.15601171
H        0.27181082      -1.78410699      -1.59406517
18
Frame=11 idx=004838 GeodesicLength=0.5386472957975662 rxn_smarts="[C:1]([C:2]1([H:10])[C:3]([H:11])([H:12])[C:4]([H:13])([H:14])[C:5]([H:15])([H:16])[C:6]1([H:17])[H:18])([H:7])([H:8])[H:9]>>[C:1](/[C:2](=[C:3](/[C:4]([H:11])([H:13])[H:14])[H:12])[H:10])([H:7])([H:8])[H:9].[C:5](=[C:6]([H:17])[H:18])([H:15])[H:16]"
C        2.25450599      -0.06342649       0.68126971
C        0.92715479       0.26840864       0.04852616
C       -0.06560113       0.90427335       0.82501656
C       -1.38182253       1.09768077       0.14887162
C       -1.60316326      -0.86294913      -1.06948064
C       -0.32905108      -1.38900145      -0.77737971
H        2.12795054      -0.41125770       1.70904270
H        2.93277200       0.79424808       0.69597632
H        2.76591681      -0.85497495       0.12768329
H        1.04836672       0.69825216      -0.94823591
H       -0.60803125       2.16855469       0.75576425
H       -0.10466386       0.61481072       1.87485381
H       -2.26049895       1.05133692       0.78736690
H       -1.39906396       1.60590493      -0.81013217
H       -2.47793397      -1.19083862      -0.51780644
H       -1.83654952      -0.68662127      -2.11634055
H       -0.24831478      -1.92331806       0.16709187
H        0.25802746      -1.82108258      -1.58208776
18
Frame=12 idx=004838 GeodesicLength=0.5865768833934948 rxn_smarts="[C:1]([C:2]1([H:10])[C:3]([H:11])([H:12])[C:4]([H:13])([H:14])[C:5]([H:15])([H:16])[C:6]1([H:17])[H:18])([H:7])([H:8])[H:9]>>[C:1](/[C:2](=[C:3](/[C:4]([H:11])([H:13])[H:14])[H:12])[H:10])([H:7])([H:8])[H:9].[C:5](=[C:6]([H:17])[H:18])([H:15])[H:16]"
C        2.25859568      -0.06106045       0.67908914
C        0.92603248       0.26071251       0.04993871
C       -0.05656258       0.91363050       0.83047541
C       -1.37966316       1.09376468       0.15649699
C       -1.60305402      -0.85383682      -1.08504927
C       -0.33203581      -1.38826730      -0.77657407
H        2.13772962      -0.41125167       1.70675788
H        2.92955989       0.80224091       0.69259116
H        2.77599622      -0.84705344       0.12318815
H        1.04958275       0.69641662      -0.94478572
H       -0.61932311       2.18127961       0.76395136
H       -0.09004598       0.62356771       1.88075222
H       -2.25370583       1.02790244       0.80045052
H       -1.40388525       1.60811448      -0.79954549
H       -2.48695823      -1.18254368      -0.54806784
H       -1.82363433      -0.69670430      -2.13814507
H       -0.27180642      -1.90895064       0.17762223
H        0.24317809      -1.85796115      -1.56914632
18
Frame=13 idx=004838 GeodesicLength=0.6346741900007229 rxn_smarts="[C:1]([C:2]1([H:10])[C:3]([H:11])([H:12])[C:4]([H:13])([H:14])[C:5]([H:15])([H:16])[C:6]1([H:17])[H:18])([H:7])([H:8])[H:9]>>[C:1](/[C:2](=[C:3](/[C:4]([H:11])([H:13])[H:14])[H:12])[H:10])([H:7])([H:8])[H:9].[C:5](=[C:6]([H:17])[H:18])([H:15])[H:16]"
C        2.26258289      -0.05885511       0.67686398
C        0.92495841       0.25331113       0.05138434
C       -0.04744947       0.92326195       0.83572470
C       -1.37745868       1.08979076       0.16410211
C       -1.60251255      -0.84459818      -1.10084134
C       -0.33480028      -1.38749144      -0.77595312
H        2.14728789      -0.41153706       1.70439415
H        2.92642052       0.80987725       0.68935358
H        2.78578155      -0.83927173       0.11845747
H        1.05094006       0.69477233      -0.94137082
H       -0.63138237       2.19397424       0.77252521
H       -0.07534912       0.63261403       1.88648115
H       -2.24645238       1.00388212       0.81339334
H       -1.40889577       1.61031980      -0.78890240
H       -2.49518843      -1.17387058      -0.57825059
H       -1.81052360      -0.70741034      -2.15974401
H       -0.29522341      -1.89397048       0.18763599
H        0.22726475      -1.89479867      -1.55525375
18
Frame=14 idx=004838 GeodesicLength=0.682109164157884 rxn_smarts="[C:1]([C:2]1([H:10])[C:3]([H:11])([H:12])[C:4]([H:13])([H:14])[C:5]([H:15])([H:16])[C:6]1([H:17])[H:18])([H:7])([H:8])[H:9]>>[C:1](/[C:2](=[C:3](/[C:4]([H:11])([H:13])[H:14])[H:12])[H:10])([H:7])([H:8])[H:9].[C:5](=[C:6]([H:17])[H:18])([H:15])[H:16]"
C        2.26643469      -0.05677333       0.67469393
C        0.92393168       0.24616930       0.05291661
C       -0.03819444       0.93299678       0.84061543
C       -1.37511309       1.08556124       0.17154133
C       -1.60162285      -0.83519422      -1.11672269
C       -0.33739948      -1.38641182      -0.77551937
H        2.15660786      -0.41193717       1.70189719
H        2.92336278       0.81703625       0.68638325
H        2.79515664      -0.83150851       0.11377371
H        1.05243804       0.69321116      -0.93774919
H       -0.64405238       2.20623970       0.78130279
H       -0.06046917       0.64188816       1.89173391
H       -2.23857646       0.97913762       0.82588035
H       -1.41400425       1.61217643      -0.77822520
H       -2.50257747      -1.16479830      -0.60822212
H       -1.79754171      -0.71877027      -2.18078750
H       -0.31843862      -1.87811895       0.19686045
H        0.21005823      -1.93090408      -1.54037290
18
Frame=15 idx=004838 GeodesicLength=0.7298432157677234 rxn_smarts="[C:1]([C:2]1([H:10])[C:3]([H:11])([H:12])[C:4]([H:13])([H:14])[C:5]([H:15])([H:16])[C:6]1([H:17])[H:18])([H:7])([H:8])[H:9]>>[C:1](/[C:2](=[C:3](/[C:4]([H:11])([H:13])[H:14])[H:12])[H:10])([H:7])([H:8])[H:9].[C:5](=[C:6]([H:17])[H:18])([H:15])[H:16]"
C        2.27022189      -0.05482293       0.67246923
C        0.92295778       0.23928903       0.05446106
C       -0.02888137       0.94298464       0.84529553
C       -1.37273018       1.08126336       0.17898123
C       -1.60027156      -0.82565127      -1.13289408
C       -0.33979906      -1.38536898      -0.77524820
H        2.16575947      -0.41254897       1.69935289
H        2.92040414       0.82391084       0.68347857
H        2.80429106      -0.82390887       0.10888353
H        1.05406295       0.69178744      -0.93421918
H       -0.65753464       2.21840737       0.79055083
H       -0.04551113       0.65144019       1.89683541
H       -2.23019741       0.95377854       0.83822496
H       -1.41931778       1.61405324      -0.76745622
H       -2.50923210      -1.15531441      -0.63820261
H       -1.78429654      -0.73069970      -2.20165891
H       -0.34163566      -1.86167374       0.20560452
H        0.19171014      -1.96692579      -1.52445856
18
Frame=16 idx=004838 GeodesicLength=0.7776642874351548 rxn_smarts="[C:1]([C:2]1([H:10])[C:3]([H:11])([H:12])[C:4]([H:13])([H:14])[C:5]([H:15])([H:16])[C:6]1([H:17])[H:18])([H:7])([H:8])[H:9]>>[C:1](/[C:2](=[C:3](/[C:4]([H:11])([H:13])[H:14])[H:12])[H:10])([H:7])([H:8])[H:9].[C:5](=[C:6]([H:17])[H:18])([H:15])[H:16]"
C        2.27399297      -0.05289976       0.67009613
C        0.92200786       0.23258679       0.05603597
C       -0.01945006       0.95313345       0.84973084
C       -1.37029081       1.07670763       0.18649582
C       -1.59835987      -0.81582091      -1.14953905
C       -0.34215218      -1.38438224      -0.77491189
H        2.17494688      -0.41307748       1.69665994
H        2.91756970       0.83057350       0.68034986
H        2.81315982      -0.81638573       0.10381070
H        1.05565624       0.69030362      -0.93074075
H       -0.67186131       2.23019753       0.80038647
H       -0.03029832       0.66125707       1.90169557
H       -2.22117930       0.92737749       0.85044638
H       -1.42492704       1.61583868      -0.75637433
H       -2.51527440      -1.14515712      -0.66879684
H       -1.77031708      -0.74292830      -2.22249767
H       -0.36523826      -1.84434790       0.21410013
H        0.17201514      -2.00297635      -1.50694731
