15
Frame=0 idx=007152 GeodesicLength=0.0 rxn_smarts="[O:1]([C:2]1([C:3]([C:4](=[O:5])[H:11])([H:9])[H:10])[C:6]([H:12])([H:13])[C:7]1([H:14])[H:15])[H:8]>>[O:1]([C:2]1([C:3]([O+:5]=[C-:4][H:11])([H:9])[H:10])[C:6]([H:12])([H:13])[C:7]1([H:14])[H:15])[H:8]"
O       -0.15414073      -0.76913128      -1.71761682
C       -0.30397725      -0.30258976      -0.42068776
C        0.81823448      -0.63548224       0.51615109
C        2.36288808       0.28818058       0.82870723
O        2.04817197       0.21491417      -0.41830391
C       -1.69034167      -0.39478280       0.12891467
C       -1.09531658       0.94925213      -0.19451126
H        0.62937350      -0.34833947      -2.08456642
H        0.54896013      -0.28042017       1.51933852
H        1.15200786      -1.66334880       0.49542292
H        2.20899922       1.34731235       1.19481686
H       -1.82616139      -0.66626742       1.16805658
H       -2.43165148      -0.79187528      -0.55061244
H       -1.45004690       1.44728560      -1.08594708
H       -0.81699928       1.60529240       0.62083777
15
Frame=1 idx=007152 GeodesicLength=0.08406195909324253 rxn_smarts="[O:1]([C:2]1([C:3]([C:4](=[O:5])[H:11])([H:9])[H:10])[C:6]([H:12])([H:13])[C:7]1([H:14])[H:15])[H:8]>>[O:1]([C:2]1([C:3]([O+:5]=[C-:4][H:11])([H:9])[H:10])[C:6]([H:12])([H:13])[C:7]1([H:14])[H:15])[H:8]"
O       -0.15327974      -0.77794638      -1.71365856
C       -0.31072922      -0.29989314      -0.42159363
C        0.81766727      -0.60895524       0.51514004
C        2.39795990       0.25370805       0.80201188
O        2.01687342       0.30049840      -0.42194610
C       -1.69690929      -0.40195032       0.12598088
C       -1.11565695       0.94552665      -0.20794188
H        0.63163377      -0.35754258      -2.07911391
H        0.54327124      -0.25974724       1.51857019
H        1.13565170      -1.64337699       0.51120851
H        2.31642227       1.28437197       1.25787084
H       -1.83155054      -0.66627253       1.16712294
H       -2.43319770      -0.81193983      -0.55136143
H       -1.47243164       1.43235439      -1.10475384
H       -0.84572447       1.61116478       0.60246406
15
Frame=2 idx=007152 GeodesicLength=0.1666093039266774 rxn_smarts="[O:1]([C:2]1([C:3]([C:4](=[O:5])[H:11])([H:9])[H:10])[C:6]([H:12])([H:13])[C:7]1([H:14])[H:15])[H:8]>>[O:1]([C:2]1([C:3]([O+:5]=[C-:4][H:11])([H:9])[H:10])[C:6]([H:12])([H:13])[C:7]1([H:14])[H:15])[H:8]"
O       -0.14852859      -0.78354491      -1.70889046
C       -0.31731162      -0.29604825      -0.42154057
C        0.81590733      -0.58070466       0.51649179
C        2.43199281       0.21810540       0.76613752
O        1.98272148       0.39106258      -0.41731031
C       -1.70367792      -0.41058987       0.12227615
C       -1.13831629       0.94118618      -0.22130868
H        0.63859269      -0.36239948      -2.06987075
H        0.53789042      -0.23256049       1.51887938
H        1.11608618      -1.62173682       0.53256619
H        2.43113205       1.20679613       1.31062155
H       -1.83807294      -0.66764381       1.16528844
H       -2.43292916      -0.83490429      -0.55388105
H       -1.49676105       1.41625184      -1.12376302
H       -0.87872540       1.61673047       0.58430382
15
Frame=3 idx=007152 GeodesicLength=0.24826227200923107 rxn_smarts="[O:1]([C:2]1([C:3]([C:4](=[O:5])[H:11])([H:9])[H:10])[C:6]([H:12])([H:13])[C:7]1([H:14])[H:15])[H:8]>>[O:1]([C:2]1([C:3]([O+:5]=[C-:4][H:11])([H:9])[H:10])[C:6]([H:12])([H:13])[C:7]1([H:14])[H:15])[H:8]"
O       -0.13870828      -0.78517199      -1.70274374
C       -0.32347133      -0.29094270      -0.41985729
C        0.81226973      -0.55063656       0.52204127
C        2.46374667       0.18137044       0.72040846
O        1.94616234       0.48426318      -0.40231070
C       -1.71088630      -0.42128680       0.11682388
C       -1.16337795       0.93595913      -0.23399103
H        0.65061153      -0.36060815      -2.05612973
H        0.53217214      -0.19733201       1.52160274
H        1.09235174      -1.59807964       0.56222988
H        2.55589292       1.11507120       1.34564413
H       -1.84690602      -0.67232032       1.16113211
H       -2.43019378      -0.86078002      -0.56036647
H       -1.52213212       1.39941315      -1.14237850
H       -0.91753127       1.62108110       0.56789499
15
Frame=4 idx=007152 GeodesicLength=0.32605296761521624 rxn_smarts="[O:1]([C:2]1([C:3]([C:4](=[O:5])[H:11])([H:9])[H:10])[C:6]([H:12])([H:13])[C:7]1([H:14])[H:15])[H:8]>>[O:1]([C:2]1([C:3]([O+:5]=[C-:4][H:11])([H:9])[H:10])[C:6]([H:12])([H:13])[C:7]1([H:14])[H:15])[H:8]"
O       -0.12453047      -0.78331193      -1.69548942
C       -0.32859821      -0.28483190      -0.41692813
C        0.80755420      -0.52034600       0.53053796
C        2.48987350       0.14701002       0.66600369
O        1.91038092       0.57701350      -0.37711667
C       -1.71732468      -0.43271871       0.11087723
C       -1.18870083       0.93036036      -0.24606554
H        0.66742652      -0.35387353      -2.03828131
H        0.52578896      -0.15886862       1.52623022
H        1.06732291      -1.57311922       0.59718561
H        2.67736750       1.01152022       1.36300332
H       -1.85633083      -0.67766474       1.15627813
H       -2.42486573      -0.88805466      -0.56825267
H       -1.54713991       1.38216422      -1.16043804
H       -0.95822386       1.62472099       0.55245561
15
Frame=5 idx=007152 GeodesicLength=0.40245175866154226 rxn_smarts="[O:1]([C:2]1([C:3]([C:4](=[O:5])[H:11])([H:9])[H:10])[C:6]([H:12])([H:13])[C:7]1([H:14])[H:15])[H:8]>>[O:1]([C:2]1([C:3]([O+:5]=[C-:4][H:11])([H:9])[H:10])[C:6]([H:12])([H:13])[C:7]1([H:14])[H:15])[H:8]"
O       -0.10545290      -0.77838767      -1.68607061
C       -0.33259686      -0.27855433      -0.41165006
C        0.80106399      -0.49050563       0.54425623
C        2.50921338       0.11536491       0.60419866
O        1.87466002       0.66661601      -0.34029776
C       -1.72367597      -0.44509189       0.10315740
C       -1.21349736       0.92410734      -0.25685182
H        0.68820090      -0.34089969      -2.01595608
H        0.51750573      -0.11821306       1.53488849
H        1.04141121      -1.54714877       0.63880870
H        2.79841107       0.90148329       1.35510857
H       -1.86836987      -0.68554734       1.14882733
H       -2.41700556      -0.91528487      -0.58049134
H       -1.56904277       1.36545603      -1.17741644
H       -1.00082502       1.62660568       0.53948873
15
Frame=6 idx=007152 GeodesicLength=0.47625083924580924 rxn_smarts="[O:1]([C:2]1([C:3]([C:4](=[O:5])[H:11])([H:9])[H:10])[C:6]([H:12])([H:13])[C:7]1([H:14])[H:15])[H:8]>>[O:1]([C:2]1([C:3]([O+:5]=[C-:4][H:11])([H:9])[H:10])[C:6]([H:12])([H:13])[C:7]1([H:14])[H:15])[H:8]"
O       -0.08329504      -0.77133555      -1.67530001
C       -0.33502066      -0.27191428      -0.40504818
C        0.79385734      -0.46175747       0.56108605
C        2.52045148       0.08887176       0.53849237
O        1.84364735       0.74921365      -0.29531369
C       -1.72870633      -0.45720311       0.09514590
C       -1.23618321       0.91792769      -0.26677302
H        0.71130024      -0.32403677      -1.99102972
H        0.50716538      -0.07905864       1.54630766
H        1.01713102      -1.52067991       0.68288316
H        2.90757755       0.78845155       1.32798371
H       -1.88066305      -0.69358576       1.14074921
H       -2.40672842      -0.94187863      -0.59372317
H       -1.58809655       1.34930533      -1.19343709
H       -1.04243710       1.62768013       0.52797682
15
Frame=7 idx=007152 GeodesicLength=0.5491243350018149 rxn_smarts="[O:1]([C:2]1([C:3]([C:4](=[O:5])[H:11])([H:9])[H:10])[C:6]([H:12])([H:13])[C:7]1([H:14])[H:15])[H:8]>>[O:1]([C:2]1([C:3]([O+:5]=[C-:4][H:11])([H:9])[H:10])[C:6]([H:12])([H:13])[C:7]1([H:14])[H:15])[H:8]"
O       -0.05893033      -0.76375128      -1.66254891
C       -0.33608160      -0.26626243      -0.39649584
C        0.78577503      -0.43571715       0.58172816
C        2.52327431       0.06831881       0.47250295
O        1.81607121       0.82282586      -0.24280404
C       -1.73317878      -0.46860774       0.08619820
C       -1.25546873       0.91181099      -0.27535292
H        0.73520097      -0.30468742      -1.96392651
H        0.49369003      -0.04502523       1.56167544
H        0.99585808      -1.49544812       0.72793862
H        3.00587362       0.68158385       1.27914369
H       -1.89463988      -0.70226705       1.13100004
H       -2.39528063      -0.96529557      -0.60957180
H       -1.60110303       1.33506919      -1.20808955
H       -1.08106027       1.62745329       0.51860247
15
Frame=8 idx=007152 GeodesicLength=0.6214966843148308 rxn_smarts="[O:1]([C:2]1([C:3]([C:4](=[O:5])[H:11])([H:9])[H:10])[C:6]([H:12])([H:13])[C:7]1([H:14])[H:15])[H:8]>>[O:1]([C:2]1([C:3]([O+:5]=[C-:4][H:11])([H:9])[H:10])[C:6]([H:12])([H:13])[C:7]1([H:14])[H:15])[H:8]"
O       -0.03373071      -0.75580952      -1.64884349
C       -0.33568214      -0.26071222      -0.38718242
C        0.77761908      -0.41121530       0.60403711
C        2.51907032       0.05338497       0.40799077
O        1.79483691       0.88730187      -0.18653065
C       -1.73617124      -0.47901033       0.07743639
C       -1.27168728       0.90616168      -0.28326841
H        0.75881187      -0.28417587      -1.93639684
H        0.47790748      -0.01499728       1.57897124
H        0.97780193      -1.47077362       0.77177391
H        3.08919568       0.57864584       1.21772444
H       -1.90800476      -0.71043319       1.12109497
H       -2.38226615      -0.98701052      -0.62516188
H       -1.61083351       1.32175725      -1.22179597
H       -1.11686747       1.62688624       0.51015083
15
Frame=9 idx=007152 GeodesicLength=0.6941400481839907 rxn_smarts="[O:1]([C:2]1([C:3]([C:4](=[O:5])[H:11])([H:9])[H:10])[C:6]([H:12])([H:13])[C:7]1([H:14])[H:15])[H:8]>>[O:1]([C:2]1([C:3]([O+:5]=[C-:4][H:11])([H:9])[H:10])[C:6]([H:12])([H:13])[C:7]1([H:14])[H:15])[H:8]"
O       -0.00845335      -0.74879701      -1.63404270
C       -0.33420672      -0.25624957      -0.37691358
C        0.76944986      -0.38948085       0.62790197
C        2.50876922       0.04419369       0.34703440
O        1.77808259       0.94293061      -0.12702270
C       -1.73837681      -0.48815662       0.06866718
C       -1.28433836       0.90095066      -0.29047065
H        0.78122549      -0.26382305      -1.90887280
H        0.45968660       0.00886422       1.59840610
H        0.96341430      -1.44824611       0.81334491
H        3.15936609       0.48518699       1.14441766
H       -1.92167033      -0.71780031       1.11078922
H       -2.36896613      -1.00559775      -0.64110031
H       -1.61562555       1.31006218      -1.23464199
H       -1.14835690       1.62596292       0.50250329
15
Frame=10 idx=007152 GeodesicLength=0.7663682759179706 rxn_smarts="[O:1]([C:2]1([C:3]([C:4](=[O:5])[H:11])([H:9])[H:10])[C:6]([H:12])([H:13])[C:7]1([H:14])[H:15])[H:8]>>[O:1]([C:2]1([C:3]([O+:5]=[C-:4][H:11])([H:9])[H:10])[C:6]([H:12])([H:13])[C:7]1([H:14])[H:15])[H:8]"
O        0.01607876      -0.74328927      -1.61855462
C       -0.33194952      -0.25307499      -0.36607379
C        0.76139633      -0.37088701       0.65246181
C        2.49373851       0.04002808       0.29168669
O        1.76559298       0.98945105      -0.06643333
C       -1.74003495      -0.49584595       0.05998596
C       -1.29340350       0.89633118      -0.29692272
H        0.80199894      -0.24497975      -1.88202858
H        0.43945622       0.02623003       1.61916430
H        0.95227974      -1.42861297       0.85173094
H        3.21722814       0.40440526       1.06257737
H       -1.93536834      -0.72424100       1.10020451
H       -2.35614428      -1.02057981      -0.65710957
H       -1.61578241       1.30025871      -1.24639867
H       -1.17508663       1.62480643       0.49570970
15
Frame=11 idx=007152 GeodesicLength=0.8392628817772361 rxn_smarts="[O:1]([C:2]1([C:3]([C:4](=[O:5])[H:11])([H:9])[H:10])[C:6]([H:12])([H:13])[C:7]1([H:14])[H:15])[H:8]>>[O:1]([C:2]1([C:3]([O+:5]=[C-:4][H:11])([H:9])[H:10])[C:6]([H:12])([H:13])[C:7]1([H:14])[H:15])[H:8]"
O        0.03978019      -0.73837171      -1.60303279
C       -0.32883256      -0.25000175      -0.35530410
C        0.75376307      -0.35325710       0.67680061
C        2.47546715       0.03971069       0.24030796
O        1.75862266       1.02910266      -0.00609591
C       -1.74053722      -0.50260399       0.05179351
C       -1.30021413       0.89224649      -0.30299923
H        0.82125134      -0.22703504      -1.85652430
H        0.41837395       0.04091980       1.63988146
H        0.94350403      -1.40978571       0.88769533
H        3.26279811       0.32879822       0.97768457
H       -1.94772071      -0.73022636       1.08989195
H       -2.34263210      -1.03434727      -0.67199809
H       -1.61422465       1.29113874      -1.25739156
H       -1.19939913       1.62371234       0.48929060
15
Frame=12 idx=007152 GeodesicLength=0.9132427286197652 rxn_smarts="[O:1]([C:2]1([C:3]([C:4](=[O:5])[H:11])([H:9])[H:10])[C:6]([H:12])([H:13])[C:7]1([H:14])[H:15])[H:8]>>[O:1]([C:2]1([C:3]([O+:5]=[C-:4][H:11])([H:9])[H:10])[C:6]([H:12])([H:13])[C:7]1([H:14])[H:15])[H:8]"
O        0.06263093      -0.73522222      -1.58705644
C       -0.32525216      -0.24810006      -0.34423951
C        0.74639984      -0.33819573       0.70117808
C        2.45430464       0.04370267       0.19324614
O        1.75438134       1.06283339       0.05585943
C       -1.74065839      -0.50817222       0.04394027
C       -1.30435376       0.88856775      -0.30891852
H        0.83876814      -0.21073843      -1.83196145
H        0.39621385       0.05042838       1.66107514
H        0.93736875      -1.39350413       0.92080407
H        3.29871556       0.26279037       0.88813914
H       -1.96004421      -0.73463683       1.07978465
H       -2.32975012      -1.04563556      -0.68629135
H       -1.60920605       1.28298176      -1.26813654
H       -1.21951837       1.62290085       0.48257690
15
Frame=13 idx=007152 GeodesicLength=0.9875807763626685 rxn_smarts="[O:1]([C:2]1([C:3]([C:4](=[O:5])[H:11])([H:9])[H:10])[C:6]([H:12])([H:13])[C:7]1([H:14])[H:15])[H:8]>>[O:1]([C:2]1([C:3]([O+:5]=[C-:4][H:11])([H:9])[H:10])[C:6]([H:12])([H:13])[C:7]1([H:14])[H:15])[H:8]"
O        0.08438859      -0.73342961      -1.57111171
C       -0.32126390      -0.24689628      -0.33328350
C        0.73942763      -0.32490467       0.72501511
C        2.43133786       0.05099532       0.15049002
O        1.75363926       1.09078779       0.11744913
C       -1.74027706      -0.51274988       0.03649960
C       -1.30636246       0.88535322      -0.31457832
H        0.85469870      -0.19621115      -1.80880371
H        0.37374487       0.05650241       1.68193539
H        0.93318468      -1.37902920       0.95136303
H        3.32506285       0.20481073       0.79718352
H       -1.97171178      -0.73808633       1.06996874
H       -2.31729023      -1.05511966      -0.69971930
H       -1.60207660       1.27567090      -1.27833685
H       -1.23650241       1.62230643       0.47592886
15
Frame=14 idx=007152 GeodesicLength=1.0618869759725307 rxn_smarts="[O:1]([C:2]1([C:3]([C:4](=[O:5])[H:11])([H:9])[H:10])[C:6]([H:12])([H:13])[C:7]1([H:14])[H:15])[H:8]>>[O:1]([C:2]1([C:3]([O+:5]=[C-:4][H:11])([H:9])[H:10])[C:6]([H:12])([H:13])[C:7]1([H:14])[H:15])[H:8]"
O        0.10502726      -0.73340943      -1.55505488
C       -0.31713105      -0.24677620      -0.32232392
C        0.73259717      -0.31400643       0.74846675
C        2.40689707       0.06110283       0.11256902
O        1.75516560       1.11314158       0.17883876
C       -1.73983453      -0.51621572       0.02929974
C       -1.30618684       0.88259895      -0.31998770
H        0.86939796      -0.18422058      -1.78663520
H        0.35087222       0.05848104       1.70261292
H        0.93049872      -1.36704762       0.97951689
H        3.34412364       0.15743043       0.70387529
H       -1.98340167      -0.74024664       1.06026033
H       -2.30586973      -1.06224452      -0.71270471
H       -1.59227541       1.26943967      -1.28805627
H       -1.24988042       1.62197264       0.46932299
15
Frame=15 idx=007152 GeodesicLength=1.137104068445432 rxn_smarts="[O:1]([C:2]1([C:3]([C:4](=[O:5])[H:11])([H:9])[H:10])[C:6]([H:12])([H:13])[C:7]1([H:14])[H:15])[H:8]>>[O:1]([C:2]1([C:3]([O+:5]=[C-:4][H:11])([H:9])[H:10])[C:6]([H:12])([H:13])[C:7]1([H:14])[H:15])[H:8]"
O        0.12487502      -0.73390935      -1.53927288
C       -0.31257834      -0.24659095      -0.31168957
C        0.72614172      -0.30328030       0.77123585
C        2.38154888       0.07338863       0.07762254
O        1.76081819       1.13114525       0.23919690
C       -1.73867406      -0.51928425       0.02237410
C       -1.30492962       0.88014117      -0.32514117
H        0.88282862      -0.17305481      -1.76604527
H        0.32837720       0.06003932       1.72239384
H        0.92876260      -1.35517739       1.00647888
H        3.35492932       0.11297226       0.61130694
H       -1.99385345      -0.74252776       1.05069050
H       -2.29402199      -1.06898994      -0.72496292
H       -1.58197844       1.26351659      -1.29722186
H       -1.26224564       1.62161153       0.46303413
15
Frame=16 idx=007152 GeodesicLength=1.2131521899184656 rxn_smarts="[O:1]([C:2]1([C:3]([C:4](=[O:5])[H:11])([H:9])[H:10])[C:6]([H:12])([H:13])[C:7]1([H:14])[H:15])[H:8]>>[O:1]([C:2]1([C:3]([O+:5]=[C-:4][H:11])([H:9])[H:10])[C:6]([H:12])([H:13])[C:7]1([H:14])[H:15])[H:8]"
O        0.14388897      -0.73633972      -1.52322603
C       -0.30797907      -0.24747830      -0.30101981
C        0.71982416      -0.29471539       0.79363075
C        2.35502624       0.08871335       0.04606436
O        1.76805158       1.14480302       0.30078668
C       -1.73755377      -0.52133356       0.01577875
C       -1.30183137       0.87799962      -0.33041505
H        0.89512616      -0.16420690      -1.74629321
H        0.30572535       0.05783363       1.74194653
H        0.92851501      -1.34550623       1.03137058
H        3.35933955       0.07735188       0.51687411
H       -2.00450936      -0.74300266       1.04143370
H       -2.28317645      -1.07397848      -0.73652647
H       -1.56927129       1.25806006      -1.30649655
H       -1.27117571       1.62179968       0.45609167
