14
Frame=0 idx=011476 GeodesicLength=0.0 rxn_smarts="[C:1]([C@@:2]([C:3]#[N:4])([C:5](=[O:6])[C:7]([H:12])([H:13])[H:14])[H:11])([H:8])([H:9])[H:10]>>[C:1](/[C:2](=[C:5](\[O:6][N+:4]#[C-:3])[C:7]([H:12])([H:13])[H:14])[H:11])([H:8])([H:9])[H:10]"
C       -1.74291947      -0.60894945      -0.01397698
C       -0.53080275       0.17179990      -0.52851976
C       -1.20233287       1.68729941       0.70851598
N       -0.38926944       1.47961815       1.62318034
C        0.67524306       0.19151406       0.11620438
O        0.75103113       0.71506567       1.34454518
C        2.00210389      -0.23343015      -0.39572596
H       -1.70027934      -0.78631760       1.05824505
H       -2.67137467      -0.08468997      -0.23374895
H       -1.75009532      -1.57535635      -0.52429948
H       -0.44767570       0.13052547      -1.61088601
H        2.77024393       0.51187633      -0.19123799
H        1.94755015      -0.43895975      -1.46225969
H        2.28857740      -1.15999573       0.10996392
14
Frame=1 idx=011476 GeodesicLength=0.12403524881976802 rxn_smarts="[C:1]([C@@:2]([C:3]#[N:4])([C:5](=[O:6])[C:7]([H:12])([H:13])[H:14])[H:11])([H:8])([H:9])[H:10]>>[C:1](/[C:2](=[C:5](\[O:6][N+:4]#[C-:3])[C:7]([H:12])([H:13])[H:14])[H:11])([H:8])([H:9])[H:10]"
C       -1.76167473      -0.61527779       0.00336886
C       -0.53258045       0.12930324      -0.52109520
C       -1.16422152       1.72819999       0.65446419
N       -0.37135939       1.53525579       1.58332852
C        0.67211467       0.13794354       0.13501578
O        0.73021693       0.64333567       1.37039459
C        2.01283144      -0.21122874      -0.39888871
H       -1.74444873      -0.74778523       1.08314489
H       -2.67925961      -0.08861870      -0.25532028
H       -1.77223972      -1.60323126      -0.46364753
H       -0.44754597       0.06367795      -1.60259942
H        2.78160208       0.49769769      -0.09267468
H        1.98752013      -0.27358506      -1.48496003
H        2.28904489      -1.19568710      -0.01053098
14
Frame=2 idx=011476 GeodesicLength=0.24555956467227297 rxn_smarts="[C:1]([C@@:2]([C:3]#[N:4])([C:5](=[O:6])[C:7]([H:12])([H:13])[H:14])[H:11])([H:8])([H:9])[H:10]>>[C:1](/[C:2](=[C:5](\[O:6][N+:4]#[C-:3])[C:7]([H:12])([H:13])[H:14])[H:11])([H:8])([H:9])[H:10]"
C       -1.77810260      -0.62182879       0.01897291
C       -0.53440341       0.08873553      -0.51367107
C       -1.12117693       1.76476357       0.60100097
N       -0.34704244       1.58523795       1.54084381
C        0.66857349       0.08468196       0.15282679
O        0.70878064       0.57814902       1.39144542
C        2.01891173      -0.18952480      -0.39980310
H       -1.78412458      -0.71031947       1.10306493
H       -2.68440686      -0.09551628      -0.27706693
H       -1.79248568      -1.62882330      -0.40466510
H       -0.44669518      -0.00107460      -1.59295803
H        2.78818623       0.47097930      -0.00097390
H        2.01581402      -0.10979739      -1.48484977
H        2.28817156      -1.21566271      -0.13416693
14
Frame=3 idx=011476 GeodesicLength=0.36778683403285595 rxn_smarts="[C:1]([C@@:2]([C:3]#[N:4])([C:5](=[O:6])[C:7]([H:12])([H:13])[H:14])[H:11])([H:8])([H:9])[H:10]>>[C:1](/[C:2](=[C:5](\[O:6][N+:4]#[C-:3])[C:7]([H:12])([H:13])[H:14])[H:11])([H:8])([H:9])[H:10]"
C       -1.79289089      -0.62877908       0.03296175
C       -0.53669889       0.05108476      -0.50692996
C       -1.07667011       1.79809705       0.54872809
N       -0.31985703       1.63109157       1.49834695
C        0.66543538       0.03422275       0.16951829
O        0.68797892       0.52062134       1.40974317
C        2.02243780      -0.16927584      -0.39869371
H       -1.81944947      -0.67471214       1.11949308
H       -2.68939301      -0.10608626      -0.29798912
H       -1.81030751      -1.65227230      -0.34845833
H       -0.44570680      -0.06231162      -1.58393775
H        2.79356467       0.43252414       0.08126426
H        2.03613705       0.04720820      -1.46521230
H        2.28541987      -1.22141258      -0.25883443
14
Frame=4 idx=011476 GeodesicLength=0.4901750951381548 rxn_smarts="[C:1]([C@@:2]([C:3]#[N:4])([C:5](=[O:6])[C:7]([H:12])([H:13])[H:14])[H:11])([H:8])([H:9])[H:10]>>[C:1](/[C:2](=[C:5](\[O:6][N+:4]#[C-:3])[C:7]([H:12])([H:13])[H:14])[H:11])([H:8])([H:9])[H:10]"
C       -1.80512220      -0.63633693       0.04552961
C       -0.53919482       0.01680479      -0.50056346
C       -1.03091745       1.82896541       0.49769117
N       -0.29082871       1.67389693       1.45577774
C        0.66242873      -0.01246330       0.18482605
O        0.66778067       0.46976617       1.42515359
C        2.02285251      -0.15067989      -0.39625506
H       -1.85019518      -0.64073182       1.13235002
H       -2.69299339      -0.12088240      -0.31853700
H       -1.82394180      -1.67423254      -0.29428950
H       -0.44470467      -0.11888801      -1.57474139
H        2.79724400       0.38292066       0.15393643
H        2.04903587       0.19545223      -1.42787964
H        2.27855645      -1.21359129      -0.38299859
14
Frame=5 idx=011476 GeodesicLength=0.6126283961429764 rxn_smarts="[C:1]([C@@:2]([C:3]#[N:4])([C:5](=[O:6])[C:7]([H:12])([H:13])[H:14])[H:11])([H:8])([H:9])[H:10]>>[C:1](/[C:2](=[C:5](\[O:6][N+:4]#[C-:3])[C:7]([H:12])([H:13])[H:14])[H:11])([H:8])([H:9])[H:10]"
C       -1.81522144      -0.64454761       0.05682490
C       -0.54206260      -0.01340998      -0.49485880
C       -0.98529028       1.85790145       0.44828845
N       -0.26148338       1.71417456       1.41413191
C        0.65964427      -0.05445720       0.19859907
O        0.64848519       0.42476517       1.43847519
C        2.02125378      -0.13404661      -0.39281114
H       -1.87689592      -0.60927195       1.14234540
H       -2.69620687      -0.13984915      -0.33804904
H       -1.83337787      -1.69466700      -0.24248020
H       -0.44394618      -0.16925161      -1.56618168
H        2.80000626       0.32491802       0.21542244
H        2.05772437       0.33105890      -1.37657721
H        2.26737068      -1.19331699      -0.50312929
14
Frame=6 idx=011476 GeodesicLength=0.7355524351667541 rxn_smarts="[C:1]([C@@:2]([C:3]#[N:4])([C:5](=[O:6])[C:7]([H:12])([H:13])[H:14])[H:11])([H:8])([H:9])[H:10]>>[C:1](/[C:2](=[C:5](\[O:6][N+:4]#[C-:3])[C:7]([H:12])([H:13])[H:14])[H:11])([H:8])([H:9])[H:10]"
C       -1.82340161      -0.65334467       0.06704018
C       -0.54535035      -0.03984566      -0.48968701
C       -0.93979229       1.88553677       0.40058579
N       -0.23220370       1.75270232       1.37360682
C        0.65689242      -0.09217545       0.21090518
O        0.62994858       0.38424930       1.45004222
C        2.01799511      -0.11914958      -0.38883816
H       -1.90038084      -0.57973369       1.14971989
H       -2.69899135      -0.16280762      -0.35686611
H       -1.83863604      -1.71386836      -0.19249771
H       -0.44367596      -0.21387482      -1.55807672
H        2.80152074       0.26041237       0.26606889
H        2.06368657       0.45356324      -1.31390788
H        2.25238870      -1.16166414      -0.61809538
14
Frame=7 idx=011476 GeodesicLength=0.8587625290849799 rxn_smarts="[C:1]([C@@:2]([C:3]#[N:4])([C:5](=[O:6])[C:7]([H:12])([H:13])[H:14])[H:11])([H:8])([H:9])[H:10]>>[C:1](/[C:2](=[C:5](\[O:6][N+:4]#[C-:3])[C:7]([H:12])([H:13])[H:14])[H:11])([H:8])([H:9])[H:10]"
C       -1.83016206      -0.66274969       0.07631886
C       -0.54914463      -0.06261144      -0.48512428
C       -0.89427407       1.91223227       0.35451644
N       -0.20309396       1.78979505       1.33441278
C        0.65409108      -0.12589685       0.22174250
O        0.61210740       0.34696516       1.46025913
C        2.01358954      -0.10574317      -0.38447981
H       -1.92137887      -0.55243342       1.15486201
H       -2.70176098      -0.18939127      -0.37470852
H       -1.84046033      -1.73194002      -0.14425564
H       -0.44403820      -0.25282641      -1.55065791
H        2.80168570       0.19226101       0.30609462
H        2.06893097       0.56228854      -1.24307709
H        2.23390840      -1.11994976      -0.72590311
14
Frame=8 idx=011476 GeodesicLength=0.9824832754105998 rxn_smarts="[C:1]([C@@:2]([C:3]#[N:4])([C:5](=[O:6])[C:7]([H:12])([H:13])[H:14])[H:11])([H:8])([H:9])[H:10]>>[C:1](/[C:2](=[C:5](\[O:6][N+:4]#[C-:3])[C:7]([H:12])([H:13])[H:14])[H:11])([H:8])([H:9])[H:10]"
C       -1.83575598      -0.67264401       0.08482215
C       -0.55355138      -0.08208264      -0.48109124
C       -0.84868411       1.93832348       0.30993260
N       -0.17438511       1.82593223       1.29660360
C        0.65112459      -0.15614196       0.23122658
O        0.59484075       0.31198912       1.46938727
C        2.00833286      -0.09356122      -0.37996819
H       -1.94052608      -0.52678810       1.15799364
H       -2.70457149      -0.21942454      -0.39183037
H       -1.83902586      -1.74893225      -0.09729910
H       -0.44521811      -0.28690075      -1.54383787
H        2.80048147       0.12169235       0.33623489
H        2.07419221       0.65799232      -1.16596624
H        2.21274623      -1.06945402      -0.82620772
14
Frame=9 idx=011476 GeodesicLength=1.1063487018140608 rxn_smarts="[C:1]([C@@:2]([C:3]#[N:4])([C:5](=[O:6])[C:7]([H:12])([H:13])[H:14])[H:11])([H:8])([H:9])[H:10]>>[C:1](/[C:2](=[C:5](\[O:6][N+:4]#[C-:3])[C:7]([H:12])([H:13])[H:14])[H:11])([H:8])([H:9])[H:10]"
C       -1.84048090      -0.68300990       0.09273204
C       -0.55853186      -0.09865654      -0.47751187
C       -0.80248492       1.96380934       0.26640421
N       -0.14594378       1.86130918       1.25991628
C        0.64790788      -0.18339305       0.23946458
O        0.57787646       0.27852635       1.47757194
C        2.00236886      -0.08223793      -0.37534797
H       -1.95839275      -0.50272571       1.15933089
H       -2.70743078      -0.25267307      -0.40805987
H       -1.83493054      -1.76480535      -0.05129898
H       -0.44710186      -0.31676838      -1.53750650
H        2.79753897       0.04993863       0.35725410
H        2.08044797       0.74149511      -1.08424693
H        2.18915726      -1.01080867      -0.91870193
14
Frame=10 idx=011476 GeodesicLength=1.2307843396282396 rxn_smarts="[C:1]([C@@:2]([C:3]#[N:4])([C:5](=[O:6])[C:7]([H:12])([H:13])[H:14])[H:11])([H:8])([H:9])[H:10]>>[C:1](/[C:2](=[C:5](\[O:6][N+:4]#[C-:3])[C:7]([H:12])([H:13])[H:14])[H:11])([H:8])([H:9])[H:10]"
C       -1.84457199      -0.69385701       0.10012757
C       -0.56419103      -0.11264510      -0.47437714
C       -0.75540793       1.98899673       0.22363506
N       -0.11778455       1.89639124       1.22436351
C        0.64439160      -0.20806306       0.24658919
O        0.56122159       0.24597325       1.48512670
C        1.99585816      -0.07158017      -0.37066168
H       -1.97536813      -0.48001348       1.15908236
H       -2.71039551      -0.28902435      -0.42356060
H       -1.82851584      -1.77972092      -0.00602462
H       -0.44983493      -0.34304634      -1.53172609
H        2.79305187      -0.02204233       0.36991293
H        2.08796909       0.81385626      -0.99914648
H        2.16357759      -0.94522471      -1.00334072
14
Frame=11 idx=011476 GeodesicLength=1.3557400498825845 rxn_smarts="[C:1]([C@@:2]([C:3]#[N:4])([C:5](=[O:6])[C:7]([H:12])([H:13])[H:14])[H:11])([H:8])([H:9])[H:10]>>[C:1](/[C:2](=[C:5](\[O:6][N+:4]#[C-:3])[C:7]([H:12])([H:13])[H:14])[H:11])([H:8])([H:9])[H:10]"
C       -1.84817992      -0.70517171       0.10715159
C       -0.57049826      -0.12441049      -0.47158325
C       -0.70701090       2.01382975       0.18112897
N       -0.08988062       1.93143819       1.18960105
C        0.64053536      -0.23055284       0.25273692
O        0.54467892       0.21386859       1.49214648
C        1.98883400      -0.06130908      -0.36589214
H       -1.99179863      -0.45849912       1.15737334
H       -2.71335121      -0.32833557      -0.43824011
H       -1.82012455      -1.79364242       0.03881487
H       -0.45329751      -0.36636248      -1.52633737
H        2.78678347      -0.09393879       0.37478687
H        2.09706266       0.87604584      -0.91132788
H        2.13624716      -0.87295986      -1.08035932
14
Frame=12 idx=011476 GeodesicLength=1.4812275553798049 rxn_smarts="[C:1]([C@@:2]([C:3]#[N:4])([C:5](=[O:6])[C:7]([H:12])([H:13])[H:14])[H:11])([H:8])([H:9])[H:10]>>[C:1](/[C:2](=[C:5](\[O:6][N+:4]#[C-:3])[C:7]([H:12])([H:13])[H:14])[H:11])([H:8])([H:9])[H:10]"
C       -1.85145318      -0.71693986       0.11390166
C       -0.57746977      -0.13425148      -0.46904057
C       -0.65684758       2.03820436       0.13842535
N       -0.06224606       1.96664920       1.15532989
C        0.63629210      -0.25118924       0.25805291
O        0.52815810       0.18181942       1.49875417
C        1.98133676      -0.05124075      -0.36102651
H       -2.00798394      -0.43800198       1.15428164
H       -2.71620152      -0.37055034      -0.45212202
H       -1.81005755      -1.80652129       0.08347661
H       -0.45744197      -0.38720987      -1.52121989
H        2.77879490      -0.16531448       0.37215220
H        2.10784248       0.92886936      -0.82105762
H        2.10727722      -0.79432305      -1.14990783
14
Frame=13 idx=011476 GeodesicLength=1.6073816567986063 rxn_smarts="[C:1]([C@@:2]([C:3]#[N:4])([C:5](=[O:6])[C:7]([H:12])([H:13])[H:14])[H:11])([H:8])([H:9])[H:10]>>[C:1](/[C:2](=[C:5](\[O:6][N+:4]#[C-:3])[C:7]([H:12])([H:13])[H:14])[H:11])([H:8])([H:9])[H:10]"
C       -1.85451201      -0.72917039       0.12046681
C       -0.58509503      -0.14249615      -0.46665453
C       -0.60442781       2.06194892       0.09500512
N       -0.03481244       2.00228572       1.12114187
C        0.63167205      -0.27031899       0.26269757
O        0.51158168       0.14950810       1.50506143
C        1.97336516      -0.04112242      -0.35598170
H       -2.02410370      -0.41850792       1.14989512
H       -2.71884329      -0.41545638      -0.46507557
H       -1.79867215      -1.81832431       0.12804483
H       -0.46219665      -0.40612146      -1.51624816
H        2.76892662      -0.23595338       0.36215975
H        2.12025734       0.97291018      -0.72852772
H        2.07686021      -0.70918152      -1.21198483
14
Frame=14 idx=011476 GeodesicLength=1.7343610524760245 rxn_smarts="[C:1]([C@@:2]([C:3]#[N:4])([C:5](=[O:6])[C:7]([H:12])([H:13])[H:14])[H:11])([H:8])([H:9])[H:10]>>[C:1](/[C:2](=[C:5](\[O:6][N+:4]#[C-:3])[C:7]([H:12])([H:13])[H:14])[H:11])([H:8])([H:9])[H:10]"
C       -1.85744560      -0.74186110       0.12692937
C       -0.59334988      -0.14941957      -0.46432247
C       -0.54906814       2.08477023       0.05033581
N       -0.00751684       2.03846429       1.08656310
C        0.62663089      -0.28825494       0.26680531
O        0.49485384       0.11657265       1.51113197
C        1.96484887      -0.03076817      -0.35071837
H       -2.04033012      -0.39994045       1.14425094
H       -2.72109435      -0.46295647      -0.47706375
H       -1.78628285      -1.82899763       0.17269371
H       -0.46745714      -0.42349338      -1.51126499
H        2.75713281      -0.30535124       0.34473347
H        2.13425333       1.00861583      -0.63357961
H        2.04482519      -0.61738006      -1.26649448
14
Frame=15 idx=011476 GeodesicLength=1.8624322273188385 rxn_smarts="[C:1]([C@@:2]([C:3]#[N:4])([C:5](=[O:6])[C:7]([H:12])([H:13])[H:14])[H:11])([H:8])([H:9])[H:10]>>[C:1](/[C:2](=[C:5](\[O:6][N+:4]#[C-:3])[C:7]([H:12])([H:13])[H:14])[H:11])([H:8])([H:9])[H:10]"
C       -1.86037893      -0.75501290       0.13335167
C       -0.60222571      -0.15531932      -0.46195885
C       -0.49025861       2.10628908       0.00392577
N        0.01980794       2.07541022       1.05102880
C        0.62121420      -0.30533939       0.27054819
O        0.47795106       0.08272491       1.51710937
C        1.95579169      -0.01992749      -0.34509685
H       -2.05673000      -0.38244515       1.13750074
H       -2.72291402      -0.51264324      -0.48789605
H       -1.77330508      -1.83851988       0.21728507
H       -0.47313227      -0.43976745      -1.50618722
H        2.74334260      -0.37303568       0.31976476
H        2.14950497       1.03615923      -0.53636499
H        2.01133218      -0.51857295      -1.31301042
14
Frame=16 idx=011476 GeodesicLength=1.9921931163317221 rxn_smarts="[C:1]([C@@:2]([C:3]#[N:4])([C:5](=[O:6])[C:7]([H:12])([H:13])[H:14])[H:11])([H:8])([H:9])[H:10]>>[C:1](/[C:2](=[C:5](\[O:6][N+:4]#[C-:3])[C:7]([H:12])([H:13])[H:14])[H:11])([H:8])([H:9])[H:10]"
C       -1.86332240      -0.76861631       0.13979351
C       -0.61165753      -0.16045744      -0.45944315
C       -0.42698590       2.12598866      -0.04481026
N        0.04732521       2.11318612       1.01384265
C        0.61538995      -0.32193276       0.27404539
O        0.46080671       0.04754745       1.52299036
C        1.94597555      -0.00835691      -0.33906879
H       -2.07332717      -0.36597434       1.12964061
H       -2.72405056      -0.56434503      -0.49751618
H       -1.76002000      -1.84686441       0.26190222
H       -0.47910032      -0.45527592      -1.50081229
H        2.72739626      -0.43819963       0.28681647
H        2.16566543       1.05564905      -0.43645728
H        1.97590477      -0.41234853      -1.35092326
