13
Frame=0 idx=003634 GeodesicLength=0.0 rxn_smarts="[O:1]([N:2]=[C:3]1[C:4]([H:8])([H:9])[C:5]([H:10])([H:11])[C:6]1([H:12])[H:13])[H:7]>>[O-:1][N:2]([C+:3]1[C:4]([H:8])([H:9])[C:5]([H:10])([H:11])[C:6]1([H:12])[H:13])[H:7]"
O        2.65236954      -0.92825906      -0.40682908
N        1.85982268       0.16858011      -0.08533024
C        0.60750831       0.11427871       0.01466352
C       -0.36176868      -1.01623660      -0.17930360
C       -1.50118819       0.01903287       0.04560376
C       -0.45241853       1.13643468       0.31804660
H        2.96738183       0.29678906      -0.15770013
H       -0.31621107      -1.48911533      -1.16074737
H       -0.27766194      -1.79573416       0.57946622
H       -2.10823837       0.19945153      -0.83966462
H       -2.16128126      -0.20016936       0.88249554
H       -0.47703375       1.99270175      -0.35638807
H       -0.43128057       1.50224580       1.34568744
13
Frame=1 idx=003634 GeodesicLength=0.037138732429687356 rxn_smarts="[O:1]([N:2]=[C:3]1[C:4]([H:8])([H:9])[C:5]([H:10])([H:11])[C:6]1([H:12])[H:13])[H:7]>>[O-:1][N:2]([C+:3]1[C:4]([H:8])([H:9])[C:5]([H:10])([H:11])[C:6]1([H:12])[H:13])[H:7]"
O        2.64917581      -0.92817044      -0.39187355
N        1.85711494       0.17677407      -0.11947722
C        0.60671985       0.11567784       0.00376791
C       -0.36253603      -1.01534952      -0.18561073
C       -1.50162839       0.01768192       0.05103297
C       -0.45221142       1.13710473       0.31342986
H        2.97925139       0.28734933      -0.11624850
H       -0.32579250      -1.48500051      -1.16906865
H       -0.27048836      -1.79744561       0.56956698
H       -2.11913038       0.19709593      -0.82721222
H       -2.15172154      -0.20329746       0.89527947
H       -0.48527976       1.99136785      -0.36330232
H       -0.42347359       1.50621187       1.33971599
13
Frame=2 idx=003634 GeodesicLength=0.07414639046826499 rxn_smarts="[O:1]([N:2]=[C:3]1[C:4]([H:8])([H:9])[C:5]([H:10])([H:11])[C:6]1([H:12])[H:13])[H:7]>>[O-:1][N:2]([C+:3]1[C:4]([H:8])([H:9])[C:5]([H:10])([H:11])[C:6]1([H:12])[H:13])[H:7]"
O        2.64586383      -0.92684911      -0.37917294
N        1.85477188       0.18305981      -0.14964483
C        0.60632736       0.11641802      -0.00572418
C       -0.36314381      -1.01468356      -0.19129344
C       -1.50152255       0.01651451       0.05598175
C       -0.45141161       1.13751300       0.30907037
H        2.98652462       0.27968520      -0.07799247
H       -0.33448232      -1.48109364      -1.17661744
H       -0.26429714      -1.79937567       0.56031991
H       -2.12856610       0.19505748      -0.81565629
H       -2.14228310      -0.20589078       0.90695832
H       -0.49186272       1.98958864      -0.37010841
H       -0.41591836       1.51005611       1.33387964
13
Frame=3 idx=003634 GeodesicLength=0.11114753241413661 rxn_smarts="[O:1]([N:2]=[C:3]1[C:4]([H:8])([H:9])[C:5]([H:10])([H:11])[C:6]1([H:12])[H:13])[H:7]>>[O-:1][N:2]([C+:3]1[C:4]([H:8])([H:9])[C:5]([H:10])([H:11])[C:6]1([H:12])[H:13])[H:7]"
O        2.64242818      -0.92430119      -0.37077332
N        1.85295012       0.18772900      -0.17413332
C        0.60627279       0.11646523      -0.01264611
C       -0.36361891      -1.01435651      -0.19574682
C       -1.50118887       0.01556938       0.06005369
C       -0.45037012       1.13774499       0.30540153
H        2.99142167       0.27348002      -0.04497755
H       -0.34158818      -1.47773921      -1.18274009
H       -0.25966383      -1.80153925       0.55256499
H       -2.13620188       0.19333273      -0.80596544
H       -2.13408096      -0.20781009       0.91665232
H       -0.49665534       1.98752302      -0.37637685
H       -0.40970467       1.51390188       1.32868695
13
Frame=4 idx=003634 GeodesicLength=0.14816813323103828 rxn_smarts="[O:1]([N:2]=[C:3]1[C:4]([H:8])([H:9])[C:5]([H:10])([H:11])[C:6]1([H:12])[H:13])[H:7]>>[O-:1][N:2]([C+:3]1[C:4]([H:8])([H:9])[C:5]([H:10])([H:11])[C:6]1([H:12])[H:13])[H:7]"
O        2.63897254      -0.92118800      -0.36429161
N        1.85143222       0.19146976      -0.19510723
C        0.60640479       0.11616330      -0.01815714
C       -0.36400894      -1.01418708      -0.19956758
C       -1.50072680       0.01474757       0.06363632
C       -0.44921410       1.13788505       0.30213320
H        2.99497127       0.26810516      -0.01556018
H       -0.34777851      -1.47460173      -1.18813675
H       -0.25589672      -1.80384111       0.54554745
H       -2.14284262       0.19180360      -0.79728718
H       -2.12654201      -0.20939832       0.92523252
H       -0.50048184       1.98531259      -0.38231197
H       -0.40428927       1.51772921       1.32387014
13
Frame=5 idx=003634 GeodesicLength=0.18520596686870222 rxn_smarts="[O:1]([N:2]=[C:3]1[C:4]([H:8])([H:9])[C:5]([H:10])([H:11])[C:6]1([H:12])[H:13])[H:7]>>[O-:1][N:2]([C+:3]1[C:4]([H:8])([H:9])[C:5]([H:10])([H:11])[C:6]1([H:12])[H:13])[H:7]"
O        2.63549842      -0.91771282      -0.35904618
N        1.85011090       0.19462657      -0.21366268
C        0.60665013       0.11567826      -0.02282360
C       -0.36432979      -1.01408791      -0.20302689
C       -1.50016941       0.01399341       0.06694284
C       -0.44800047       1.13798161       0.29907255
H        2.99762661       0.26312666       0.01161429
H       -0.35338699      -1.47152886      -1.19312224
H       -0.25263708      -1.80622140       0.53892491
H       -2.14889513       0.19036570      -0.78916304
H       -2.11933159      -0.21080474       0.93317585
H       -0.50375081       1.98299081      -0.38810953
H       -0.39938479       1.52159271       1.31922374
13
Frame=6 idx=003634 GeodesicLength=0.22226567467318803 rxn_smarts="[O:1]([N:2]=[C:3]1[C:4]([H:8])([H:9])[C:5]([H:10])([H:11])[C:6]1([H:12])[H:13])[H:7]>>[O-:1][N:2]([C+:3]1[C:4]([H:8])([H:9])[C:5]([H:10])([H:11])[C:6]1([H:12])[H:13])[H:7]"
O        2.63204906      -0.91399491      -0.35453448
N        1.84894181       0.19738115      -0.23049742
C        0.60697149       0.11509755      -0.02701434
C       -0.36460072      -1.01401903      -0.20631156
C       -1.49954036       0.01327243       0.07011460
C       -0.44675183       1.13806637       0.29609525
H        2.99960301       0.25833453       0.03737897
H       -0.35865115      -1.46843552      -1.19791623
H       -0.24967189      -1.80866614       0.53245468
H       -2.15462956       0.18896205      -0.78128382
H       -2.11223493      -0.21211560       0.94079544
H       -0.50669867       1.98057985      -0.39389498
H       -0.39478628       1.52553727       1.31461389
13
Frame=7 idx=003634 GeodesicLength=0.25935910105127963 rxn_smarts="[O:1]([N:2]=[C:3]1[C:4]([H:8])([H:9])[C:5]([H:10])([H:11])[C:6]1([H:12])[H:13])[H:7]>>[O-:1][N:2]([C+:3]1[C:4]([H:8])([H:9])[C:5]([H:10])([H:11])[C:6]1([H:12])[H:13])[H:7]"
O        2.62866209      -0.91016490      -0.35008225
N        1.84789650       0.19980553      -0.24610800
C        0.60734043       0.11447119      -0.03102707
C       -0.36484811      -1.01394754      -0.20960758
C       -1.49884632       0.01255933       0.07327461
C       -0.44546838       1.13815444       0.29309895
H        3.00100231       0.25370356       0.06217920
H       -0.36378529      -1.46521153      -1.20274344
H       -0.24685485      -1.81119461       0.52587047
H       -2.16026772       0.18756340      -0.77336626
H       -2.10504025      -0.21340867       0.94835894
H       -0.50948840       1.97808330      -0.39977344
H       -0.39030201       1.52958649       1.30992586
13
Frame=8 idx=003634 GeodesicLength=0.29649548421467387 rxn_smarts="[O:1]([N:2]=[C:3]1[C:4]([H:8])([H:9])[C:5]([H:10])([H:11])[C:6]1([H:12])[H:13])[H:7]>>[O-:1][N:2]([C+:3]1[C:4]([H:8])([H:9])[C:5]([H:10])([H:11])[C:6]1([H:12])[H:13])[H:7]"
O        2.62535720      -0.90628707      -0.34531321
N        1.84696399       0.20193392      -0.26081193
C        0.60773925       0.11382620      -0.03505934
C       -0.36509159      -1.01385514      -0.21303748
C       -1.49808648       0.01183640       0.07650941
C       -0.44414582       1.13825592       0.29000659
H        3.00186686       0.24922141       0.08638343
H       -0.36893880      -1.46178668      -1.20774953
H       -0.24409504      -1.81382295       0.51899347
H       -2.16595457       0.18614766      -0.76520878
H       -2.09759273      -0.21473259       0.95604981
H       -0.51222178       1.97549541      -0.40583093
H       -0.38580049       1.53376751       1.30506849
13
Frame=9 idx=003634 GeodesicLength=0.3336835828509163 rxn_smarts="[O:1]([N:2]=[C:3]1[C:4]([H:8])([H:9])[C:5]([H:10])([H:11])[C:6]1([H:12])[H:13])[H:7]>>[O-:1][N:2]([C+:3]1[C:4]([H:8])([H:9])[C:5]([H:10])([H:11])[C:6]1([H:12])[H:13])[H:7]"
O        2.62213727      -0.90238766      -0.34006046
N        1.84614702       0.20379093      -0.27479929
C        0.60815629       0.11318498      -0.03925111
C       -0.36534250      -1.01372711      -0.21668797
C       -1.49725472       0.01108820       0.07988969
C       -0.44278289       1.13838280       0.28674915
H        3.00219975       0.24484399       0.11034568
H       -0.37421463      -1.45810232      -1.21303790
H       -0.24132022      -1.81656334       0.51169040
H       -2.17179730       0.18468685      -0.75664636
H       -2.08976229      -0.21612070       0.96401237
H       -0.51497598       1.97280172      -0.41215825
H       -0.38118981       1.53812165       1.29995405
13
Frame=10 idx=003634 GeodesicLength=0.37093711262469076 rxn_smarts="[O:1]([N:2]=[C:3]1[C:4]([H:8])([H:9])[C:5]([H:10])([H:11])[C:6]1([H:12])[H:13])[H:7]>>[O-:1][N:2]([C+:3]1[C:4]([H:8])([H:9])[C:5]([H:10])([H:11])[C:6]1([H:12])[H:13])[H:7]"
O        2.61900683      -0.89849782      -0.33410959
N        1.84545946       0.20537485      -0.28820320
C        0.60858258       0.11256375      -0.04373470
C       -0.36561420      -1.01354633      -0.22066395
C       -1.49633887       0.01029637       0.08349971
C       -0.44137498       1.13854742       0.28324613
H        3.00197156       0.24055211       0.13438199
H       -0.37971898      -1.45407115      -1.21873865
H       -0.23846958      -1.81944396       0.50378695
H       -2.17791311       0.18314938      -0.74748063
H       -2.08138865      -0.21761183       0.97241375
H       -0.51782634       1.96997469      -0.41887021
H       -0.37637572       1.54271253       1.29447241
13
Frame=11 idx=003634 GeodesicLength=0.4082136801798439 rxn_smarts="[O:1]([N:2]=[C:3]1[C:4]([H:8])([H:9])[C:5]([H:10])([H:11])[C:6]1([H:12])[H:13])[H:7]>>[O-:1][N:2]([C+:3]1[C:4]([H:8])([H:9])[C:5]([H:10])([H:11])[C:6]1([H:12])[H:13])[H:7]"
O        2.61591408      -0.89451661      -0.32810739
N        1.84485701       0.20676634      -0.30099650
C        0.60902936       0.11192537      -0.04817343
C       -0.36588393      -1.01335030      -0.22470636
C       -1.49536011       0.00949571       0.08716078
C       -0.43995174       1.13872321       0.27967657
H        3.00137230       0.23629287       0.15810207
H       -0.38522710      -1.44988895      -1.22452025
H       -0.23568992      -1.82238535       0.49569645
H       -2.18401041       0.18157900      -0.73813325
H       -2.07281827      -0.21911602       0.98086358
H       -0.52064127       1.96706023      -0.42571406
H       -0.37159000       1.54741450       1.28885179
13
Frame=12 idx=003634 GeodesicLength=0.4455260972920356 rxn_smarts="[O:1]([N:2]=[C:3]1[C:4]([H:8])([H:9])[C:5]([H:10])([H:11])[C:6]1([H:12])[H:13])[H:7]>>[O-:1][N:2]([C+:3]1[C:4]([H:8])([H:9])[C:5]([H:10])([H:11])[C:6]1([H:12])[H:13])[H:7]"
O        2.61286387      -0.89046928      -0.32189132
N        1.84435282       0.20797304      -0.31327837
C        0.60949007       0.11129295      -0.05269501
C       -0.36615764      -1.01312084      -0.22890832
C       -1.49430663       0.00866954       0.09094773
C       -0.43851127       1.13892496       0.27596563
H        3.00035731       0.23201512       0.18180505
H       -0.39083027      -1.44548159      -1.23049630
H       -0.23291105      -1.82540527       0.48726888
H       -2.19019614       0.17994421      -0.72842774
H       -2.06390402      -0.22067047       0.98951426
H       -0.52349360       1.96403779      -0.43279549
H       -0.36675344       1.55228984       1.28299100
13
Frame=13 idx=003634 GeodesicLength=0.4828866910015729 rxn_smarts="[O:1]([N:2]=[C:3]1[C:4]([H:8])([H:9])[C:5]([H:10])([H:11])[C:6]1([H:12])[H:13])[H:7]>>[O-:1][N:2]([C+:3]1[C:4]([H:8])([H:9])[C:5]([H:10])([H:11])[C:6]1([H:12])[H:13])[H:7]"
O        2.60985724      -0.88637106      -0.31534472
N        1.84396120       0.20900007      -0.32511265
C        0.60996026       0.11068233      -0.05739262
C       -0.36644090      -1.01284380      -0.23334224
C       -1.49316473       0.00780383       0.09492033
C       -0.43705173       1.13916399       0.27205194
H        2.99887872       0.22767769       0.20572436
H       -0.39659764      -1.44078631      -1.23675406
H       -0.23008684      -1.82852043       0.47838153
H       -2.19654702       0.17821793      -0.71821912
H       -2.05451983      -0.22230145       0.99848416
H       -0.52644160       1.96088663      -0.44020109
H       -0.36180712       1.55739061       1.27680419
13
Frame=14 idx=003634 GeodesicLength=0.520309639115349 rxn_smarts="[O:1]([N:2]=[C:3]1[C:4]([H:8])([H:9])[C:5]([H:10])([H:11])[C:6]1([H:12])[H:13])[H:7]>>[O-:1][N:2]([C+:3]1[C:4]([H:8])([H:9])[C:5]([H:10])([H:11])[C:6]1([H:12])[H:13])[H:7]"
O        2.60688748      -0.88223222      -0.30839734
N        1.84370336       0.20985725      -0.33652829
C        0.61043678       0.11011398      -0.06235023
C       -0.36673568      -1.01250182      -0.23807699
C       -1.49191671       0.00688402       0.09914034
C       -0.43557503       1.13945550       0.26787067
H        2.99687154       0.22321194       0.23010228
H       -0.40258901      -1.43573575      -1.24337551
H       -0.22716763      -1.83174381       0.46891322
H       -2.20313368       0.17636573      -0.70735753
H       -2.04453323      -0.22403826       1.00788886
H       -0.52954486       1.95758284      -0.44802695
H       -0.35670334       1.56278061       1.27019746
13
Frame=15 idx=003634 GeodesicLength=0.5578102913748506 rxn_smarts="[O:1]([N:2]=[C:3]1[C:4]([H:8])([H:9])[C:5]([H:10])([H:11])[C:6]1([H:12])[H:13])[H:7]>>[O-:1][N:2]([C+:3]1[C:4]([H:8])([H:9])[C:5]([H:10])([H:11])[C:6]1([H:12])[H:13])[H:7]"
O        2.60394852      -0.87807262      -0.30088805
N        1.84360121       0.21053334      -0.34756350
C        0.61091542       0.10960144      -0.06766780
C       -0.36705018      -1.01207953      -0.24319413
C       -1.49053886       0.00589566       0.10367249
C       -0.43407685       1.13980968       0.26335657
H        2.99425131       0.21860045       0.25513912
H       -0.40888187      -1.43025521      -1.25045574
H       -0.22411089      -1.83509508       0.45871994
H       -2.21002430       0.17435935      -0.69567695
H       -2.03379549      -0.22590788       1.01784599
H       -0.53286146       1.95409812      -0.45636365
H       -0.35137655       1.56851228       1.26307571
13
Frame=16 idx=003634 GeodesicLength=0.5953461585871863 rxn_smarts="[O:1]([N:2]=[C:3]1[C:4]([H:8])([H:9])[C:5]([H:10])([H:11])[C:6]1([H:12])[H:13])[H:7]>>[O-:1][N:2]([C+:3]1[C:4]([H:8])([H:9])[C:5]([H:10])([H:11])[C:6]1([H:12])[H:13])[H:7]"
O        2.60102071      -0.87380631      -0.29333053
N        1.84359793       0.21110281      -0.35825099
C        0.61140922       0.10911325      -0.07306712
C       -0.36736081      -1.01161549      -0.24844694
C       -1.48905629       0.00487685       0.10833354
C       -0.43257643       1.14019604       0.25869266
H        2.99116805       0.21381620       0.28040664
H       -0.41526897      -1.42456201      -1.25767273
H       -0.22104277      -1.83848757       0.44821640
H       -2.21693917       0.17226504      -0.68360836
H       -2.02266126      -0.22782096       1.02797062
H       -0.53626839       1.95049802      -0.46492980
H       -0.34602183       1.57442412       1.25568661
