8
Frame=0 idx=000114 GeodesicLength=0.0 rxn_smarts="[O:1]=[c:2]1[o:3][c:4]([H:7])[c:5]([H:8])[o:6]1>>[C:4](=[C:5]=[O:6])([H:7])[H:8].[O:1]=[C:2]=[O:3]"
O        2.75951312      -0.14064978       0.08803546
C        1.73277630      -0.65213884       0.06076713
O        0.74481524      -1.27913652       0.04383299
C       -1.12211172      -0.42894839       0.40935309
C       -0.81332159       0.83841139      -0.04596651
O        0.18449707       1.48009151      -0.29466976
H       -1.63576202      -1.12086176      -0.25672953
H       -1.85040640       1.30323240      -0.00462287
8
Frame=1 idx=000114 GeodesicLength=0.08746413932969851 rxn_smarts="[O:1]=[c:2]1[o:3][c:4]([H:7])[c:5]([H:8])[o:6]1>>[C:4](=[C:5]=[O:6])([H:7])[H:8].[O:1]=[C:2]=[O:3]"
O        2.76397219      -0.14669702       0.09898080
C        1.72126550      -0.62550623       0.04229113
O        0.74077850      -1.27352318       0.06548336
C       -1.12881894      -0.41594120       0.38990461
C       -0.80883667       0.83285374      -0.09499174
O        0.20987722       1.46654509      -0.28751229
H       -1.64244071      -1.12811998      -0.25288068
H       -1.85579709       1.29038879       0.03872481
8
Frame=2 idx=000114 GeodesicLength=0.1753106711874488 rxn_smarts="[O:1]=[c:2]1[o:3][c:4]([H:7])[c:5]([H:8])[o:6]1>>[C:4](=[C:5]=[O:6])([H:7])[H:8].[O:1]=[C:2]=[O:3]"
O        2.76665547      -0.15292070       0.10891207
C        1.71025956      -0.60052835       0.02554947
O        0.73687530      -1.26669319       0.08407545
C       -1.13429502      -0.40349780       0.37234514
C       -0.80399305       0.83010033      -0.13248802
O        0.23298431       1.45161795      -0.28327761
H       -1.64839105      -1.13201963      -0.24983875
H       -1.86009553       1.27394138       0.07472225
8
Frame=3 idx=000114 GeodesicLength=0.2631712630689884 rxn_smarts="[O:1]=[c:2]1[o:3][c:4]([H:7])[c:5]([H:8])[o:6]1>>[C:4](=[C:5]=[O:6])([H:7])[H:8].[O:1]=[C:2]=[O:3]"
O        2.76923533      -0.15981989       0.11125999
C        1.69953555      -0.57638667       0.01663976
O        0.73296473      -1.25892152       0.10357408
C       -1.13986008      -0.39207477       0.35487029
C       -0.79898377       0.82933709      -0.16120643
O        0.25467423       1.43586128      -0.28081786
H       -1.65308557      -1.13364783      -0.25069852
H       -1.86448042       1.25565231       0.10637868
8
Frame=4 idx=000114 GeodesicLength=0.35116056480897206 rxn_smarts="[O:1]=[c:2]1[o:3][c:4]([H:7])[c:5]([H:8])[o:6]1>>[C:4](=[C:5]=[O:6])([H:7])[H:8].[O:1]=[C:2]=[O:3]"
O        2.77122541      -0.16664228       0.11347948
C        1.68944668      -0.55329119       0.01050143
O        0.72903561      -1.25094433       0.11927138
C       -1.14440940      -0.38108893       0.33857407
C       -0.79375304       0.82989763      -0.18453741
O        0.27548583       1.41982897      -0.28098478
H       -1.65786619      -1.13373104      -0.25123801
H       -1.86916489       1.23597116       0.13493384
8
Frame=5 idx=000114 GeodesicLength=0.4391516620990198 rxn_smarts="[O:1]=[c:2]1[o:3][c:4]([H:7])[c:5]([H:8])[o:6]1>>[C:4](=[C:5]=[O:6])([H:7])[H:8].[O:1]=[C:2]=[O:3]"
O        2.77284656      -0.17352399       0.11499887
C        1.67997696      -0.53109337       0.00652201
O        0.72508562      -1.24294935       0.13241905
C       -1.14815876      -0.37039846       0.32322745
C       -0.78832097       0.83148224      -0.20386891
O        0.29567228       1.40390379      -0.28235923
H       -1.66263197      -1.13266613      -0.25142273
H       -1.87446971       1.21524527       0.16048349
8
Frame=6 idx=000114 GeodesicLength=0.527158517683622 rxn_smarts="[O:1]=[c:2]1[o:3][c:4]([H:7])[c:5]([H:8])[o:6]1>>[C:4](=[C:5]=[O:6])([H:7])[H:8].[O:1]=[C:2]=[O:3]"
O        2.77448835      -0.18087649       0.11352381
C        1.67102997      -0.50978501       0.00449160
O        0.72107560      -1.23481536       0.14570263
C       -1.15153452      -0.35988250       0.30850809
C       -0.78256453       0.83399373      -0.21973672
O        0.31549759       1.38853842      -0.28266379
H       -1.66691868      -1.13070703      -0.25197936
H       -1.88107377       1.19353425       0.18215376
8
Frame=7 idx=000114 GeodesicLength=0.615189456809297 rxn_smarts="[O:1]=[c:2]1[o:3][c:4]([H:7])[c:5]([H:8])[o:6]1>>[C:4](=[C:5]=[O:6])([H:7])[H:8].[O:1]=[C:2]=[O:3]"
O        2.77572083      -0.18807188       0.11313106
C        1.66269979      -0.48907826       0.00383079
O        0.71707565      -1.22690764       0.15613178
C       -1.15413378      -0.34959437       0.29435409
C       -0.77680247       0.83713682      -0.23338559
O        0.33476791       1.37315603      -0.28529002
H       -1.67141149      -1.12802797      -0.25190557
H       -1.88791644       1.17138728       0.20313346
8
Frame=8 idx=000114 GeodesicLength=0.7032214334284754 rxn_smarts="[O:1]=[c:2]1[o:3][c:4]([H:7])[c:5]([H:8])[o:6]1>>[C:4](=[C:5]=[O:6])([H:7])[H:8].[O:1]=[C:2]=[O:3]"
O        2.77689110      -0.19560976       0.11107497
C        1.65487856      -0.46906986       0.00437628
O        0.71304364      -1.21898570       0.16652443
C       -1.15636069      -0.33940811       0.28058707
C       -0.77083856       0.84096608      -0.24476542
O        0.35371098       1.35823480      -0.28762686
H       -1.67554907      -1.12476344      -0.25196734
H       -1.89577596       1.14863599       0.22179687
8
Frame=9 idx=000114 GeodesicLength=0.7912624335122009 rxn_smarts="[O:1]=[c:2]1[o:3][c:4]([H:7])[c:5]([H:8])[o:6]1>>[C:4](=[C:5]=[O:6])([H:7])[H:8].[O:1]=[C:2]=[O:3]"
O        2.77790612      -0.20337394       0.10809405
C        1.64755600      -0.44968619       0.00589203
O        0.70898142      -1.21108277       0.17662091
C       -1.15819639      -0.32931535       0.26709488
C       -0.76473305       0.84540146      -0.25426455
O        0.37232291       1.34365880      -0.29029528
H       -1.67942084      -1.12099906      -0.25209212
H       -1.90441617       1.12539705       0.23895008
8
Frame=10 idx=000114 GeodesicLength=0.8793259615392808 rxn_smarts="[O:1]=[c:2]1[o:3][c:4]([H:7])[c:5]([H:8])[o:6]1>>[C:4](=[C:5]=[O:6])([H:7])[H:8].[O:1]=[C:2]=[O:3]"
O        2.77883478      -0.21150806       0.10355806
C        1.64066025      -0.43082743       0.00861067
O        0.70485138      -1.20306883       0.18729481
C       -1.15978590      -0.31932254       0.25361546
C       -0.75851140       0.85043672      -0.26204876
O        0.39062281       1.32943252      -0.29319239
H       -1.68286832      -1.11683362      -0.25275518
H       -1.91380360       1.10169124       0.25491733
8
Frame=11 idx=000114 GeodesicLength=0.9673738376810944 rxn_smarts="[O:1]=[c:2]1[o:3][c:4]([H:7])[c:5]([H:8])[o:6]1>>[C:4](=[C:5]=[O:6])([H:7])[H:8].[O:1]=[C:2]=[O:3]"
O        2.77949562      -0.21986667       0.09827217
C        1.63418301      -0.41253320       0.01198063
O        0.70065038      -1.19493129       0.19841711
C       -1.16109707      -0.30941549       0.24009386
C       -0.75220706       0.85604670      -0.26832728
O        0.40861678       1.31546744      -0.29682357
H       -1.68593613      -1.11231836      -0.25390476
H       -1.92370554       1.07755087       0.27029184
8
Frame=12 idx=000114 GeodesicLength=1.0554824511422973 rxn_smarts="[O:1]=[c:2]1[o:3][c:4]([H:7])[c:5]([H:8])[o:6]1>>[C:4](=[C:5]=[O:6])([H:7])[H:8].[O:1]=[C:2]=[O:3]"
O        2.77986762      -0.22858388       0.09190643
C        1.62810614      -0.39494957       0.01519373
O        0.69636661      -1.18648470       0.21079417
C       -1.16218135      -0.29947358       0.22657292
C       -0.74572622       0.86223004      -0.27307440
O        0.42638673       1.30188948      -0.30031205
H       -1.68841691      -1.10748243      -0.25553306
H       -1.93440262       1.05285463       0.28445226
8
Frame=13 idx=000114 GeodesicLength=1.1436299203298623 rxn_smarts="[O:1]=[c:2]1[o:3][c:4]([H:7])[c:5]([H:8])[o:6]1>>[C:4](=[C:5]=[O:6])([H:7])[H:8].[O:1]=[C:2]=[O:3]"
O        2.78009797      -0.23782745       0.08388573
C        1.62231291      -0.37732492       0.02101384
O        0.69188823      -1.17776699       0.22397573
C       -1.16315515      -0.28969169       0.21243025
C       -0.73929897       0.86902349      -0.27648387
O        0.44379852       1.28832571      -0.30566684
H       -1.69048075      -1.10238469      -0.25851487
H       -1.94516275       1.02764653       0.29936003
8
Frame=14 idx=000114 GeodesicLength=1.2317863515640495 rxn_smarts="[O:1]=[c:2]1[o:3][c:4]([H:7])[c:5]([H:8])[o:6]1>>[C:4](=[C:5]=[O:6])([H:7])[H:8].[O:1]=[C:2]=[O:3]"
O        2.77982296      -0.24694330       0.07708434
C        1.61688839      -0.36002525       0.02726673
O        0.68726752      -1.16904732       0.23634933
C       -1.16379796      -0.27992915       0.19809140
C       -0.73288959       0.87634899      -0.27872081
O        0.46087647       1.27459174      -0.31361672
H       -1.69247344      -1.09691586      -0.26179115
H       -1.95569435       1.00192016       0.31533688
8
Frame=15 idx=000114 GeodesicLength=1.319961319857551 rxn_smarts="[O:1]=[c:2]1[o:3][c:4]([H:7])[c:5]([H:8])[o:6]1>>[C:4](=[C:5]=[O:6])([H:7])[H:8].[O:1]=[C:2]=[O:3]"
O        2.77917685      -0.25665966       0.06877312
C        1.61171533      -0.34280897       0.03507769
O        0.68240663      -1.15982373       0.25024297
C       -1.16435272      -0.27015065       0.18317871
C       -0.72640375       0.88436464      -0.27945992
O        0.47766622       1.26084018      -0.32307842
H       -1.69381624      -1.09116970      -0.26648134
H       -1.96639231       0.97540788       0.33174721
8
Frame=16 idx=000114 GeodesicLength=1.4081503330027558 rxn_smarts="[O:1]=[c:2]1[o:3][c:4]([H:7])[c:5]([H:8])[o:6]1>>[C:4](=[C:5]=[O:6])([H:7])[H:8].[O:1]=[C:2]=[O:3]"
O        2.77796134      -0.26682864       0.05983571
C        1.60677645      -0.32562796       0.04414116
O        0.67727139      -1.15007428       0.26530199
C       -1.16478346      -0.26030866       0.16763433
C       -0.71983763       0.89311595      -0.27863124
O        0.49413020       1.24681519      -0.33488989
H       -1.69456985      -1.08508348      -0.27262211
H       -1.97694844       0.94799187       0.34923005
