17
Frame=0 idx=006653 GeodesicLength=0.0 rxn_smarts="[C:1]([O:2][C@@:3]1([H:11])[C:4]([H:12])([H:13])[O:5][C@:6]1([C:7]([H:15])([H:16])[H:17])[H:14])([H:8])([H:9])[H:10]>>[C:1]([O:2][C:3](=[C:4]([H:12])[H:13])[H:11])([H:8])([H:9])[H:10].[O:5]=[C:6]([C:7]([H:15])([H:16])[H:17])[H:14]"
C        1.73029969       1.14745733      -0.41616503
O        1.12140859       0.15414250      -1.21959699
C        0.31380174      -0.77661450      -0.59346908
C        0.75413576      -1.25753402       0.68432023
O       -1.43586904      -1.73858933       0.36258776
C       -1.34925457      -0.60698316      -0.29029378
C       -1.70437972       0.67852546       0.44622078
H        1.19055800       1.27936205       0.52764381
H        2.76854217       0.88991148      -0.19340849
H        1.71338286       2.08299206      -0.97497936
H        0.15340014      -1.57866663      -1.31004475
H        0.13989014      -1.21499686       1.56467765
H        1.81838502      -1.44940695       0.82640463
H       -1.78336145      -0.60272672      -1.30143692
H       -1.38738452       1.55714556      -0.12101724
H       -2.78811190       0.72936446       0.56863390
H       -1.25544297       0.70661735       1.43992280
17
Frame=1 idx=006653 GeodesicLength=0.09282344896027422 rxn_smarts="[C:1]([O:2][C@@:3]1([H:11])[C:4]([H:12])([H:13])[O:5][C@:6]1([C:7]([H:15])([H:16])[H:17])[H:14])([H:8])([H:9])[H:10]>>[C:1]([O:2][C:3](=[C:4]([H:12])[H:13])[H:11])([H:8])([H:9])[H:10].[O:5]=[C:6]([C:7]([H:15])([H:16])[H:17])[H:14]"
C        1.75735127       1.14609801      -0.41867252
O        1.10786603       0.18161208      -1.22323436
C        0.32176126      -0.76530934      -0.59733209
C        0.75327460      -1.25348197       0.67958081
O       -1.42960567      -1.74043918       0.37426484
C       -1.36421285      -0.61007415      -0.28427674
C       -1.73635104       0.67163338       0.44792046
H        1.22996210       1.28836594       0.53065183
H        2.78916138       0.85286684      -0.20975931
H        1.76511951       2.08578837      -0.97051171
H        0.17090889      -1.56393724      -1.32050913
H        0.15911286      -1.19287531       1.57312120
H        1.81512923      -1.45586341       0.82425997
H       -1.80118523      -0.61780490      -1.29428051
H       -1.42292219       1.55270647      -0.11739152
H       -2.82135059       0.71494786       0.56192048
H       -1.29401956       0.70576656       1.44424831
17
Frame=2 idx=006653 GeodesicLength=0.1855893090754761 rxn_smarts="[C:1]([O:2][C@@:3]1([H:11])[C:4]([H:12])([H:13])[O:5][C@:6]1([C:7]([H:15])([H:16])[H:17])[H:14])([H:8])([H:9])[H:10]>>[C:1]([O:2][C:3](=[C:4]([H:12])[H:13])[H:11])([H:8])([H:9])[H:10].[O:5]=[C:6]([C:7]([H:15])([H:16])[H:17])[H:14]"
C        1.78557625       1.14439081      -0.42167810
O        1.09389675       0.21065027      -1.22520966
C        0.32990118      -0.75302425      -0.60074393
C        0.75193581      -1.24864292       0.67538390
O       -1.42340816      -1.74212879       0.38561445
C       -1.37955491      -0.61323530      -0.27825768
C       -1.76942632       0.66408159       0.44981560
H        1.27290926       1.29689285       0.53415830
H        2.80979894       0.81510258      -0.22889519
H        1.81787229       2.08740278      -0.96676088
H        0.18923406      -1.54779517      -1.33089869
H        0.17810656      -1.17007507       1.58131485
H        1.81118828      -1.46196432       0.82277669
H       -1.81858011      -0.63294673      -1.28731892
H       -1.45942940       1.54787626      -0.11303743
H       -2.85564852       0.69949261       0.55474663
H       -1.33437194       0.70392282       1.44899007
17
Frame=3 idx=006653 GeodesicLength=0.27829882209703016 rxn_smarts="[C:1]([O:2][C@@:3]1([H:11])[C:4]([H:12])([H:13])[O:5][C@:6]1([C:7]([H:15])([H:16])[H:17])[H:14])([H:8])([H:9])[H:10]>>[C:1]([O:2][C:3](=[C:4]([H:12])[H:13])[H:11])([H:8])([H:9])[H:10].[O:5]=[C:6]([C:7]([H:15])([H:16])[H:17])[H:14]"
C        1.81505601       1.14228655      -0.42526275
O        1.07953962       0.24137266      -1.22527587
C        0.33822906      -0.73965583      -0.60362457
C        0.75008541      -1.24294046       0.67179628
O       -1.41729843      -1.74366096       0.39658083
C       -1.39529846      -0.61646227      -0.27225590
C       -1.80367564       0.65580895       0.45191132
H        1.31974397       1.30476602       0.53811488
H        2.83040037       0.77660935      -0.25103779
H        1.87165244       2.08776985      -0.96388844
H        0.20844996      -1.53008035      -1.34115949
H        0.19676309      -1.14660833       1.58931143
H        1.80651164      -1.46761797       0.82205039
H       -1.83549638      -0.64809465      -1.28060815
H       -1.49698641       1.54263180      -0.10788683
H       -2.89105614       0.68291048       0.54706813
H       -1.37662012       0.70096518       1.45416654
17
Frame=4 idx=006653 GeodesicLength=0.3709463665690616 rxn_smarts="[C:1]([O:2][C@@:3]1([H:11])[C:4]([H:12])([H:13])[O:5][C@:6]1([C:7]([H:15])([H:16])[H:17])[H:14])([H:8])([H:9])[H:10]>>[C:1]([O:2][C:3](=[C:4]([H:12])[H:13])[H:11])([H:8])([H:9])[H:10].[O:5]=[C:6]([C:7]([H:15])([H:16])[H:17])[H:14]"
C        1.84586682       1.13972879      -0.42951536
O        1.06485670       0.27389721      -1.22314573
C        0.34675384      -0.72509342      -0.60588173
C        0.74768760      -1.23629858       0.66889166
O       -1.41130040      -1.74503580       0.40710419
C       -1.41145903      -0.61974762      -0.26629424
C       -1.83916687       0.64675244       0.45420749
H        1.37083817       1.31176137       0.54245033
H        2.85088468       0.73738862      -0.27643035
H        1.92644202       2.08682535      -0.96206368
H        0.22863570      -1.51061428      -1.35122825
H        0.21496555      -1.12249151       1.59717919
H        1.80104927      -1.47271967       0.82218807
H       -1.85187579      -0.66317960      -1.27421163
H       -1.53567326       1.53694916      -0.10187114
H       -2.92761824       0.66511444       0.53883031
H       -1.42088675       0.69676311       1.45979086
17
Frame=5 idx=006653 GeodesicLength=0.46350453506493194 rxn_smarts="[C:1]([O:2][C@@:3]1([H:11])[C:4]([H:12])([H:13])[O:5][C@:6]1([C:7]([H:15])([H:16])[H:17])[H:14])([H:8])([H:9])[H:10]>>[C:1]([O:2][C:3](=[C:4]([H:12])[H:13])[H:11])([H:8])([H:9])[H:10].[O:5]=[C:6]([C:7]([H:15])([H:16])[H:17])[H:14]"
C        1.87806411       1.13665390      -0.43453174
O        1.04994869       0.30832741      -1.21849088
C        0.35548690      -0.70922666      -0.60741097
C        0.74470406      -1.22865262       0.66674971
O       -1.40543979      -1.74624686       0.41712444
C       -1.42804479      -0.62307758      -0.26039853
C       -1.87595319       0.63685283       0.45669493
H        1.42657154       1.31758981       0.54706299
H        2.87113178       0.69747233      -0.30533273
H        1.98216364       2.08451842      -0.96145399
H        0.24987106      -1.48920595      -1.36102890
H        0.23259202      -1.09775034       1.60500171
H        1.79475030      -1.47715583       0.82330943
H       -1.86764642      -0.67811600      -1.26819883
H       -1.57555625       1.53080666      -0.09492837
H       -2.96535914       0.64602969       0.52996579
H       -1.46728452       0.69118078       1.46586594
17
Frame=6 idx=006653 GeodesicLength=0.5559534203924685 rxn_smarts="[C:1]([O:2][C@@:3]1([H:11])[C:4]([H:12])([H:13])[O:5][C@:6]1([C:7]([H:15])([H:16])[H:17])[H:14])([H:8])([H:9])[H:10]>>[C:1]([O:2][C:3](=[C:4]([H:12])[H:13])[H:11])([H:8])([H:9])[H:10].[O:5]=[C:6]([C:7]([H:15])([H:16])[H:17])[H:14]"
C        1.91169674       1.13299158      -0.44041703
O        1.03495061       0.34476831      -1.21093640
C        0.36444088      -0.69193404      -0.60809239
C        0.74109840      -1.21993281       0.66545761
O       -1.39974146      -1.74728422       0.42657879
C       -1.44506113      -0.62643495      -0.25459772
C       -1.91408833       0.62604721       0.45935977
H        1.48733852       1.32191219       0.55180197
H        2.89097810       0.65689765      -0.33800615
H        2.03873030       2.08079570      -0.96224029
H        0.27223772      -1.46564077      -1.37047171
H        0.24951695      -1.07240816       1.61287966
H        1.78757217      -1.48079973       0.82553714
H       -1.88272794      -0.69280528      -1.26264526
H       -1.61670686       1.52418106      -0.08699193
H       -3.00430049       0.62557827       0.52039450
H       -1.51593418       0.68406799       1.47238945
17
Frame=7 idx=006653 GeodesicLength=0.648250005617841 rxn_smarts="[C:1]([O:2][C@@:3]1([H:11])[C:4]([H:12])([H:13])[O:5][C@:6]1([C:7]([H:15])([H:16])[H:17])[H:14])([H:8])([H:9])[H:10]>>[C:1]([O:2][C:3](=[C:4]([H:12])[H:13])[H:11])([H:8])([H:9])[H:10].[O:5]=[C:6]([C:7]([H:15])([H:16])[H:17])[H:14]"
C        1.94676853       1.12866772      -0.44727778
O        1.02006215       0.38328117      -1.20006897
C        0.37363483      -0.67310955      -0.60779422
C        0.73683738      -1.21009554       0.66510781
O       -1.39423394      -1.74812570       0.43540931
C       -1.46250033      -0.62979202      -0.24892408
C       -1.95359496       0.61428779       0.46217343
H        1.55349902       1.32430522       0.55646871
H        2.91020374       0.61576229      -0.37470855
H        2.09595353       2.07563389      -0.96458687
H        0.29580981      -1.43970808      -1.37944943
H        0.26561964      -1.04650904       1.62093022
H        1.77948351      -1.48352448       0.82900219
H       -1.89702412      -0.70712640      -1.25763137
H       -1.65916516       1.51705737      -0.07801233
H       -3.04442676       0.60371516       0.51002103
H       -1.56692687       0.67528019       1.47934089
17
Frame=8 idx=006653 GeodesicLength=0.740338785827442 rxn_smarts="[C:1]([O:2][C@@:3]1([H:11])[C:4]([H:12])([H:13])[O:5][C@:6]1([C:7]([H:15])([H:16])[H:17])[H:14])([H:8])([H:9])[H:10]>>[C:1]([O:2][C:3](=[C:4]([H:12])[H:13])[H:11])([H:8])([H:9])[H:10].[O:5]=[C:6]([C:7]([H:15])([H:16])[H:17])[H:14]"
C        1.98322561       1.12361152      -0.45521589
O        1.00556022       0.42386295      -1.18545464
C        0.38309752      -0.65267489      -0.60637814
C        0.73189806      -1.19913094       0.66579340
O       -1.38895141      -1.74873509       0.44356899
C       -1.48034015      -0.63310928      -0.24341126
C       -1.99445624       0.60154881       0.46509271
H        1.62532521       1.32427298       0.56079618
H        2.92852653       0.57423778      -0.41565476
H        2.15354413       2.06904700      -0.96863456
H        0.32064785      -1.41121879      -1.38783772
H        0.28079374      -1.02012646       1.62928419
H        1.77047637      -1.48521070       0.83383202
H       -1.91042769      -0.72093488      -1.25323800
H       -1.70292938       1.50943215      -0.06796133
H       -3.08567893       0.58044094       0.49873922
H       -1.62031143       0.66468690       1.48667960
17
Frame=9 idx=006653 GeodesicLength=0.8320890312424506 rxn_smarts="[C:1]([O:2][C@@:3]1([H:11])[C:4]([H:12])([H:13])[O:5][C@:6]1([C:7]([H:15])([H:16])[H:17])[H:14])([H:8])([H:9])[H:10]>>[C:1]([O:2][C:3](=[C:4]([H:12])[H:13])[H:11])([H:8])([H:9])[H:10].[O:5]=[C:6]([C:7]([H:15])([H:16])[H:17])[H:14]"
C        2.02091211       1.11776954      -0.46430893
O        0.99179963       0.46641112      -1.16666680
C        0.39285969      -0.63060172      -0.60371263
C        0.72626480      -1.18707670       0.66757986
O       -1.38392384      -1.74905989       0.45103234
C       -1.49852892      -0.63634016      -0.23808580
C       -2.03656927       0.58783614       0.46805315
H        1.70290381       1.32128561       0.56441443
H        2.94553722       0.53258685      -0.46091963
H        2.21110635       2.06109101      -0.97445498
H        0.34677275      -1.38004024      -1.39548974
H        0.29496937      -0.99335350       1.63804930
H        1.76055305      -1.48575788       0.84011554
H       -1.92281659      -0.73407867      -1.24952032
H       -1.74790890       1.50131403      -0.05684961
H       -3.12789931       0.55581850       0.48644311
H       -1.67603194       0.65219595       1.49432074
17
Frame=10 idx=006653 GeodesicLength=0.9234333327212897 rxn_smarts="[C:1]([O:2][C@@:3]1([H:11])[C:4]([H:12])([H:13])[O:5][C@:6]1([C:7]([H:15])([H:16])[H:17])[H:14])([H:8])([H:9])[H:10]>>[C:1]([O:2][C:3](=[C:4]([H:12])[H:13])[H:11])([H:8])([H:9])[H:10].[O:5]=[C:6]([C:7]([H:15])([H:16])[H:17])[H:14]"
C        2.05960093       1.11110800      -0.47461114
O        0.97922523       0.51070067      -1.14332720
C        0.40297806      -0.60692991      -0.59967434
C        0.71995489      -1.17403198       0.67053638
O       -1.37920108      -1.74902706       0.45780173
C       -1.51700758      -0.63942075      -0.23297578
C       -2.07979069       0.57320310       0.47097293
H        1.78614677       1.31475036       0.56690381
H        2.96083424       0.49119512      -0.51052173
H        2.26809891       2.05190785      -0.98206396
H        0.37418463      -1.34612094      -1.40225058
H        0.30811448      -0.96634756       1.64735734
H        1.74978292      -1.48510134       0.84793466
H       -1.93408222      -0.74638038      -1.24653484
H       -1.79395595       1.49273591      -0.04472529
H       -3.17090001       0.53000112       0.47301554
H       -1.73398351       0.63775779       1.50216248
17
Frame=11 idx=006653 GeodesicLength=1.0142402524405938 rxn_smarts="[C:1]([O:2][C@@:3]1([H:11])[C:4]([H:12])([H:13])[O:5][C@:6]1([C:7]([H:15])([H:16])[H:17])[H:14])([H:8])([H:9])[H:10]>>[C:1]([O:2][C:3](=[C:4]([H:12])[H:13])[H:11])([H:8])([H:9])[H:10].[O:5]=[C:6]([C:7]([H:15])([H:16])[H:17])[H:14]"
C        2.09890622       1.10364845      -0.48611396
O        0.96837022       0.55629940      -1.11520185
C        0.41352492      -0.58182895      -0.59418629
C        0.71301188      -1.16020864       0.67468316
O       -1.37483714      -1.74855146       0.46393431
C       -1.53568080      -0.64228095      -0.22809454
C       -2.12384522       0.55778585       0.47374518
H        1.87457417       1.30410930       0.56777980
H        2.97394993       0.45061762      -0.56425641
H        2.32379989       2.04177016      -0.99133549
H        0.40281483      -1.30958508      -1.40796199
H        0.32027662      -0.93933419       1.65730254
H        1.73827402      -1.48326403       0.85730642
H       -1.94412292      -0.75767333      -1.24429608
H       -1.84077253       1.48377776      -0.03171719
H       -3.21435585       0.50328488       0.45835941
H       -1.79388823       0.62143320       1.51005296
17
Frame=12 idx=006653 GeodesicLength=1.1043965201644346 rxn_smarts="[C:1]([O:2][C@@:3]1([H:11])[C:4]([H:12])([H:13])[O:5][C@:6]1([C:7]([H:15])([H:16])[H:17])[H:14])([H:8])([H:9])[H:10]>>[C:1]([O:2][C:3](=[C:4]([H:12])[H:13])[H:11])([H:8])([H:9])[H:10].[O:5]=[C:6]([C:7]([H:15])([H:16])[H:17])[H:14]"
C        2.13832786       1.09548079      -0.49873623
O        0.95981486       0.60257890      -1.08228766
C        0.42459304      -0.55559612      -0.58724572
C        0.70551923      -1.14590953       0.67997427
O       -1.37089657      -1.74753914       0.46955053
C       -1.55443946      -0.64484989      -0.22343264
C       -2.16836282       0.54179379       0.47625856
H        1.96726612       1.28895783       0.56650707
H        2.98443032       0.41153622      -0.62161672
H        2.37743275       2.03104190      -1.00201851
H        0.43253940      -1.27075253      -1.41249051
H        0.33159460      -0.91259533       1.66792366
H        1.72618937      -1.48036877       0.86815256
H       -1.95288156      -0.76781777      -1.24276347
H       -1.88793844       1.47455635      -0.01801503
H       -3.25785878       0.47609409       0.44242548
H       -1.85532991       0.60338921       1.51781436
17
Frame=13 idx=006653 GeodesicLength=1.1937590761742978 rxn_smarts="[C:1]([O:2][C@@:3]1([H:11])[C:4]([H:12])([H:13])[O:5][C@:6]1([C:7]([H:15])([H:16])[H:17])[H:14])([H:8])([H:9])[H:10]>>[C:1]([O:2][C:3](=[C:4]([H:12])[H:13])[H:11])([H:8])([H:9])[H:10].[O:5]=[C:6]([C:7]([H:15])([H:16])[H:17])[H:14]"
C        2.17732746       1.08673890      -0.51231534
O        0.95403000       0.64884435      -1.04472774
C        0.43625037      -0.52857498      -0.57890241
C        0.69758325      -1.13141222       0.68629339
O       -1.36742041      -1.74588172       0.47478973
C       -1.57317632      -0.64708082      -0.21896629
C       -2.21291575       0.52543982       0.47839419
H        2.06310393       1.26912603       0.56252965
H        2.99177628       0.37459798      -0.68185584
H        2.42833464       2.02004590      -1.01373324
H        0.46317119      -1.23005120      -1.41571925
H        0.34229416      -0.88637159       1.67917015
H        1.71369986      -1.47654883       0.88029119
H       -1.96037291      -0.77675370      -1.24183621
H       -1.93495066       1.46515680      -0.00381551
H       -3.30094545       0.44887737       0.42517295
H       -1.91778964       0.58384789       1.52523057
17
Frame=14 idx=006653 GeodesicLength=1.282333336718692 rxn_smarts="[C:1]([O:2][C@@:3]1([H:11])[C:4]([H:12])([H:13])[O:5][C@:6]1([C:7]([H:15])([H:16])[H:17])[H:14])([H:8])([H:9])[H:10]>>[C:1]([O:2][C:3](=[C:4]([H:12])[H:13])[H:11])([H:8])([H:9])[H:10].[O:5]=[C:6]([C:7]([H:15])([H:16])[H:17])[H:14]"
C        2.21532190       1.07765974      -0.52663290
O        0.95149944       0.69417722      -1.00309134
C        0.44862731      -0.50131628      -0.56931766
C        0.68934653      -1.11718341       0.69349783
O       -1.36450084      -1.74352998       0.47989874
C       -1.59179796      -0.64893651      -0.21464388
C       -2.25704570       0.50907840       0.48005396
H        2.16049341       1.24463759       0.55546237
H        2.99586036       0.34064176      -0.74413705
H        2.47572840       2.00939518      -1.02596966
H        0.49452393      -1.18823112      -1.41761152
H        0.35265090      -0.86106010       1.69099962
H        1.70104283      -1.47215828       0.89351458
H       -1.96666659      -0.78446486      -1.24138776
H       -1.98124535       1.45579452       0.01057631
H       -3.34315773       0.42227567       0.40666551
H       -1.98068084       0.56322046       1.53212283
17
Frame=15 idx=006653 GeodesicLength=1.3700776173932427 rxn_smarts="[C:1]([O:2][C@@:3]1([H:11])[C:4]([H:12])([H:13])[O:5][C@:6]1([C:7]([H:15])([H:16])[H:17])[H:14])([H:8])([H:9])[H:10]>>[C:1]([O:2][C:3](=[C:4]([H:12])[H:13])[H:11])([H:8])([H:9])[H:10].[O:5]=[C:6]([C:7]([H:15])([H:16])[H:17])[H:14]"
C        2.25184125       1.06847638      -0.54142778
O        0.95248431       0.73775747      -0.95804452
C        0.46180159      -0.47430005      -0.55868075
C        0.68093096      -1.10353137       0.70137719
O       -1.36220243      -1.74040875       0.48511734
C       -1.61025071      -0.65041973      -0.21038723
C       -2.30034428       0.49297843       0.48115695
H        2.25795812       1.21575957       0.54498123
H        2.99660506       0.31031627      -0.80754501
H        2.51918519       1.99953444      -1.03813407
H        0.52638157      -1.14600546      -1.41813712
H        0.36296884      -0.83689474       1.70324672
H        1.68838466      -1.46747878       0.90751258
H       -1.97191059      -0.79104704      -1.24120850
H       -2.02629435       1.44657426       0.02490464
H       -3.38409046       0.39679992       0.38697809
H       -2.04344873       0.54188918       1.53829023
17
Frame=16 idx=006653 GeodesicLength=1.4570443048179056 rxn_smarts="[C:1]([O:2][C@@:3]1([H:11])[C:4]([H:12])([H:13])[O:5][C@:6]1([C:7]([H:15])([H:16])[H:17])[H:14])([H:8])([H:9])[H:10]>>[C:1]([O:2][C:3](=[C:4]([H:12])[H:13])[H:11])([H:8])([H:9])[H:10].[O:5]=[C:6]([C:7]([H:15])([H:16])[H:17])[H:14]"
C        2.28656176       1.05942987      -0.55644984
O        0.95706670       0.77889323      -0.91035927
C        0.47584264      -0.44798074      -0.54720770
C        0.67245528      -1.09071566       0.70974321
O       -1.36057073      -1.73650147       0.49068752
C       -1.62852453      -0.65157005      -0.20611874
C       -2.34251445       0.47739098       0.48165551
H        2.35417854       1.18295472       0.53090767
H        2.99411833       0.28412784      -0.87129613
H        2.55851541       1.99088890      -1.04964665
H        0.55857784      -1.10410605      -1.41733097
H        0.37354060      -0.81407025       1.71576873
H        1.67586700      -1.46283298       0.92200088
H       -1.97629945      -0.79667126      -1.24111063
H       -2.06968308       1.43761925       0.03895594
H       -3.42346476       0.37290501       0.36620041
H       -2.10566710       0.52023865       1.54360005
