12
Frame=0 idx=007883 GeodesicLength=0.0 rxn_smarts="[O:1]=[C:2]1[C@@:3]2([H:8])[N:4]([H:9])[C@:5]1([H:10])[C:6]([H:11])=[C:7]2[H:12]>>[O:1]=[C:2]1[C@@:3]([C:7](=[C:6])[H:12])([H:8])[N:4]([H:9])[C:5]1([H:10])[H:11]"
O        0.27301561      -1.41042487       1.96385257
C       -0.04082002      -0.82647707       0.98562300
C        0.30632134      -0.81641063      -0.53617051
N       -1.05317331      -0.30600737      -0.69413306
C       -1.01072366       0.26925533       0.57493371
C        0.85335621       1.45340332       0.17357702
C        1.23091013       0.40066349      -0.53197586
H        0.59979152      -1.69437004      -1.10337224
H       -1.27257194       0.27301321      -1.49677498
H       -1.86809521       0.69952310       1.08432568
H       -0.21736217       1.59600778       0.59427349
H        2.19935148       0.36182380      -1.01415878
12
Frame=1 idx=007883 GeodesicLength=0.07562111983267683 rxn_smarts="[O:1]=[C:2]1[C@@:3]2([H:8])[N:4]([H:9])[C@:5]1([H:10])[C:6]([H:11])=[C:7]2[H:12]>>[O:1]=[C:2]1[C@@:3]([C:7](=[C:6])[H:12])([H:8])[N:4]([H:9])[C:5]1([H:10])[H:11]"
O        0.26587870      -1.40942257       1.96757908
C       -0.04661862      -0.82777494       0.98765319
C        0.30814977      -0.81773739      -0.53256895
N       -1.05162944      -0.30596425      -0.69675935
C       -1.00793539       0.27759821       0.57455263
C        0.86098339       1.44531169       0.17564521
C        1.23744906       0.39425638      -0.53173341
H        0.60169379      -1.69898141      -1.09468313
H       -1.25871929       0.27732988      -1.49957408
H       -1.87524495       0.68799902       1.08361722
H       -0.22538720       1.60664660       0.60938031
H        2.19138020       0.37073880      -1.04310874
12
Frame=2 idx=007883 GeodesicLength=0.15123174301729433 rxn_smarts="[O:1]=[C:2]1[C@@:3]2([H:8])[N:4]([H:9])[C@:5]1([H:10])[C:6]([H:11])=[C:7]2[H:12]>>[O:1]=[C:2]1[C@@:3]([C:7](=[C:6])[H:12])([H:8])[N:4]([H:9])[C:5]1([H:10])[H:11]"
O        0.25859155      -1.40841366       1.97133435
C       -0.05248283      -0.82904884       0.98970024
C        0.31007959      -0.81912596      -0.52887545
N       -1.04988473      -0.30583998      -0.69945552
C       -1.00500880       0.28602222       0.57413838
C        0.86883259       1.43703223       0.17778210
C        1.24431606       0.38761051      -0.53134066
H        0.60361313      -1.70366245      -1.08587191
H       -1.24455985       0.28160376      -1.50235139
H       -1.88200780       0.67647445       1.08247239
H       -0.23362834       1.61734774       0.62482415
H        2.18213942       0.37999998      -1.07235667
12
Frame=3 idx=007883 GeodesicLength=0.22680721067824614 rxn_smarts="[O:1]=[C:2]1[C@@:3]2([H:8])[N:4]([H:9])[C@:5]1([H:10])[C:6]([H:11])=[C:7]2[H:12]>>[O:1]=[C:2]1[C@@:3]([C:7](=[C:6])[H:12])([H:8])[N:4]([H:9])[C:5]1([H:10])[H:11]"
O        0.25131020      -1.40735186       1.97506028
C       -0.05835598      -0.83028268       0.99171707
C        0.31208085      -0.82055156      -0.52516029
N       -1.04799390      -0.30564710      -0.70221402
C       -1.00193892       0.29451578       0.57370136
C        0.87687030       1.42858931       0.17990580
C        1.25144788       0.38077897      -0.53094711
H        0.60550556      -1.70837917      -1.07703318
H       -1.23021886       0.28581613      -1.50508682
H       -1.88834190       0.66497420       1.08094562
H       -0.24215982       1.62812474       0.64054885
H        2.17179458       0.38941323      -1.10143754
12
Frame=4 idx=007883 GeodesicLength=0.30232206612842627 rxn_smarts="[O:1]=[C:2]1[C@@:3]2([H:8])[N:4]([H:9])[C@:5]1([H:10])[C:6]([H:11])=[C:7]2[H:12]>>[O:1]=[C:2]1[C@@:3]([C:7](=[C:6])[H:12])([H:8])[N:4]([H:9])[C:5]1([H:10])[H:11]"
O        0.24419895      -1.40618902       1.97870810
C       -0.06418174      -0.83145864       0.99366163
C        0.31411593      -0.82198421      -0.52150474
N       -1.04603369      -0.30540269      -0.70502731
C       -0.99873495       0.30306405       0.57326126
C        0.88505780       1.42002232       0.18192843
C        1.25876928       0.37383241      -0.53071879
H        0.60732180      -1.71309059      -1.06828032
H       -1.21585491       0.28994304      -1.50776797
H       -1.89421912       0.65351938       1.07911945
H       -0.25106601       1.63898753       0.65649267
H        2.16062668       0.39875642      -1.12987242
12
Frame=5 idx=007883 GeodesicLength=0.37786446097521276 rxn_smarts="[O:1]=[C:2]1[C@@:3]2([H:8])[N:4]([H:9])[C@:5]1([H:10])[C:6]([H:11])=[C:7]2[H:12]>>[O:1]=[C:2]1[C@@:3]([C:7](=[C:6])[H:12])([H:8])[N:4]([H:9])[C:5]1([H:10])[H:11]"
O        0.23755892      -1.40479117       1.98205654
C       -0.06984411      -0.83250721       0.99539486
C        0.31607275      -0.82337450      -0.51800476
N       -1.04408426      -0.30510981      -0.70782332
C       -0.99535200       0.31167907       0.57280197
C        0.89323924       1.41141382       0.18356836
C        1.26599691       0.36687065      -0.53094297
H        0.60890330      -1.71774736      -1.05968893
H       -1.20168110       0.29396721      -1.51025463
H       -1.89960538       0.64199805       1.07698613
H       -0.26047027       1.65000190       0.67277641
H        2.14926601       0.40759934      -1.15686965
12
Frame=6 idx=007883 GeodesicLength=0.45318232545999443 rxn_smarts="[O:1]=[C:2]1[C@@:3]2([H:8])[N:4]([H:9])[C@:5]1([H:10])[C:6]([H:11])=[C:7]2[H:12]>>[O:1]=[C:2]1[C@@:3]([C:7](=[C:6])[H:12])([H:8])[N:4]([H:9])[C:5]1([H:10])[H:11]"
O        0.23114601      -1.40330620       1.98531728
C       -0.07543142      -0.83350859       0.99704791
C        0.31806397      -0.82475741      -0.51460447
N       -1.04209787      -0.30477808      -0.71067224
C       -0.99185318       0.32032503       0.57235718
C        0.90157393       1.40268629       0.18514565
C        1.27338025       0.35984493      -0.53140064
H        0.61042020      -1.72237592      -1.05125044
H       -1.18756423       0.29790625      -1.51269541
H       -1.90447701       0.63062718       1.07465550
H       -0.27039815       1.66108089       0.68914127
H        2.13723749       0.41625562      -1.18304159
12
Frame=7 idx=007883 GeodesicLength=0.5285725004747681 rxn_smarts="[O:1]=[C:2]1[C@@:3]2([H:8])[N:4]([H:9])[C@:5]1([H:10])[C:6]([H:11])=[C:7]2[H:12]>>[O:1]=[C:2]1[C@@:3]([C:7](=[C:6])[H:12])([H:8])[N:4]([H:9])[C:5]1([H:10])[H:11]"
O        0.22525652      -1.40162569       1.98834879
C       -0.08083332      -0.83440577       0.99852158
C        0.31997125      -0.82609092      -0.51140781
N       -1.04020029      -0.30441260      -0.71352372
C       -0.98822704       0.32900754       0.57193307
C        0.90992108       1.39390023       0.18637100
C        1.28066228       0.35282776      -0.53237839
H        0.61171391      -1.72692481      -1.04306091
H       -1.17377865       0.30174918      -1.51499763
H       -1.90883451       0.61926678       1.07213517
H       -0.28099535       1.67237678       0.70575179
H        2.12534411       0.42433152      -1.20769295
12
Frame=8 idx=007883 GeodesicLength=0.604171373286388 rxn_smarts="[O:1]=[C:2]1[C@@:3]2([H:8])[N:4]([H:9])[C@:5]1([H:10])[C:6]([H:11])=[C:7]2[H:12]>>[O:1]=[C:2]1[C@@:3]([C:7](=[C:6])[H:12])([H:8])[N:4]([H:9])[C:5]1([H:10])[H:11]"
O        0.21991288      -1.39969174       1.99114028
C       -0.08603850      -0.83514602       0.99982283
C        0.32178986      -0.82734877      -0.50843022
N       -1.03840310      -0.30398936      -0.71636712
C       -0.98447608       0.33774911       0.57154615
C        0.91833583       1.38511365       0.18722890
C        1.28784308       0.34586549      -0.53390089
H        0.61275797      -1.73138209      -1.03514766
H       -1.16032335       0.30551127      -1.51716300
H       -1.91276353       0.60789645       1.06948622
H       -0.29240937       1.68373460       0.72265049
H        2.11377431       0.43168742      -1.23086597
12
Frame=9 idx=007883 GeodesicLength=0.6797069671533943 rxn_smarts="[O:1]=[C:2]1[C@@:3]2([H:8])[N:4]([H:9])[C@:5]1([H:10])[C:6]([H:11])=[C:7]2[H:12]>>[O:1]=[C:2]1[C@@:3]([C:7](=[C:6])[H:12])([H:8])[N:4]([H:9])[C:5]1([H:10])[H:11]"
O        0.21502727      -1.39760361       1.99372649
C       -0.09107085      -0.83579278       1.00097300
C        0.32353292      -0.82856717      -0.50564297
N       -1.03668519      -0.30353679      -0.71920798
C       -0.98060741       0.34651918       0.57119897
C        0.92679150       1.37627147       0.18779407
C        1.29493098       0.33890533      -0.53588432
H        0.61359369      -1.73577266      -1.02748155
H       -1.14718051       0.30919281      -1.51919873
H       -1.91616278       0.59660482       1.06670187
H       -0.30464828       1.69529196       0.73976780
H        2.10247866       0.43848745      -1.25274665
12
Frame=10 idx=007883 GeodesicLength=0.7551541616161813 rxn_smarts="[O:1]=[C:2]1[C@@:3]2([H:8])[N:4]([H:9])[C@:5]1([H:10])[C:6]([H:11])=[C:7]2[H:12]>>[O:1]=[C:2]1[C@@:3]([C:7](=[C:6])[H:12])([H:8])[N:4]([H:9])[C:5]1([H:10])[H:11]"
O        0.21054753      -1.39536623       1.99612396
C       -0.09593882      -0.83633298       1.00199207
C        0.32521917      -0.82974753      -0.50302117
N       -1.03502637      -0.30303862      -0.72204309
C       -0.97661391       0.35533378       0.57088697
C        0.93532312       1.36737874       0.18808252
C        1.30194747       0.33194217      -0.53829253
H        0.61424173      -1.74010809      -1.02002190
H       -1.13429158       0.31280624      -1.52111635
H       -1.91907375       0.58543006       1.06376810
H       -0.31777656       1.70694881       0.75718350
H        2.09144197       0.44475366      -1.27354207
12
Frame=11 idx=007883 GeodesicLength=0.8305553072402183 rxn_smarts="[O:1]=[C:2]1[C@@:3]2([H:8])[N:4]([H:9])[C@:5]1([H:10])[C:6]([H:11])=[C:7]2[H:12]>>[O:1]=[C:2]1[C@@:3]([C:7](=[C:6])[H:12])([H:8])[N:4]([H:9])[C:5]1([H:10])[H:11]"
O        0.20644567      -1.39297131       1.99835796
C       -0.10065167      -0.83676848       1.00289091
C        0.32685158      -0.83090464      -0.50055061
N       -1.03341242      -0.30249157      -0.72487934
C       -0.97248769       0.36419939       0.57060761
C        0.94396260       1.35840906       0.18810967
C        1.30890359       0.32494400      -0.54110401
H        0.61470036      -1.74441084      -1.01274230
H       -1.12162227       0.31636419      -1.52292309
H       -1.92150717       0.57437633       1.06065195
H       -0.33185810       1.71872055       0.77498689
H        2.08067551       0.45053331      -1.29340565
12
Frame=12 idx=007883 GeodesicLength=0.9059456975004923 rxn_smarts="[O:1]=[C:2]1[C@@:3]2([H:8])[N:4]([H:9])[C@:5]1([H:10])[C:6]([H:11])=[C:7]2[H:12]>>[O:1]=[C:2]1[C@@:3]([C:7](=[C:6])[H:12])([H:8])[N:4]([H:9])[C:5]1([H:10])[H:11]"
O        0.20265281      -1.39043780       2.00046710
C       -0.10522609      -0.83710706       1.00369735
C        0.32845730      -0.83205560      -0.49820010
N       -1.03180192      -0.30187715      -0.72772704
C       -0.96821027       0.37313079       0.57035580
C        0.95278764       1.34931508       0.18794800
C        1.31585759       0.31787064      -0.54426435
H        0.61499180      -1.74870742      -1.00559868
H       -1.10908356       0.31989798      -1.52464008
H       -1.92346272       0.56346084       1.05733594
H       -0.34698370       1.73059906       0.79319564
H        2.07002111       0.45591064      -1.31256958
12
Frame=13 idx=007883 GeodesicLength=0.9813203322931527 rxn_smarts="[O:1]=[C:2]1[C@@:3]2([H:8])[N:4]([H:9])[C@:5]1([H:10])[C:6]([H:11])=[C:7]2[H:12]>>[O:1]=[C:2]1[C@@:3]([C:7](=[C:6])[H:12])([H:8])[N:4]([H:9])[C:5]1([H:10])[H:11]"
O        0.19917206      -1.38774324       2.00244369
C       -0.10965048      -0.83732831       1.00440656
C        0.33003114      -0.83320230      -0.49596961
N       -1.03018801      -0.30118880      -0.73058155
C       -0.96376374       0.38214327       0.57012896
C        0.96179756       1.34010514       0.18755234
C        1.32279318       0.31071096      -0.54778635
H        0.61510138      -1.75300804      -0.99857914
H       -1.09666396       0.32340991      -1.52626194
H       -1.92494724       0.55269635       1.05379417
H       -0.36324022       1.74255195       0.81193544
H        2.05955833       0.46085310      -1.33108258
12
Frame=14 idx=007883 GeodesicLength=1.0566731103671498 rxn_smarts="[O:1]=[C:2]1[C@@:3]2([H:8])[N:4]([H:9])[C@:5]1([H:10])[C:6]([H:11])=[C:7]2[H:12]>>[O:1]=[C:2]1[C@@:3]([C:7](=[C:6])[H:12])([H:8])[N:4]([H:9])[C:5]1([H:10])[H:11]"
O        0.19598936      -1.38489777       2.00429312
C       -0.11392608      -0.83744001       1.00502647
C        0.33157959      -0.83435362      -0.49384982
N       -1.02855034      -0.30041068      -0.73344067
C       -0.95912322       0.39124683       0.56993076
C        0.97106041       1.33073400       0.18698116
C        1.32974255       0.30343391      -0.55164295
H        0.61501698      -1.75732030      -0.99168240
H       -1.08432683       0.32692868      -1.52778365
H       -1.92591973       0.54209287       1.05004976
H       -0.38077265       1.75459808       0.83113798
H        2.04922996       0.46538800      -1.34901974
12
Frame=15 idx=007883 GeodesicLength=1.132073685656991 rxn_smarts="[O:1]=[C:2]1[C@@:3]2([H:8])[N:4]([H:9])[C@:5]1([H:10])[C:6]([H:11])=[C:7]2[H:12]>>[O:1]=[C:2]1[C@@:3]([C:7](=[C:6])[H:12])([H:8])[N:4]([H:9])[C:5]1([H:10])[H:11]"
O        0.19311204      -1.38189183       2.00605878
C       -0.11804489      -0.83742959       1.00557966
C        0.33311225      -0.83551340      -0.49184661
N       -1.02689776      -0.29952163      -0.73631568
C       -0.95428763       0.40046383       0.56977050
C        0.98061446       1.32119452       0.18620501
C        1.33673665       0.29601791      -0.55585412
H        0.61474322      -1.76165745      -0.98491200
H       -1.07207316       0.33047694      -1.52923569
H       -1.92642300       0.53167179       1.04610615
H       -0.39970939       1.76670261       0.85091990
H        2.03911722       0.46948630      -1.36647590
12
Frame=16 idx=007883 GeodesicLength=1.207409579433204 rxn_smarts="[O:1]=[C:2]1[C@@:3]2([H:8])[N:4]([H:9])[C@:5]1([H:10])[C:6]([H:11])=[C:7]2[H:12]>>[O:1]=[C:2]1[C@@:3]([C:7](=[C:6])[H:12])([H:8])[N:4]([H:9])[C:5]1([H:10])[H:11]"
O        0.19054219      -1.37870137       2.00768425
C       -0.12199399      -0.83728090       1.00603923
C        0.33461363      -0.83668398      -0.48994386
N       -1.02519023      -0.29850656      -0.73918017
C       -0.94920056       0.40981596       0.56962903
C        0.99046089       1.31147993       0.18518295
C        1.34373729       0.28844557      -0.56042150
H        0.61423505      -1.76603169      -0.97821874
H       -1.05985047       0.33406882      -1.53057233
H       -1.92638630       0.52143509       1.04190193
H       -0.42016777       1.77882545       0.87135836
H        2.02920026       0.47313367      -1.38345914
