9
Frame=0 idx=004143 GeodesicLength=0.0 rxn_smarts="[n:1]1([H:6])[c:2]([H:7])[c:3]([H:8])[n:4][c:5]1[H:9]>>[N+:1]1([H:6])([H:7])[C-:2]=[C:3]([H:8])[N:4]=[C:5]1[H:9]"
N       -0.48815789       0.79228983       0.13197194
C        1.02933921       0.71813462       0.34464754
C        1.16330182      -0.62147956       0.06689037
N       -0.00221011      -1.33882601      -0.13145312
C       -0.97034583      -0.49304375      -0.08523043
H       -1.02634400       1.54340951       0.53952030
H        0.20593461       1.24654182      -0.66627458
H        2.10819035      -1.14314623       0.03146727
H       -2.01970815      -0.70388020      -0.23153925
9
Frame=1 idx=004143 GeodesicLength=0.04794304135976867 rxn_smarts="[n:1]1([H:6])[c:2]([H:7])[c:3]([H:8])[n:4][c:5]1[H:9]>>[N+:1]1([H:6])([H:7])[C-:2]=[C:3]([H:8])[N:4]=[C:5]1[H:9]"
N       -0.48781953       0.79231200       0.12650039
C        1.02346273       0.71551467       0.34110475
C        1.16265020      -0.62378922       0.07073409
N       -0.00409848      -1.34231470      -0.12322313
C       -0.97037935      -0.49427025      -0.09071750
H       -1.02641797       1.53700608       0.54509498
H        0.21493847       1.26516481      -0.67123758
H        2.10836941      -1.14335245       0.03002197
H       -2.02070548      -0.70627096      -0.22827798
9
Frame=2 idx=004143 GeodesicLength=0.09588452882553118 rxn_smarts="[n:1]1([H:6])[c:2]([H:7])[c:3]([H:8])[n:4][c:5]1[H:9]>>[N+:1]1([H:6])([H:7])[C-:2]=[C:3]([H:8])[N:4]=[C:5]1[H:9]"
N       -0.48754132       0.79226106       0.12099365
C        1.01760979       0.71291129       0.33721631
C        1.16196170      -0.62611063       0.07462240
N       -0.00607620      -1.34583836      -0.11447889
C       -0.97041246      -0.49563264      -0.09611940
H       -1.02649460       1.53045386       0.55047295
H        0.22411744       1.28420008      -0.67577711
H        2.10846132      -1.14357969       0.02832390
H       -2.02162568      -0.70866497      -0.22525380
9
Frame=3 idx=004143 GeodesicLength=0.1438239885347527 rxn_smarts="[n:1]1([H:6])[c:2]([H:7])[c:3]([H:8])[n:4][c:5]1[H:9]>>[N+:1]1([H:6])([H:7])[C-:2]=[C:3]([H:8])[N:4]=[C:5]1[H:9]"
N       -0.48732504       0.79213083       0.11547863
C        1.01179618       0.71033462       0.33291045
C        1.16124526      -0.62843700       0.07852560
N       -0.00813303      -1.34938068      -0.10524350
C       -0.97044952      -0.49715347      -0.10130410
H       -1.02655143       1.52376994       0.55567929
H        0.23342060       1.30364039      -0.67989734
H        2.10845609      -1.14384903       0.02642306
H       -2.02245911      -0.71105560      -0.22257209
9
Frame=4 idx=004143 GeodesicLength=0.1917837195225605 rxn_smarts="[n:1]1([H:6])[c:2]([H:7])[c:3]([H:8])[n:4][c:5]1[H:9]>>[N+:1]1([H:6])([H:7])[C-:2]=[C:3]([H:8])[N:4]=[C:5]1[H:9]"
N       -0.48717257       0.79191541       0.10997759
C        1.00603182       0.70779198       0.32812756
C        1.16050757      -0.63076321       0.08242759
N       -0.01026018      -1.35292360      -0.09557464
C       -0.97049603      -0.49885182      -0.10615741
H       -1.02656925       1.51697411       0.56073103
H        0.24281463       1.32347927      -0.68360620
H        2.10835176      -1.14417753       0.02437411
H       -2.02320775      -0.71344460      -0.22029964
9
Frame=5 idx=004143 GeodesicLength=0.23973115804285336 rxn_smarts="[n:1]1([H:6])[c:2]([H:7])[c:3]([H:8])[n:4][c:5]1[H:9]>>[N+:1]1([H:6])([H:7])[C-:2]=[C:3]([H:8])[N:4]=[C:5]1[H:9]"
N       -0.48709120       0.79160786       0.10450658
C        1.00033268       0.70529333       0.32282126
C        1.15975464      -0.63308630       0.08632088
N       -0.01243441      -1.35644956      -0.08553038
C       -0.97056241      -0.50074142      -0.11060822
H       -1.02652600       1.51009300       0.56563205
H        0.25226432       1.34371058      -0.68689640
H        2.10813732      -1.14458627       0.02222441
H       -2.02387493      -0.71584122      -0.21847018
9
Frame=6 idx=004143 GeodesicLength=0.2876793786354986 rxn_smarts="[n:1]1([H:6])[c:2]([H:7])[c:3]([H:8])[n:4][c:5]1[H:9]>>[N+:1]1([H:6])([H:7])[C-:2]=[C:3]([H:8])[N:4]=[C:5]1[H:9]"
N       -0.48708488       0.79120847       0.09907314
C        0.99472159       0.70285401       0.31696020
C        1.15899463      -0.63540184       0.09019730
N       -0.01464638      -1.35995044      -0.07524899
C       -0.97066920      -0.50283509      -0.11462337
H       -1.02640894       1.50315389       0.57037793
H        0.26177077       1.36433901      -0.68976716
H        2.10781792      -1.14508957       0.02006400
H       -2.02449552      -0.71827844      -0.21703306
9
Frame=7 idx=004143 GeodesicLength=0.3355573954667154 rxn_smarts="[n:1]1([H:6])[c:2]([H:7])[c:3]([H:8])[n:4][c:5]1[H:9]>>[N+:1]1([H:6])([H:7])[C-:2]=[C:3]([H:8])[N:4]=[C:5]1[H:9]"
N       -0.48712547       0.79073873       0.09353070
C        0.98907826       0.70035748       0.31050329
C        1.15820636      -0.63771318       0.09401282
N       -0.01689885      -1.36343084      -0.06484024
C       -0.97078876      -0.50510793      -0.11800838
H       -1.02618961       1.49612003       0.57493990
H        0.27134591       1.38544069      -0.69214815
H        2.10742357      -1.14565719       0.01797299
H       -2.02505142      -0.72074780      -0.21596294
9
Frame=8 idx=004143 GeodesicLength=0.38342598507948383 rxn_smarts="[n:1]1([H:6])[c:2]([H:7])[c:3]([H:8])[n:4][c:5]1[H:9]>>[N+:1]1([H:6])([H:7])[C-:2]=[C:3]([H:8])[N:4]=[C:5]1[H:9]"
N       -0.48726576       0.79016109       0.08802031
C        0.98355880       0.69795564       0.30346920
C        1.15741907      -0.64000520       0.09781259
N       -0.01914446      -1.36684762      -0.05440590
C       -0.97096678      -0.50758041      -0.12121254
H       -1.02588739       1.48906576       0.57932412
H        0.28102382       1.40695404      -0.69406497
H        2.10689455      -1.14635969       0.01603327
H       -2.02563184      -0.72334362      -0.21497608
9
Frame=9 idx=004143 GeodesicLength=0.4311698626219548 rxn_smarts="[n:1]1([H:6])[c:2]([H:7])[c:3]([H:8])[n:4][c:5]1[H:9]>>[N+:1]1([H:6])([H:7])[C-:2]=[C:3]([H:8])[N:4]=[C:5]1[H:9]"
N       -0.48747161       0.78951771       0.08233714
C        0.97799942       0.69549675       0.29584048
C        1.15660242      -0.64228885       0.10153836
N       -0.02141238      -1.37023485      -0.04386071
C       -0.97116619      -0.51021766      -0.12386618
H       -1.02550254       1.48191213       0.58346854
H        0.29083044       1.42896794      -0.69540303
H        2.10629495      -1.14714843       0.01417213
H       -2.02617451      -0.72600475      -0.21422672
9
Frame=10 idx=004143 GeodesicLength=0.4789004347296658 rxn_smarts="[n:1]1([H:6])[c:2]([H:7])[c:3]([H:8])[n:4][c:5]1[H:9]>>[N+:1]1([H:6])([H:7])[C-:2]=[C:3]([H:8])[N:4]=[C:5]1[H:9]"
N       -0.48776450       0.78877625       0.07656691
C        0.97250127       0.69304443       0.28759197
C        1.15577527      -0.64456027       0.10525117
N       -0.02368565      -1.37358884      -0.03329448
C       -0.97142632      -0.51304141      -0.12622024
H       -1.02500853       1.47472204       0.58738937
H        0.30075953       1.45148767      -0.69618829
H        2.10559427      -1.14803906       0.01246164
H       -2.02674532      -0.72880081      -0.21355805
9
Frame=11 idx=004143 GeodesicLength=0.5266514114779223 rxn_smarts="[n:1]1([H:6])[c:2]([H:7])[c:3]([H:8])[n:4][c:5]1[H:9]>>[N+:1]1([H:6])([H:7])[C-:2]=[C:3]([H:8])[N:4]=[C:5]1[H:9]"
N       -0.48815056       0.78794051       0.07065620
C        0.96702084       0.69058323       0.27867029
C        1.15492547      -0.64681756       0.10894574
N       -0.02597065      -1.37690783      -0.02266487
C       -0.97173116      -0.51604172      -0.12832743
H       -1.02441244       1.46746929       0.59108328
H        0.31086244       1.47455427      -0.69635466
H        2.10479196      -1.14903635       0.01090509
H       -2.02733589      -0.73174383      -0.21291364
9
Frame=12 idx=004143 GeodesicLength=0.5744010824036001 rxn_smarts="[n:1]1([H:6])[c:2]([H:7])[c:3]([H:8])[n:4][c:5]1[H:9]>>[N+:1]1([H:6])([H:7])[C-:2]=[C:3]([H:8])[N:4]=[C:5]1[H:9]"
N       -0.48863526       0.78701036       0.06456452
C        0.96155373       0.68810200       0.26906718
C        1.15404941      -0.64906041       0.11266289
N       -0.02826805      -1.38019571      -0.01189615
C       -0.97208536      -0.51922088      -0.13019693
H       -1.02371509       1.46015840       0.59451030
H        0.32116507       1.49819344      -0.69583603
H        2.10388624      -1.15013624       0.00942336
H       -2.02795070      -0.73485096      -0.21229913
9
Frame=13 idx=004143 GeodesicLength=0.6221647806826875 rxn_smarts="[n:1]1([H:6])[c:2]([H:7])[c:3]([H:8])[n:4][c:5]1[H:9]>>[N+:1]1([H:6])([H:7])[C-:2]=[C:3]([H:8])[N:4]=[C:5]1[H:9]"
N       -0.48922032       0.78597511       0.05827384
C        0.95609706       0.68559819       0.25870347
C        1.15314609      -0.65127930       0.11638330
N       -0.03059248      -1.38343297      -0.00087688
C       -0.97248213      -0.52258868      -0.13185380
H       -1.02289745       1.45277839       0.59768912
H        0.33166533       1.52243882      -0.69457338
H        2.10286537      -1.15135288       0.00800965
H       -2.02858148      -0.73813667      -0.21175533
9
Frame=14 idx=004143 GeodesicLength=0.6698866060983073 rxn_smarts="[n:1]1([H:6])[c:2]([H:7])[c:3]([H:8])[n:4][c:5]1[H:9]>>[N+:1]1([H:6])([H:7])[C-:2]=[C:3]([H:8])[N:4]=[C:5]1[H:9]"
N       -0.48991590       0.78484046       0.05172784
C        0.95063704       0.68304421       0.24751935
C        1.15221394      -0.65346658       0.12009525
N       -0.03292085      -1.38663637       0.01023429
C       -0.97294335      -0.52613208      -0.13327152
H       -1.02193665       1.44532522       0.60058541
H        0.34237736       1.54729455      -0.69249816
H        2.10174309      -1.15266631       0.00677584
H       -2.02925468      -0.74160310      -0.21116830
9
Frame=15 idx=004143 GeodesicLength=0.7176091674149545 rxn_smarts="[n:1]1([H:6])[c:2]([H:7])[c:3]([H:8])[n:4][c:5]1[H:9]>>[N+:1]1([H:6])([H:7])[C-:2]=[C:3]([H:8])[N:4]=[C:5]1[H:9]"
N       -0.49073025       0.78360071       0.04489940
C        0.94517174       0.68044097       0.23541065
C        1.15125104      -0.65561872       0.12378760
N       -0.03525677      -1.38979696       0.02148126
C       -0.97346596      -0.52986398      -0.13451741
H       -1.02081895       1.43779839       0.60321070
H        0.35330815       1.57281593      -0.68953449
H        2.10051510      -1.15410237       0.00576336
H       -2.02997411      -0.74527397      -0.21050107
9
Frame=16 idx=004143 GeodesicLength=0.7653230707742398 rxn_smarts="[n:1]1([H:6])[c:2]([H:7])[c:3]([H:8])[n:4][c:5]1[H:9]>>[N+:1]1([H:6])([H:7])[C-:2]=[C:3]([H:8])[N:4]=[C:5]1[H:9]"
N       -0.49167056       0.78224443       0.03773796
C        0.93969139       0.67776833       0.22227367
C        1.15025214      -0.65771697       0.12744030
N       -0.03761199      -1.39289260       0.03292129
C       -0.97405112      -0.53378576      -0.13563116
H       -1.01952462       1.43016980       0.60554524
H        0.36448099       1.59903267      -0.68556728
H        2.09917948      -1.15565868       0.00499766
H       -2.03074573      -0.74916121      -0.20971768
