17
Frame=0 idx=006450 GeodesicLength=0.0 rxn_smarts="[C:1]([O:2][C:3]([C@@:4]([C:5]([H:14])([H:15])[H:16])([C:6](=[O:7])[H:17])[H:13])([H:11])[H:12])([H:8])([H:9])[H:10]>>[C:1]([O:2][C:3]([C:6]([C:4]([C:5]([H:14])([H:15])[H:16])([H:13])[H:17])=[O:7])([H:11])[H:12])([H:8])([H:9])[H:10]"
C        2.62525979       0.03541665       0.18533565
O        1.53439041      -0.85645279       0.14310107
C        0.48616289      -0.51293790       0.97569449
C       -1.03335471       0.00081258      -0.84249286
C       -2.46206640      -0.13895226      -1.07479552
C       -0.59084319       0.59600166       0.37714128
O       -1.39811585       0.99312263       1.28543081
H        2.32550986       1.05308662      -0.09349973
H        3.36301564      -0.32283554      -0.53017726
H        3.07335021       0.06220148       1.18400493
H        0.80570851      -0.01377605       1.89266023
H       -0.08904232      -1.40283819       1.22037153
H       -0.28766177      -0.37503919      -1.53644618
H       -2.92825361       0.84717489      -0.94337631
H       -2.74222298      -0.60195997      -2.01666934
H       -2.86769515      -0.69460983      -0.21519700
H        0.18585871       1.33158519      -0.01108575
17
Frame=1 idx=006450 GeodesicLength=0.12086967042792765 rxn_smarts="[C:1]([O:2][C:3]([C@@:4]([C:5]([H:14])([H:15])[H:16])([C:6](=[O:7])[H:17])[H:13])([H:11])[H:12])([H:8])([H:9])[H:10]>>[C:1]([O:2][C:3]([C:6]([C:4]([C:5]([H:14])([H:15])[H:16])([H:13])[H:17])=[O:7])([H:11])[H:12])([H:8])([H:9])[H:10]"
C        2.64807745       0.02974176       0.20905764
O        1.52931580      -0.81825487       0.09249742
C        0.48267513      -0.50613001       0.94019199
C       -1.03947259       0.00834611      -0.83395278
C       -2.47112845      -0.15529932      -1.05370634
C       -0.60502263       0.62663632       0.37916581
O       -1.40480185       1.02894190       1.28310889
H        2.38318620       1.07555526       0.01031334
H        3.37849772      -0.29497052      -0.52970209
H        3.09009128      -0.04027012       1.20857634
H        0.79605148      -0.02890382       1.87171863
H       -0.06841178      -1.41235199       1.18339917
H       -0.30628135      -0.35016977      -1.54992342
H       -2.94399709       0.83351715      -0.98753247
H       -2.74441267      -0.68005042      -1.96504077
H       -2.88623161      -0.66523979      -0.17164256
H        0.16186496       1.34890215      -0.08652881
17
Frame=2 idx=006450 GeodesicLength=0.24070903454957432 rxn_smarts="[C:1]([O:2][C:3]([C@@:4]([C:5]([H:14])([H:15])[H:16])([C:6](=[O:7])[H:17])[H:13])([H:11])[H:12])([H:8])([H:9])[H:10]>>[C:1]([O:2][C:3]([C:6]([C:4]([C:5]([H:14])([H:15])[H:16])([H:13])[H:17])=[O:7])([H:11])[H:12])([H:8])([H:9])[H:10]"
C        2.66919003       0.02307256       0.23195177
O        1.52567708      -0.77613533       0.04426026
C        0.47944871      -0.49829185       0.90529014
C       -1.04425712       0.01678903      -0.82529229
C       -2.47842148      -0.17079349      -1.03229279
C       -0.61799999       0.65824191       0.38111808
O       -1.41167467       1.06417107       1.28051400
H        2.43757496       1.08901323       0.11491599
H        3.39428814      -0.26529428      -0.52692018
H        3.10156053      -0.14217673       1.22469835
H        0.78600847      -0.04344497       1.85103710
H       -0.04597864      -1.42139599       1.14473151
H       -0.32480627      -0.32661896      -1.56223794
H       -2.95841285       0.81614003      -1.03272405
H       -2.74295613      -0.75587659      -1.90914514
H       -2.90400945      -0.63374200      -0.13055098
H        0.13476869       1.36634238      -0.15935381
17
Frame=3 idx=006450 GeodesicLength=0.35984246782506063 rxn_smarts="[C:1]([O:2][C:3]([C@@:4]([C:5]([H:14])([H:15])[H:16])([C:6](=[O:7])[H:17])[H:13])([H:11])[H:12])([H:8])([H:9])[H:10]>>[C:1]([O:2][C:3]([C:6]([C:4]([C:5]([H:14])([H:15])[H:16])([H:13])[H:17])=[O:7])([H:11])[H:12])([H:8])([H:9])[H:10]"
C        2.68892575       0.01506291       0.25400880
O        1.52321573      -0.72978715      -0.00160813
C        0.47647678      -0.48903961       0.87104462
C       -1.04790891       0.02625107      -0.81656365
C       -2.48410249      -0.18567430      -1.01067235
C       -0.63029802       0.69078829       0.38308982
O       -1.41927177       1.09869950       1.27779211
H        2.48976236       1.09347906       0.21997859
H        3.41051871      -0.23477460      -0.52176882
H        3.10833669      -0.24377904       1.23246026
H        0.77563728      -0.05672959       1.83049571
H       -0.02157219      -1.42948042       1.10465298
H       -0.34308516      -0.30391938      -1.57344974
H       -2.97176357       0.79448944      -1.07871503
H       -2.73782832      -0.82933216      -1.84919354
H       -2.92118045      -0.60079272      -0.09226492
H        0.10413757       1.38453868      -0.22928671
17
Frame=4 idx=006450 GeodesicLength=0.4784383085538533 rxn_smarts="[C:1]([O:2][C:3]([C@@:4]([C:5]([H:14])([H:15])[H:16])([C:6](=[O:7])[H:17])[H:13])([H:11])[H:12])([H:8])([H:9])[H:10]>>[C:1]([O:2][C:3]([C:6]([C:4]([C:5]([H:14])([H:15])[H:16])([H:13])[H:17])=[O:7])([H:11])[H:12])([H:8])([H:9])[H:10]"
C        2.70751832       0.00543571       0.27526966
O        1.52177684      -0.67867193      -0.04504269
C        0.47381183      -0.47795287       0.83745151
C       -1.05063971       0.03674092      -0.80782940
C       -2.48830010      -0.20021574      -0.98891296
C       -0.64232307       0.72430505       0.38503414
O       -1.42792063       1.13263528       1.27489862
H        2.54056761       1.08875569       0.32601853
H        3.42715685      -0.20392813      -0.51424600
H        3.11089553      -0.34575625       1.23167550
H        0.76501619      -0.06812278       1.80998248
H        0.00502843      -1.43599618       1.06334484
H       -0.36108683      -0.28185893      -1.58357545
H       -2.98423328       0.76795692      -1.12526139
H       -2.72900962      -0.90034501      -1.78533832
H       -2.93785056      -0.56689862      -0.05696147
H        0.06959220       1.40391687      -0.29650759
17
Frame=5 idx=006450 GeodesicLength=0.5966414504407843 rxn_smarts="[C:1]([O:2][C:3]([C@@:4]([C:5]([H:14])([H:15])[H:16])([C:6](=[O:7])[H:17])[H:13])([H:11])[H:12])([H:8])([H:9])[H:10]>>[C:1]([O:2][C:3]([C:6]([C:4]([C:5]([H:14])([H:15])[H:16])([H:13])[H:17])=[O:7])([H:11])[H:12])([H:8])([H:9])[H:10]"
C        2.72507432      -0.00607614       0.29561783
O        1.52128232      -0.62230672      -0.08572197
C        0.47145177      -0.46470760       0.80466110
C       -1.05251907       0.04825552      -0.79907037
C       -2.49101604      -0.21459845      -0.96709916
C       -0.65446838       0.75882510       0.38702175
O       -1.43802003       1.16605585       1.27187643
H        2.59055424       1.07433981       0.43305463
H        3.44419735      -0.17317356      -0.50447936
H        3.10929196      -0.44829895       1.22192375
H        0.75412377      -0.07711257       1.78959095
H        0.03395284      -1.44046104       1.02104112
H       -0.37856216      -0.26025915      -1.59254117
H       -2.99570850       0.73614308      -1.17221431
H       -2.71631620      -0.96884904      -1.71771423
H       -2.95418148      -0.53251457      -0.02485965
H        0.03086328       1.42473842      -0.36108735
17
Frame=6 idx=006450 GeodesicLength=0.7144249141686916 rxn_smarts="[C:1]([O:2][C:3]([C@@:4]([C:5]([H:14])([H:15])[H:16])([C:6](=[O:7])[H:17])[H:13])([H:11])[H:12])([H:8])([H:9])[H:10]>>[C:1]([O:2][C:3]([C:6]([C:4]([C:5]([H:14])([H:15])[H:16])([H:13])[H:17])=[O:7])([H:11])[H:12])([H:8])([H:9])[H:10]"
C        2.74149712      -0.01972868       0.31481664
O        1.52158550      -0.56031050      -0.12303502
C        0.46937709      -0.44897175       0.77297364
C       -1.05352779       0.06088853      -0.79024538
C       -2.49209114      -0.22903062      -0.94538155
C       -0.66705903       0.79443772       0.38916768
O       -1.44994705       1.19907070       1.26871977
H        2.63988300       1.04940917       0.54089517
H        3.46129372      -0.14298695      -0.49265600
H        3.10360921      -0.55138119       1.20246375
H        0.74303311      -0.08316063       1.76954520
H        0.06516824      -1.44222811       0.97818859
H       -0.39517306      -0.23886089      -1.60016641
H       -3.00599509       0.69851075      -1.21933068
H       -2.69935361      -1.03461813      -1.64666828
H       -2.97009117      -0.49821216       0.00371296
H       -0.01220905       1.44717274      -0.42300008
17
Frame=7 idx=006450 GeodesicLength=0.831882164606059 rxn_smarts="[C:1]([O:2][C:3]([C@@:4]([C:5]([H:14])([H:15])[H:16])([C:6](=[O:7])[H:17])[H:13])([H:11])[H:12])([H:8])([H:9])[H:10]>>[C:1]([O:2][C:3]([C:6]([C:4]([C:5]([H:14])([H:15])[H:16])([H:13])[H:17])=[O:7])([H:11])[H:12])([H:8])([H:9])[H:10]"
C        2.75659650      -0.03567884       0.33243778
O        1.52261470      -0.49254864      -0.15615425
C        0.46751627      -0.43059808       0.74286030
C       -1.05351855       0.07463808      -0.78122779
C       -2.49128349      -0.24358551      -0.92394836
C       -0.68042450       0.83116248       0.39171075
O       -1.46415809       1.23171324       1.26554520
H        2.68846498       1.01319594       0.64871727
H        3.47818629      -0.11372859      -0.47918801
H        3.09360766      -0.65443538       1.17254451
H        0.73169657      -0.08589647       1.75028965
H        0.09854549      -1.44090326       0.93540638
H       -0.41035284      -0.21754900      -1.60621518
H       -3.01447967       0.65488319      -1.26656282
H       -2.67768822      -1.09744525      -1.57251110
H       -2.98568191      -0.46438965       0.02839874
H       -0.05964117       1.47116573      -0.48210310
17
Frame=8 idx=006450 GeodesicLength=0.9489216372877363 rxn_smarts="[C:1]([O:2][C:3]([C@@:4]([C:5]([H:14])([H:15])[H:16])([C:6](=[O:7])[H:17])[H:13])([H:11])[H:12])([H:8])([H:9])[H:10]>>[C:1]([O:2][C:3]([C:6]([C:4]([C:5]([H:14])([H:15])[H:16])([H:13])[H:17])=[O:7])([H:11])[H:12])([H:8])([H:9])[H:10]"
C        2.76999688      -0.05403495       0.34797042
O        1.52414059      -0.41919153      -0.18398234
C        0.46573605      -0.40946162       0.71495216
C       -1.05227793       0.08963364      -0.77187578
C       -2.48822233      -0.25837501      -0.90305518
C       -0.69479867       0.86902962       0.39490486
O       -1.48104447       1.26401338       1.26234967
H        2.73597008       0.96476040       0.75537151
H        3.49418763      -0.08573968      -0.46455312
H        3.07921307      -0.75660429       1.13122800
H        0.72017738      -0.08492185       1.73235915
H        0.13360039      -1.43592707       0.89360445
H       -0.42347181      -0.19607024      -1.61033788
H       -3.02045520       0.60491630      -1.31376467
H       -2.65079234      -1.15695765      -1.49574297
H       -3.00079551      -0.43160287       0.04869295
H       -0.11116381       1.49653342      -0.53812124
17
Frame=9 idx=006450 GeodesicLength=1.065688924314851 rxn_smarts="[C:1]([O:2][C:3]([C@@:4]([C:5]([H:14])([H:15])[H:16])([C:6](=[O:7])[H:17])[H:13])([H:11])[H:12])([H:8])([H:9])[H:10]>>[C:1]([O:2][C:3]([C:6]([C:4]([C:5]([H:14])([H:15])[H:16])([H:13])[H:17])=[O:7])([H:11])[H:12])([H:8])([H:9])[H:10]"
C        2.78130511      -0.07469606       0.36081191
O        1.52607107      -0.34078189      -0.20540098
C        0.46388030      -0.38571245       0.68990998
C       -1.04951233       0.10581410      -0.76198130
C       -2.48254213      -0.27331866      -0.88292346
C       -0.71040522       0.90793438       0.39901099
O       -1.50100747       1.29597200       1.25916186
H        2.78172065       0.90339399       0.85939493
H        3.50883318      -0.05894053      -0.44929657
H        3.06019699      -0.85661863       1.07763915
H        0.70835121      -0.08013453       1.71636488
H        0.16984052      -1.42710863       0.85376627
H       -0.43375306      -0.17447341      -1.61218013
H       -3.02275490       0.54871742      -1.36105216
H       -2.61831251      -1.21285755      -1.41651813
H       -3.01556269      -0.39994262       0.06416030
H       -0.16634875       1.52275307      -0.59086754
17
Frame=10 idx=006450 GeodesicLength=1.1820467356612343 rxn_smarts="[C:1]([O:2][C:3]([C@@:4]([C:5]([H:14])([H:15])[H:16])([C:6](=[O:7])[H:17])[H:13])([H:11])[H:12])([H:8])([H:9])[H:10]>>[C:1]([O:2][C:3]([C:6]([C:4]([C:5]([H:14])([H:15])[H:16])([H:13])[H:17])=[O:7])([H:11])[H:12])([H:8])([H:9])[H:10]"
C        2.78998631      -0.09745137       0.37034711
O        1.52807192      -0.25844142      -0.21923569
C        0.46174028      -0.35962137       0.66852771
C       -1.04494831       0.12327256      -0.75137518
C       -2.47386061      -0.28838369      -0.86386647
C       -0.72725915       0.94773207       0.40430715
O       -1.52417805       1.32750663       1.25590518
H        2.82501463       0.82876163       0.95867047
H        3.52125306      -0.03345516      -0.43399096
H        3.03653306      -0.95270158       1.01138842
H        0.69634285      -0.07144782       1.70302159
H        0.20628570      -1.41431393       0.81722080
H       -0.44055900      -0.15258849      -1.61138676
H       -3.02031004       0.48625228      -1.40823324
H       -2.58008943      -1.26450716      -1.33546682
H       -3.02974171      -0.36986386       0.07417926
H       -0.22428150       1.54925070      -0.64001255
17
Frame=11 idx=006450 GeodesicLength=1.2983096506183118 rxn_smarts="[C:1]([O:2][C:3]([C@@:4]([C:5]([H:14])([H:15])[H:16])([C:6](=[O:7])[H:17])[H:13])([H:11])[H:12])([H:8])([H:9])[H:10]>>[C:1]([O:2][C:3]([C:6]([C:4]([C:5]([H:14])([H:15])[H:16])([H:13])[H:17])=[O:7])([H:11])[H:12])([H:8])([H:9])[H:10]"
C        2.79566020      -0.12185781       0.37604203
O        1.53007822      -0.17373293      -0.22468615
C        0.45915002      -0.33181847       0.65141180
C       -1.03831831       0.14186563      -0.73992827
C       -2.46192801      -0.30330086      -0.84607693
C       -0.74542129       0.98820066       0.41094313
O       -1.55071882       1.35864516       1.25252354
H        2.86470850       0.74135690       1.05086189
H        3.53116817      -0.00926025      -0.41909380
H        3.00817339      -1.04288136       0.93281089
H        0.68400484      -0.05921456       1.69298908
H        0.24225624      -1.39803314       0.78514662
H       -0.44323462      -0.13064401      -1.60780025
H       -3.01195009       0.41831104      -1.45496904
H       -2.53632707      -1.31125712      -1.25306616
H       -3.04320527      -0.34161566       0.07850858
H       -0.28409608       1.57523680      -0.68561697
17
Frame=12 idx=006450 GeodesicLength=1.4144000697849481 rxn_smarts="[C:1]([O:2][C:3]([C@@:4]([C:5]([H:14])([H:15])[H:16])([C:6](=[O:7])[H:17])[H:13])([H:11])[H:12])([H:8])([H:9])[H:10]>>[C:1]([O:2][C:3]([C:6]([C:4]([C:5]([H:14])([H:15])[H:16])([H:13])[H:17])=[O:7])([H:11])[H:12])([H:8])([H:9])[H:10]"
C        2.79788997      -0.14736761       0.37756338
O        1.53179072      -0.08824360      -0.22118770
C        0.45591365      -0.30288153       0.63905032
C       -1.02945918       0.16155039      -0.72750450
C       -2.44658974      -0.31795252      -0.82969175
C       -0.76460666       1.02903296       0.41900460
O       -1.58025302       1.38928544       1.24877077
H        2.90007273       0.64156731       1.13413171
H        3.53795367       0.01424163      -0.40476347
H        2.97514191      -1.12530698       0.84204602
H        0.67140827      -0.04378103       1.68673727
H        0.27665664      -1.37866473       0.75855576
H       -0.44150066      -0.10868497      -1.60120663
H       -2.99650982       0.34500396      -1.50115905
H       -2.48767159      -1.35265854      -1.16936147
H       -3.05583274      -0.31502601       0.07669401
H       -0.34440416       1.59988584      -0.72767927
17
Frame=13 idx=006450 GeodesicLength=1.5307483368314747 rxn_smarts="[C:1]([O:2][C:3]([C@@:4]([C:5]([H:14])([H:15])[H:16])([C:6](=[O:7])[H:17])[H:13])([H:11])[H:12])([H:8])([H:9])[H:10]>>[C:1]([O:2][C:3]([C:6]([C:4]([C:5]([H:14])([H:15])[H:16])([H:13])[H:17])=[O:7])([H:11])[H:12])([H:8])([H:9])[H:10]"
C        2.79655348      -0.17336741       0.37481059
O        1.53325740      -0.00373678      -0.20873960
C        0.45194800      -0.27360719       0.63156847
C       -1.01829948       0.18214594      -0.71411280
C       -2.42789219      -0.33203706      -0.81467758
C       -0.78470693       1.06999393       0.42829673
O       -1.61260430       1.41955448       1.24431183
H        2.92995944       0.53060158       1.20656527
H        3.54179202       0.03724546      -0.39075082
H        2.93762122      -1.19817835       0.74026840
H        0.65835635      -0.02588212       1.68450594
H        0.30903106      -1.35710572       0.73807286
H       -0.43514560      -0.08702994      -1.59168072
H       -2.97333157       0.26742615      -1.54601599
H       -2.43497527      -1.38811740      -1.08460890
H       -3.06730530      -0.29032021       0.06894533
H       -0.40425833       1.62241465      -0.76675901
17
Frame=14 idx=006450 GeodesicLength=1.6473777908687364 rxn_smarts="[C:1]([O:2][C:3]([C@@:4]([C:5]([H:14])([H:15])[H:16])([C:6](=[O:7])[H:17])[H:13])([H:11])[H:12])([H:8])([H:9])[H:10]>>[C:1]([O:2][C:3]([C:6]([C:4]([C:5]([H:14])([H:15])[H:16])([H:13])[H:17])=[O:7])([H:11])[H:12])([H:8])([H:9])[H:10]"
C        2.79141018      -0.19923329       0.36780697
O        1.53430345       0.07833611      -0.18757190
C        0.44720487      -0.24463936       0.62900510
C       -1.00484324       0.20349198      -0.69967901
C       -2.40590107      -0.34541810      -0.80099900
C       -0.80532004       1.11071003       0.43876923
O       -1.64709447       1.44925504       1.23891545
H        2.95371399       0.40982306       1.26658189
H        3.54249761       0.05991742      -0.37675647
H        2.89559269      -1.25981379       0.62864756
H        0.64494059      -0.00614445       1.68640904
H        0.33882437      -1.33408702       0.72404827
H       -0.42433714      -0.06580930      -1.57921291
H       -2.94168897       0.18588564      -1.58911658
H       -2.37939548      -1.41721598      -0.99879230
H       -3.07740786      -0.26715734       0.05504675
H       -0.46249947       1.64209936      -0.80310209
17
Frame=15 idx=006450 GeodesicLength=1.7647399683421499 rxn_smarts="[C:1]([O:2][C:3]([C@@:4]([C:5]([H:14])([H:15])[H:16])([C:6](=[O:7])[H:17])[H:13])([H:11])[H:12])([H:8])([H:9])[H:10]>>[C:1]([O:2][C:3]([C:6]([C:4]([C:5]([H:14])([H:15])[H:16])([H:13])[H:17])=[O:7])([H:11])[H:12])([H:8])([H:9])[H:10]"
C        2.78260855      -0.22441810       0.35678788
O        1.53509571       0.15679183      -0.15827777
C        0.44166499      -0.21661108       0.63110664
C       -0.98915688       0.22539847      -0.68429964
C       -2.38088126      -0.35796320      -0.78847411
C       -0.82628055       1.15106705       0.45007297
O       -1.68341841       1.47859545       1.23220420
H        2.97068076       0.28087966       1.31300943
H        3.54067903       0.08217062      -0.36220331
H        2.84913437      -1.30901322       0.50883261
H        0.63087925       0.01463441       1.69237191
H        0.36597839      -1.31056144       0.71641505
H       -0.40915900      -0.04531858      -1.56404861
H       -2.90152185       0.10150023      -1.62939445
H       -2.32219317      -1.43975739      -0.91221507
H       -3.08575256      -0.24587456       0.03560089
H       -0.51835738       1.65847985      -0.83748860
17
Frame=16 idx=006450 GeodesicLength=1.88304209343967 rxn_smarts="[C:1]([O:2][C:3]([C@@:4]([C:5]([H:14])([H:15])[H:16])([C:6](=[O:7])[H:17])[H:13])([H:11])[H:12])([H:8])([H:9])[H:10]>>[C:1]([O:2][C:3]([C:6]([C:4]([C:5]([H:14])([H:15])[H:16])([H:13])[H:17])=[O:7])([H:11])[H:12])([H:8])([H:9])[H:10]"
C        2.77005056      -0.24844244       0.34198888
O        1.53556958       0.23070881      -0.12148405
C        0.43538146      -0.19004693       0.63760797
C       -0.97131476       0.24773455      -0.66792605
C       -2.35294325      -0.36957170      -0.77698678
C       -0.84727617       1.19069872       0.46216570
O       -1.72096554       1.50722086       1.22407865
H        2.98041892       0.14603414       1.34458898
H        3.53628147       0.10319546      -0.34704014
H        2.79819702      -1.34458607       0.38297801
H        0.61620317       0.03563590       1.70225229
H        0.39055676      -1.28722315       0.71482839
H       -0.38994215      -0.02555205      -1.54626472
H       -2.85254399       0.01469840      -1.66630512
H       -2.26440200      -1.45551861      -0.82487756
H       -3.09209156      -0.22610144       0.01052630
H       -0.57117950       1.67111556      -0.87013076
