15
Frame=0 idx=006305 GeodesicLength=0.0 rxn_smarts="[C:1]([C:2]([O:3]/[C:4](=[N:5]/[C:6]([H:13])([H:14])[H:15])[H:12])([H:10])[H:11])([H:7])([H:8])[H:9]>>[C:1]([C:2]([O+:3]=[C:4]([N:5]([C-:6]([H:13])[H:15])[H:14])[H:12])([H:10])[H:11])([H:7])([H:8])[H:9]"
C       -2.64667291      -0.29160204       0.04107652
C       -1.14737905      -0.38809712      -0.10272996
O       -0.58214736       0.81412985       0.40630138
C        0.74725685       0.96448464       0.29208922
N        1.53468438       0.09074128      -0.20399778
C        2.96099807      -0.00025453      -0.10981865
H       -2.92729194      -0.16885919       1.08772303
H       -3.03409994       0.55813536      -0.52182318
H       -3.11481987      -1.20084262      -0.33877501
H       -0.75148959      -1.24244655       0.45672684
H       -0.84968362      -0.51114670      -1.14928073
H        1.09950286       1.91992683       0.66856949
H        3.37472762      -0.48071043      -0.98697726
H        1.84004452      -0.92082100       0.16735506
H        3.49636997       0.85736222       0.29356108
15
Frame=1 idx=006305 GeodesicLength=0.053151076697151814 rxn_smarts="[C:1]([C:2]([O:3]/[C:4](=[N:5]/[C:6]([H:13])([H:14])[H:15])[H:12])([H:10])[H:11])([H:7])([H:8])[H:9]>>[C:1]([C:2]([O+:3]=[C:4]([N:5]([C-:6]([H:13])[H:15])[H:14])[H:12])([H:10])[H:11])([H:7])([H:8])[H:9]"
C       -2.65210397      -0.28868337       0.04906033
C       -1.15524151      -0.38862072      -0.11687918
O       -0.57571254       0.78910137       0.43151119
C        0.74805728       0.95440840       0.27953893
N        1.54248739       0.07362815      -0.19294450
C        2.96715617       0.00705689      -0.10005759
H       -2.91955393      -0.20202009       1.10276012
H       -3.04078103       0.58309980      -0.47818197
H       -3.13072242      -1.18091758      -0.35719314
H       -0.75749378      -1.26423550       0.40716646
H       -0.87198887      -0.47670970      -1.17088035
H        1.09120404       1.93278479       0.60250667
H        3.39068328      -0.49923534      -0.95771449
H        1.87458902      -0.92467491       0.22591831
H        3.48942086       0.88501781       0.27538921
15
Frame=2 idx=006305 GeodesicLength=0.10598433518255841 rxn_smarts="[C:1]([C:2]([O:3]/[C:4](=[N:5]/[C:6]([H:13])([H:14])[H:15])[H:12])([H:10])[H:11])([H:7])([H:8])[H:9]>>[C:1]([C:2]([O+:3]=[C:4]([N:5]([C-:6]([H:13])[H:15])[H:14])[H:12])([H:10])[H:11])([H:7])([H:8])[H:9]"
C       -2.65721323      -0.28577514       0.05763776
C       -1.16321449      -0.38845980      -0.13140604
O       -0.56864800       0.76408260       0.45316214
C        0.74870716       0.94388750       0.26563740
N        1.55060691       0.05698432      -0.18285648
C        2.97311979       0.01404299      -0.08982710
H       -2.91084947      -0.23448536       1.11707518
H       -3.04695443       0.60628641      -0.43373216
H       -3.14677558      -1.16042281      -0.37311830
H       -0.76367594      -1.28362617       0.35694162
H       -0.89483541      -0.44242347      -1.19153215
H        1.08133874       1.94142491       0.53777590
H        3.40804259      -0.51634415      -0.92689507
H        1.90866082      -0.92602486       0.28265616
H        3.48169055       0.91085303       0.25848113
15
Frame=3 idx=006305 GeodesicLength=0.15839969881440144 rxn_smarts="[C:1]([C:2]([O:3]/[C:4](=[N:5]/[C:6]([H:13])([H:14])[H:15])[H:12])([H:10])[H:11])([H:7])([H:8])[H:9]>>[C:1]([C:2]([O+:3]=[C:4]([N:5]([C-:6]([H:13])[H:15])[H:14])[H:12])([H:10])[H:11])([H:7])([H:8])[H:9]"
C       -2.66200378      -0.28295200       0.06662690
C       -1.17128260      -0.38767590      -0.14609699
O       -0.56121769       0.73971123       0.47082683
C        0.74930978       0.93298058       0.25069944
N        1.55894310       0.04099884      -0.17399362
C        2.97881578       0.02065536      -0.07936915
H       -2.90139530      -0.26553702       1.13048496
H       -3.05261165       0.62729079      -0.38949234
H       -3.16280284      -1.13993362      -0.38618532
H       -0.77009627      -1.30038691       0.30705750
H       -0.91804852      -0.40898867      -1.21105025
H        1.07066175       1.94605937       0.47563695
H        3.42651464      -0.53147919      -0.89529799
H        1.94183635      -0.92524777       0.33668409
H        3.47337725       0.93450491       0.24346900
15
Frame=4 idx=006305 GeodesicLength=0.210525886301053 rxn_smarts="[C:1]([C:2]([O:3]/[C:4](=[N:5]/[C:6]([H:13])([H:14])[H:15])[H:12])([H:10])[H:11])([H:7])([H:8])[H:9]>>[C:1]([C:2]([O+:3]=[C:4]([N:5]([C-:6]([H:13])[H:15])[H:14])[H:12])([H:10])[H:11])([H:7])([H:8])[H:9]"
C       -2.66651494      -0.28027306       0.07584221
C       -1.17947712      -0.38627351      -0.16096239
O       -0.55359606       0.71600933       0.48509866
C        0.74993938       0.92156181       0.23532616
N        1.56743176       0.02540446      -0.16577776
C        2.98427459       0.02696212      -0.06885853
H       -2.89135820      -0.29566173       1.14292032
H       -3.05775584       0.64638128      -0.34541026
H       -3.17876872      -1.11946027      -0.39706691
H       -0.77685759      -1.31479857       0.25735770
H       -0.94155434      -0.37602085      -1.22956432
H        1.05959018       1.94726430       0.41588807
H        3.44560854      -0.54519400      -0.86303803
H        1.97437795      -0.92242018       0.38909775
H        3.46466041       0.95651887       0.22914733
15
Frame=5 idx=006305 GeodesicLength=0.2623486848877659 rxn_smarts="[C:1]([C:2]([O:3]/[C:4](=[N:5]/[C:6]([H:13])([H:14])[H:15])[H:12])([H:10])[H:11])([H:7])([H:8])[H:9]>>[C:1]([C:2]([O+:3]=[C:4]([N:5]([C-:6]([H:13])[H:15])[H:14])[H:12])([H:10])[H:11])([H:7])([H:8])[H:9]"
C       -2.67075485      -0.27780029       0.08518781
C       -1.18779470      -0.38428451      -0.17594495
O       -0.54592290       0.69313486       0.49623324
C        0.75063987       0.90973167       0.21956801
N        1.57600903       0.01018311      -0.15814787
C        2.98946573       0.03293083      -0.05840031
H       -2.88084278      -0.32486100       1.15436375
H       -3.06240607       0.66355739      -0.30174282
H       -3.19458841      -1.09922422      -0.40590237
H       -0.78396905      -1.32696651       0.20803621
H       -0.96529827      -0.34353287      -1.24710423
H        1.04855013       1.94545872       0.35876139
H        3.46506490      -0.55756216      -0.83036452
H        2.00619156      -0.91765553       0.44002190
H        3.45565578       0.97689053       0.21543476
15
Frame=6 idx=006305 GeodesicLength=0.31390510669667876 rxn_smarts="[C:1]([C:2]([O:3]/[C:4](=[N:5]/[C:6]([H:13])([H:14])[H:15])[H:12])([H:10])[H:11])([H:7])([H:8])[H:9]>>[C:1]([C:2]([O+:3]=[C:4]([N:5]([C-:6]([H:13])[H:15])[H:14])[H:12])([H:10])[H:11])([H:7])([H:8])[H:9]"
C       -2.67473989      -0.27558402       0.09459654
C       -1.19624459      -0.38172038      -0.19103881
O       -0.53828386       0.67106801       0.50465850
C        0.75144039       0.89751473       0.20354095
N        1.58463434      -0.00476718      -0.15088597
C        2.99439204       0.03855130      -0.04805271
H       -2.86992247      -0.35338751       1.16482282
H       -3.06658189       0.67894626      -0.25845222
H       -3.21023227      -1.07927903      -0.41300793
H       -0.79144926      -1.33707503       0.15899035
H       -0.98925997      -0.31130012      -1.26373759
H        1.03779510       1.94107982       0.30404876
H        3.48465596      -0.56884439      -0.79732566
H        2.03733936      -0.91096160       0.48990181
H        3.44645699       0.99575914       0.20194114
15
Frame=7 idx=006305 GeodesicLength=0.36521901080790614 rxn_smarts="[C:1]([C:2]([O:3]/[C:4](=[N:5]/[C:6]([H:13])([H:14])[H:15])[H:12])([H:10])[H:11])([H:7])([H:8])[H:9]>>[C:1]([C:2]([O+:3]=[C:4]([N:5]([C-:6]([H:13])[H:15])[H:14])[H:12])([H:10])[H:11])([H:7])([H:8])[H:9]"
C       -2.67846056      -0.27367911       0.10406005
C       -1.20483600      -0.37855284      -0.20629151
O       -0.53071823       0.64975114       0.51072398
C        0.75235380       0.88492729       0.18724035
N        1.59327134      -0.01955698      -0.14379845
C        2.99904735       0.04379237      -0.03776191
H       -2.85853801      -0.38164587       1.17433561
H       -3.07030177       0.69267842      -0.21527707
H       -3.22568184      -1.05960277      -0.41866174
H       -0.79928945      -1.34526401       0.10994017
H       -1.01350238      -0.27897515      -1.27955606
H        1.02748754       1.93449096       0.25128998
H        3.50423186      -0.57932581      -0.76378970
H        2.06782070      -0.90227077       0.53920865
H        3.43711566       1.01323311       0.18833764
15
Frame=8 idx=006305 GeodesicLength=0.4162441979950413 rxn_smarts="[C:1]([C:2]([O:3]/[C:4](=[N:5]/[C:6]([H:13])([H:14])[H:15])[H:12])([H:10])[H:11])([H:7])([H:8])[H:9]>>[C:1]([C:2]([O+:3]=[C:4]([N:5]([C-:6]([H:13])[H:15])[H:14])[H:12])([H:10])[H:11])([H:7])([H:8])[H:9]"
C       -2.68192705      -0.27207941       0.11340687
C       -1.21352709      -0.37487162      -0.22152074
O       -0.52330854       0.62918244       0.51479466
C        0.75338313       0.87200453       0.17091042
N        1.60184703      -0.03415897      -0.13678001
C        3.00339676       0.04866164      -0.02778729
H       -2.84696133      -0.40937837       1.18276609
H       -3.07349687       0.70475745      -0.17271891
H       -3.24083123      -1.04033541      -0.42305981
H       -0.80751595      -1.35163857       0.06130338
H       -1.03778633      -0.24678115      -1.29440238
H        1.01781225       1.92594338       0.20102579
H        3.52349678      -0.58904036      -0.73016794
H        2.09770811      -0.89158289       0.58791076
H        3.42771035       1.02931732       0.17431912
15
Frame=9 idx=006305 GeodesicLength=0.46698212161001607 rxn_smarts="[C:1]([C:2]([O:3]/[C:4](=[N:5]/[C:6]([H:13])([H:14])[H:15])[H:12])([H:10])[H:11])([H:7])([H:8])[H:9]>>[C:1]([C:2]([O+:3]=[C:4]([N:5]([C-:6]([H:13])[H:15])[H:14])[H:12])([H:10])[H:11])([H:7])([H:8])[H:9]"
C       -2.68515776      -0.27081259       0.12264137
C       -1.22232407      -0.37069294      -0.23672841
O       -0.51607388       0.60933656       0.51707705
C        0.75453020       0.85879710       0.15444503
N        1.61034897      -0.04859666      -0.12981983
C        3.00745863       0.05311627      -0.01807226
H       -2.83519068      -0.43671566       1.19017445
H       -3.07620846       0.71526189      -0.13072148
H       -3.25568496      -1.02153956      -0.42628918
H       -0.81612204      -1.35631979       0.01299930
H       -1.06214691      -0.21460749      -1.30831660
H        1.00890282       1.91574466       0.15305609
H        3.54241787      -0.59807795      -0.69644355
H        2.12694193      -0.87889168       0.63607773
H        3.41830834       1.04399785       0.15992028
15
Frame=10 idx=006305 GeodesicLength=0.5174457678752227 rxn_smarts="[C:1]([C:2]([O:3]/[C:4](=[N:5]/[C:6]([H:13])([H:14])[H:15])[H:12])([H:10])[H:11])([H:7])([H:8])[H:9]>>[C:1]([C:2]([O+:3]=[C:4]([N:5]([C-:6]([H:13])[H:15])[H:14])[H:12])([H:10])[H:11])([H:7])([H:8])[H:9]"
C       -2.68815005      -0.26988834       0.13174343
C       -1.23121956      -0.36602895      -0.25188906
O       -0.50901907       0.59012431       0.51784183
C        0.75579743       0.84528863       0.13789963
N        1.61875214      -0.06291694      -0.12282310
C        3.01123089       0.05714099      -0.00861873
H       -2.82325662      -0.46377312       1.19657215
H       -3.07842594       0.72427492      -0.08923717
H       -3.27022703      -1.00319825      -0.42851720
H       -0.82511188      -1.35940326      -0.03503581
H       -1.08655236      -0.18233689      -1.32128600
H        1.00077199       1.90411186       0.10711735
H        3.56091404      -0.60653703      -0.66262590
H        2.15556313      -0.86414974       0.68382241
H        3.40893289       1.05729182       0.14503617
15
Frame=11 idx=006305 GeodesicLength=0.5676629581513272 rxn_smarts="[C:1]([C:2]([O:3]/[C:4](=[N:5]/[C:6]([H:13])([H:14])[H:15])[H:12])([H:10])[H:11])([H:7])([H:8])[H:9]>>[C:1]([C:2]([O+:3]=[C:4]([N:5]([C-:6]([H:13])[H:15])[H:14])[H:12])([H:10])[H:11])([H:7])([H:8])[H:9]"
C       -2.69090515      -0.26933375       0.14070367
C       -1.24021497      -0.36086027      -0.26701693
O       -0.50214878       0.57146758       0.51730330
C        0.75718289       0.83146475       0.12130608
N        1.62703636      -0.07717587      -0.11565638
C        3.01472260       0.06071658       0.00059192
H       -2.81114663      -0.49077517       1.20195633
H       -3.08016621       0.73186123      -0.04810515
H       -3.28445563      -0.98526978      -0.42992412
H       -0.83448009      -1.36094386      -0.08297104
H       -1.11101015      -0.14977061      -1.33331642
H        0.99342853       1.89121427       0.06298300
H        3.57891730      -0.61462564      -0.62859497
H        2.18361370      -0.84720853       0.73137444
H        3.39962624       1.06923907       0.12936624
15
Frame=12 idx=006305 GeodesicLength=0.617638601749265 rxn_smarts="[C:1]([C:2]([O:3]/[C:4](=[N:5]/[C:6]([H:13])([H:14])[H:15])[H:12])([H:10])[H:11])([H:7])([H:8])[H:9]>>[C:1]([C:2]([O+:3]=[C:4]([N:5]([C-:6]([H:13])[H:15])[H:14])[H:12])([H:10])[H:11])([H:7])([H:8])[H:9]"
C       -2.69342852      -0.26914968       0.14950340
C       -1.24930169      -0.35520223      -0.28206951
O       -0.49546268       0.55329934       0.51565200
C        0.75868761       0.81731212       0.10470371
N        1.63518443      -0.09139390      -0.10827807
C        3.01794005       0.06382696       0.00956803
H       -2.79890657      -0.51776323       1.20632230
H       -3.08142082       0.73806930      -0.00732928
H       -3.29836259      -0.96774892      -0.43061126
H       -0.84423459      -1.36099659      -0.13080123
H       -1.13547713      -0.11686209      -1.34435881
H        0.98686329       1.87718829       0.02047534
H        3.59639204      -0.62236936      -0.59437716
H        2.21111157      -0.82802254       0.77870206
H        3.39041560       1.07981254       0.11289849
15
Frame=13 idx=006305 GeodesicLength=0.667395543672021 rxn_smarts="[C:1]([C:2]([O:3]/[C:4](=[N:5]/[C:6]([H:13])([H:14])[H:15])[H:12])([H:10])[H:11])([H:7])([H:8])[H:9]>>[C:1]([C:2]([O+:3]=[C:4]([N:5]([C-:6]([H:13])[H:15])[H:14])[H:12])([H:10])[H:11])([H:7])([H:8])[H:9]"
C       -2.69574169      -0.26933081       0.15814374
C       -1.25847309      -0.34907767      -0.29700450
O       -0.48896005       0.53556937       0.51301780
C        0.76030538       0.80282699       0.08806261
N        1.64318483      -0.10557075      -0.10072805
C        3.02090697       0.06646187       0.01833666
H       -2.78659452      -0.54471711       1.20970416
H       -3.08221999       0.74294258       0.03305866
H       -3.31195188      -0.95064695      -0.43061326
H       -0.85436888      -1.35961301      -0.17848226
H       -1.15991344      -0.08362021      -1.35437731
H        0.98106222       1.86215923      -0.02057104
H        3.61335642      -0.62973099      -0.55999845
H        2.23804551      -0.80662671       0.82565352
H        3.38136219       1.08897418       0.09579772
15
Frame=14 idx=006305 GeodesicLength=0.7168206062362892 rxn_smarts="[C:1]([C:2]([O:3]/[C:4](=[N:5]/[C:6]([H:13])([H:14])[H:15])[H:12])([H:10])[H:11])([H:7])([H:8])[H:9]>>[C:1]([C:2]([O+:3]=[C:4]([N:5]([C-:6]([H:13])[H:15])[H:14])[H:12])([H:10])[H:11])([H:7])([H:8])[H:9]"
C       -2.69778937      -0.26986259       0.16665481
C       -1.26771620      -0.34251134      -0.31178725
O       -0.48259134       0.51826958       0.50945370
C        0.76204530       0.78802129       0.07128257
N        1.65103736      -0.11967929      -0.09314358
C        3.02357378       0.06859868       0.02702539
H       -2.77411119      -0.57157085       1.21214515
H       -3.08247946       0.74650437       0.07304941
H       -3.32519872      -0.93399821      -0.42988782
H       -0.86490479      -1.35682343      -0.22596444
H       -1.18434618      -0.05010222      -1.36332959
H        0.97602010       1.84622559      -0.06041734
H        3.62985038      -0.63659724      -0.52544285
H        2.26424698      -0.78311088       0.87188929
H        3.37236334       1.09663655       0.07847255
15
Frame=15 idx=006305 GeodesicLength=0.7660102773805504 rxn_smarts="[C:1]([C:2]([O:3]/[C:4](=[N:5]/[C:6]([H:13])([H:14])[H:15])[H:12])([H:10])[H:11])([H:7])([H:8])[H:9]>>[C:1]([C:2]([O+:3]=[C:4]([N:5]([C-:6]([H:13])[H:15])[H:14])[H:12])([H:10])[H:11])([H:7])([H:8])[H:9]"
C       -2.69959263      -0.27067333       0.17498648
C       -1.27699210      -0.33562375      -0.32626362
O       -0.47633882       0.50134700       0.50508096
C        0.76390304       0.77290247       0.05431654
N        1.65873421      -0.13366547      -0.08577857
C        3.02594198       0.07029635       0.03558760
H       -2.76163946      -0.59801660       1.21367457
H       -3.08215195       0.74886808       0.11231109
H       -3.33807735      -0.91784364      -0.42842614
H       -0.87587559      -1.35276141      -0.27283437
H       -1.20859486      -0.01666375      -1.37111221
H        0.97174015       1.82953132      -0.09894895
H        3.64586179      -0.64275573      -0.49101397
H        2.28962892      -0.75787240       0.91698659
H        3.36345267       1.10293087       0.06143400
15
Frame=16 idx=006305 GeodesicLength=0.8149754000087949 rxn_smarts="[C:1]([C:2]([O:3]/[C:4](=[N:5]/[C:6]([H:13])([H:14])[H:15])[H:12])([H:10])[H:11])([H:7])([H:8])[H:9]>>[C:1]([C:2]([O+:3]=[C:4]([N:5]([C-:6]([H:13])[H:15])[H:14])[H:12])([H:10])[H:11])([H:7])([H:8])[H:9]"
C       -2.70119064      -0.27180487       0.18316130
C       -1.28633034      -0.32833476      -0.34053912
O       -0.47022149       0.48469172       0.50004287
C        0.76586356       0.75739254       0.03729609
N        1.66627126      -0.14764291      -0.07831341
C        3.02808177       0.07153534       0.04407488
H       -2.74914359      -0.62445022       1.21430055
H       -3.08134817       0.75008283       0.15121373
H       -3.35064582      -0.90205352      -0.42645044
H       -0.88725464      -1.34741980      -0.31951255
H       -1.23272888       0.01710506      -1.37779494
H        0.96811233       1.81203752      -0.13647860
H        3.66138914      -0.64850130      -0.45639696
H        2.31439617      -0.73050008       0.96139707
H        3.35474934       1.10786245       0.04399954
