14
Frame=0 idx=008713 GeodesicLength=0.0 rxn_smarts="[C:1](/[N:2]=[C:3](\[N:4]([H:11])[H:12])[C:5](=[O:6])[N:7]([H:13])[H:14])([H:8])([H:9])[H:10]>>[C:1]([N:2]([C+:3]([N:4]([H:11])[H:12])[C+:5]([O-:6])[N-:7][H:14])[H:13])([H:8])([H:9])[H:10]"
C        1.74470661       0.85384543      -0.54929046
N        0.33979404       0.62928877      -0.33163175
C       -0.17409211      -0.41411342       0.21653222
N        0.39283854      -1.50282424       0.70534318
C       -1.71605910      -0.32199060       0.28777694
O       -2.33037547      -1.25895973       0.79307050
N       -2.02605810       0.82962511      -0.25296135
H        2.17414656       0.08874790      -1.20411363
H        2.29866846       0.85702286       0.39491015
H        1.88363805       1.82192511      -1.02557128
H       -0.25274474      -2.18163290       1.08457196
H        1.38131748      -1.66927522       0.71010356
H       -0.71168112       1.20293058      -0.53350813
H       -3.00409909       1.06541035      -0.29523197
14
Frame=1 idx=008713 GeodesicLength=0.0405996818394233 rxn_smarts="[C:1](/[N:2]=[C:3](\[N:4]([H:11])[H:12])[C:5](=[O:6])[N:7]([H:13])[H:14])([H:8])([H:9])[H:10]>>[C:1]([N:2]([C+:3]([N:4]([H:11])[H:12])[C+:5]([O-:6])[N-:7][H:14])[H:13])([H:8])([H:9])[H:10]"
C        1.74760674       0.84985362      -0.54731035
N        0.34023015       0.63439838      -0.33394585
C       -0.17342688      -0.40979637       0.21426726
N        0.39411803      -1.49710883       0.70635538
C       -1.71504988      -0.32076567       0.29057093
O       -2.32469073      -1.26233932       0.79256792
N       -2.03192129       0.82950344      -0.25159548
H        2.17523369       0.08161250      -1.19978126
H        2.29871703       0.85010477       0.39865201
H        1.89448784       1.81659294      -1.02391424
H       -0.25332028      -2.17704837       1.08078297
H        1.38250545      -1.66405479       0.70462983
H       -0.72217202       1.21220168      -0.54128107
H       -3.01231786       1.05684600      -0.28999804
14
Frame=2 idx=008713 GeodesicLength=0.08119768079258533 rxn_smarts="[C:1](/[N:2]=[C:3](\[N:4]([H:11])[H:12])[C:5](=[O:6])[N:7]([H:13])[H:14])([H:8])([H:9])[H:10]>>[C:1]([N:2]([C+:3]([N:4]([H:11])[H:12])[C+:5]([O-:6])[N-:7][H:14])[H:13])([H:8])([H:9])[H:10]"
C        1.75050673       0.84591413      -0.54524587
N        0.34072521       0.63931980      -0.33652822
C       -0.17278187      -0.40573433       0.21153129
N        0.39535458      -1.49166644       0.70687148
C       -1.71397787      -0.31937244       0.29365043
O       -2.31894545      -1.26528806       0.79274812
N       -2.03767783       0.82984849      -0.24925070
H        2.17656423       0.07465729      -1.19532736
H        2.29851639       0.84328684       0.40260118
H        1.90526677       1.81132267      -1.02204043
H       -0.25388587      -2.17251933       1.07692180
H        1.38364823      -1.65890674       0.69917767
H       -0.73284476       1.22123295      -0.54959629
H       -3.02046850       1.04790517      -0.28551309
14
Frame=3 idx=008713 GeodesicLength=0.1218084738058563 rxn_smarts="[C:1](/[N:2]=[C:3](\[N:4]([H:11])[H:12])[C:5](=[O:6])[N:7]([H:13])[H:14])([H:8])([H:9])[H:10]>>[C:1]([N:2]([C+:3]([N:4]([H:11])[H:12])[C+:5]([O-:6])[N-:7][H:14])[H:13])([H:8])([H:9])[H:10]"
C        1.75338706       0.84188608      -0.54338461
N        0.34128260       0.64406051      -0.33935228
C       -0.17212105      -0.40168435       0.20882788
N        0.39660462      -1.48611713       0.70767145
C       -1.71285470      -0.31786191       0.29693140
O       -2.31336172      -1.26926237       0.79061170
N       -2.04329912       0.83094292      -0.24535293
H        2.17796638       0.06747842      -1.19082976
H        2.29820899       0.83675158       0.40637774
H        1.91592024       1.80579333      -1.02061746
H       -0.25440288      -2.16781798       1.07347035
H        1.38480951      -1.65347213       0.69449487
H       -0.74369737       1.23006273      -0.55838615
H       -3.02844256       1.03924029      -0.28046220
14
Frame=4 idx=008713 GeodesicLength=0.16233943509177817 rxn_smarts="[C:1](/[N:2]=[C:3](\[N:4]([H:11])[H:12])[C:5](=[O:6])[N:7]([H:13])[H:14])([H:8])([H:9])[H:10]>>[C:1]([N:2]([C+:3]([N:4]([H:11])[H:12])[C+:5]([O-:6])[N-:7][H:14])[H:13])([H:8])([H:9])[H:10]"
C        1.75623064       0.83773370      -0.54181776
N        0.34205035       0.64960644      -0.34039691
C       -0.17130035      -0.39675180       0.20800091
N        0.39787444      -1.48054098       0.70863216
C       -1.71166565      -0.31613112       0.30063935
O       -2.30778326      -1.27323589       0.78823755
N       -2.04895222       0.83133529      -0.24280480
H        2.17770405       0.06029718      -1.18780497
H        2.29931262       0.82908836       0.40900109
H        1.92647814       1.80028310      -1.01909101
H       -0.25485803      -2.16273973       1.07086619
H        1.38582534      -1.64864821       0.68873468
H       -0.75444070       1.24077071      -0.56335236
H       -3.03647536       1.02893296      -0.27884410
14
Frame=5 idx=008713 GeodesicLength=0.2029109472644908 rxn_smarts="[C:1](/[N:2]=[C:3](\[N:4]([H:11])[H:12])[C:5](=[O:6])[N:7]([H:13])[H:14])([H:8])([H:9])[H:10]>>[C:1]([N:2]([C+:3]([N:4]([H:11])[H:12])[C+:5]([O-:6])[N-:7][H:14])[H:13])([H:8])([H:9])[H:10]"
C        1.75907885       0.83362861      -0.54017613
N        0.34284136       0.65472135      -0.34219699
C       -0.17054572      -0.39232639       0.20618223
N        0.39909665      -1.47526638       0.70902491
C       -1.71052269      -0.31490223       0.30331249
O       -2.30221545      -1.27729637       0.78545034
N       -2.05445779       0.83271164      -0.23821241
H        2.17807701       0.05326702      -1.18438944
H        2.29982800       0.82177982       0.41202359
H        1.93695386       1.79478371      -1.01746712
H       -0.25523102      -2.15715768       1.06939679
H        1.38682844      -1.64379363       0.68321906
H       -0.76544416       1.25087419      -0.56968276
H       -3.04428731       1.01897632      -0.27648456
14
Frame=6 idx=008713 GeodesicLength=0.24343235482780787 rxn_smarts="[C:1](/[N:2]=[C:3](\[N:4]([H:11])[H:12])[C:5](=[O:6])[N:7]([H:13])[H:14])([H:8])([H:9])[H:10]>>[C:1]([N:2]([C+:3]([N:4]([H:11])[H:12])[C+:5]([O-:6])[N-:7][H:14])[H:13])([H:8])([H:9])[H:10]"
C        1.76193096       0.82958867      -0.53843065
N        0.34372280       0.65984481      -0.34384831
C       -0.16977083      -0.38790738       0.20441556
N        0.40029721      -1.47014305       0.70920434
C       -1.70931081      -0.31343304       0.30641462
O       -2.29652737      -1.28040890       0.78445581
N       -2.06003046       0.83332738      -0.23512515
H        2.17841894       0.04639104      -1.18097254
H        2.30035726       0.81448489       0.41512436
H        1.94734574       1.78935192      -1.01564432
H       -0.25568543      -2.15220491       1.06668805
H        1.38780716      -1.63896418       0.67781733
H       -0.77659931       1.26118168      -0.57563433
H       -3.05195584       1.00889106      -0.27446478
14
Frame=7 idx=008713 GeodesicLength=0.2839374665013466 rxn_smarts="[C:1](/[N:2]=[C:3](\[N:4]([H:11])[H:12])[C:5](=[O:6])[N:7]([H:13])[H:14])([H:8])([H:9])[H:10]>>[C:1]([N:2]([C+:3]([N:4]([H:11])[H:12])[C+:5]([O-:6])[N-:7][H:14])[H:13])([H:8])([H:9])[H:10]"
C        1.76478127       0.82558421      -0.53663634
N        0.34466736       0.66484469      -0.34563006
C       -0.16901093      -0.38365323       0.20236245
N        0.40145887      -1.46524194       0.70900489
C       -1.70801775      -0.31172986       0.30994242
O       -2.29075972      -1.28280062       0.78479156
N       -2.06548246       0.83459278      -0.23068198
H        2.17888936       0.03964896      -1.17751740
H        2.30074102       0.80724658       0.41833695
H        1.95765715       1.78395962      -1.01367408
H       -0.25619296      -2.14766231       1.06318573
H        1.38876326      -1.63418292       0.67246969
H       -0.78795887       1.27146770      -0.58169055
H       -3.05953560       0.99792634      -0.27426327
14
Frame=8 idx=008713 GeodesicLength=0.32446225022555547 rxn_smarts="[C:1](/[N:2]=[C:3](\[N:4]([H:11])[H:12])[C:5](=[O:6])[N:7]([H:13])[H:14])([H:8])([H:9])[H:10]>>[C:1]([N:2]([C+:3]([N:4]([H:11])[H:12])[C+:5]([O-:6])[N-:7][H:14])[H:13])([H:8])([H:9])[H:10]"
C        1.76762192       0.82158882      -0.53484724
N        0.34564573       0.66956285      -0.34787025
C       -0.16826952      -0.37961775       0.19991927
N        0.40261077      -1.46037690       0.70879375
C       -1.70671740      -0.31017442       0.31315826
O       -2.28505696      -1.28553312       0.78422742
N       -2.07083418       0.83632898      -0.22521825
H        2.17972907       0.03287484      -1.17374497
H        2.30076106       0.80039636       0.42172900
H        1.96786841       1.77846495      -1.01185062
H       -0.25667976      -2.14308518       1.05982870
H        1.38974962      -1.62919201       0.66771815
H       -0.79962240       1.28122912      -0.58886229
H       -3.06680637       0.98753345      -0.27298093
14
Frame=9 idx=008713 GeodesicLength=0.364954532314515 rxn_smarts="[C:1](/[N:2]=[C:3](\[N:4]([H:11])[H:12])[C:5](=[O:6])[N:7]([H:13])[H:14])([H:8])([H:9])[H:10]>>[C:1]([N:2]([C+:3]([N:4]([H:11])[H:12])[C+:5]([O-:6])[N-:7][H:14])[H:13])([H:8])([H:9])[H:10]"
C        1.77045509       0.81754599      -0.53317444
N        0.34677387       0.67467653      -0.34918754
C       -0.16744617      -0.37515218       0.19839195
N        0.40377240      -1.45552161       0.70864032
C       -1.70539100      -0.30857929       0.31643352
O       -2.27933792      -1.28812155       0.78379697
N       -2.07625657       0.83759968      -0.22061125
H        2.17976719       0.02614193      -1.17068522
H        2.30146844       0.79300669       0.42458841
H        1.97801534       1.77297267      -1.00995021
H       -0.25713626      -2.13835190       1.05685763
H        1.39064808      -1.62451739       0.66246165
H       -0.81136026       1.29189860      -0.59431434
H       -3.07397223       0.97640182      -0.27324745
14
Frame=10 idx=008713 GeodesicLength=0.4054596668038296 rxn_smarts="[C:1](/[N:2]=[C:3](\[N:4]([H:11])[H:12])[C:5](=[O:6])[N:7]([H:13])[H:14])([H:8])([H:9])[H:10]>>[C:1]([N:2]([C+:3]([N:4]([H:11])[H:12])[C+:5]([O-:6])[N-:7][H:14])[H:13])([H:8])([H:9])[H:10]"
C        1.77326689       0.81344705      -0.53163748
N        0.34799618       0.67990189      -0.35016613
C       -0.16657824      -0.37047691       0.19733756
N        0.40495090      -1.45059850       0.70869343
C       -1.70404170      -0.30697640       0.31974892
O       -2.27369211      -1.29126837       0.78201036
N       -2.08161038       0.83931637      -0.21497992
H        2.17946108       0.01932480      -1.16790484
H        2.30243320       0.78551685       0.42713800
H        1.98806399       1.76735816      -1.00823660
H       -0.25754714      -2.13340176       1.05441223
H        1.39151618      -1.61986457       0.65730888
H       -0.82332720       1.30264951      -0.59968559
H       -3.08089164       0.96507187      -0.27403881
14
Frame=11 idx=008713 GeodesicLength=0.44596748688652754 rxn_smarts="[C:1](/[N:2]=[C:3](\[N:4]([H:11])[H:12])[C:5](=[O:6])[N:7]([H:13])[H:14])([H:8])([H:9])[H:10]>>[C:1]([N:2]([C+:3]([N:4]([H:11])[H:12])[C+:5]([O-:6])[N-:7][H:14])[H:13])([H:8])([H:9])[H:10]"
C        1.77608589       0.80936936      -0.53007280
N        0.34931594       0.68517601      -0.35092759
C       -0.16568953      -0.36576696       0.19639338
N        0.40611546      -1.44578874       0.70858532
C       -1.70266642      -0.30538236       0.32300942
O       -2.26800934      -1.29404960       0.78084494
N       -2.08699067       0.84085967      -0.20962566
H        2.17902143       0.01261759      -1.16526780
H        2.30350750       0.77792745       0.42963894
H        1.99805311       1.76177543      -1.00639119
H       -0.25796344      -2.12853745       1.05185568
H        1.39234821      -1.61532671       0.65206663
H       -0.83550196       1.31359081      -0.60479946
H       -3.08762617       0.95353548      -0.27530980
14
Frame=12 idx=008713 GeodesicLength=0.4864060785438906 rxn_smarts="[C:1](/[N:2]=[C:3](\[N:4]([H:11])[H:12])[C:5](=[O:6])[N:7]([H:13])[H:14])([H:8])([H:9])[H:10]>>[C:1]([N:2]([C+:3]([N:4]([H:11])[H:12])[C+:5]([O-:6])[N-:7][H:14])[H:13])([H:8])([H:9])[H:10]"
C        1.77890897       0.80535320      -0.52841019
N        0.35074056       0.69057922      -0.35130406
C       -0.16478886      -0.36103539       0.19553445
N        0.40724335      -1.44124073       0.70802025
C       -1.70123222      -0.30359850       0.32658332
O       -2.26224322      -1.29605745       0.78118127
N       -2.09240710       0.84215369      -0.20474296
H        2.17834866       0.00618065      -1.16291428
H        2.30476352       0.77003731       0.43210897
H        2.00798680       1.75636151      -1.00415077
H       -0.25839824      -2.12374656       1.04921895
H        1.39309735      -1.61112001       0.64627735
H       -0.84787103       1.32480763      -0.60942335
H       -3.09414854       0.94132542      -0.27797896
14
Frame=13 idx=008713 GeodesicLength=0.5268548919663817 rxn_smarts="[C:1](/[N:2]=[C:3](\[N:4]([H:11])[H:12])[C:5](=[O:6])[N:7]([H:13])[H:14])([H:8])([H:9])[H:10]>>[C:1]([N:2]([C+:3]([N:4]([H:11])[H:12])[C+:5]([O-:6])[N-:7][H:14])[H:13])([H:8])([H:9])[H:10]"
C        1.78175952       0.80139337      -0.52663908
N        0.35224494       0.69585939      -0.35181911
C       -0.16389180      -0.35645937       0.19438873
N        0.40835237      -1.43682168       0.70724686
C       -1.69977998      -0.30191569       0.32988084
O       -2.25646390      -1.29783005       0.78187776
N       -2.09783543       0.84329461      -0.20013541
H        2.17789882      -0.00012580      -1.16039440
H        2.30584318       0.76228735       0.43478333
H        2.01787992       1.75099255      -1.00174790
H       -0.25883626      -2.11901715       1.04652361
H        1.39384573      -1.60691815       0.64063182
H       -0.86052798       1.33573152      -0.61476853
H       -3.10048912       0.92952910      -0.27982849
14
Frame=14 idx=008713 GeodesicLength=0.5673045066930955 rxn_smarts="[C:1](/[N:2]=[C:3](\[N:4]([H:11])[H:12])[C:5](=[O:6])[N:7]([H:13])[H:14])([H:8])([H:9])[H:10]>>[C:1]([N:2]([C+:3]([N:4]([H:11])[H:12])[C+:5]([O-:6])[N-:7][H:14])[H:13])([H:8])([H:9])[H:10]"
C        1.78462527       0.79746972      -0.52480188
N        0.35386525       0.70129110      -0.35192383
C       -0.16296597      -0.35177530       0.19347880
N        0.40944882      -1.43251492       0.70629363
C       -1.69829916      -0.30019390       0.33318910
O       -2.25064712      -1.29924695       0.78321677
N       -2.10330351       0.84429253      -0.19576368
H        2.17720616      -0.00626401      -1.15810911
H        2.30713609       0.75430565       0.43738504
H        2.02774497       1.74570593      -0.99909992
H       -0.25927199      -2.11427298       1.04391433
H        1.39452281      -1.60295130       0.63462075
H       -0.87342757       1.34675091      -0.62006854
H       -3.10663404       0.91740352      -0.28233145
14
Frame=15 idx=008713 GeodesicLength=0.6077522040929876 rxn_smarts="[C:1](/[N:2]=[C:3](\[N:4]([H:11])[H:12])[C:5](=[O:6])[N:7]([H:13])[H:14])([H:8])([H:9])[H:10]>>[C:1]([N:2]([C+:3]([N:4]([H:11])[H:12])[C+:5]([O-:6])[N-:7][H:14])[H:13])([H:8])([H:9])[H:10]"
C        1.78749689       0.79351494      -0.52303444
N        0.35556755       0.70666261      -0.35204613
C       -0.16200618      -0.34705677       0.19267917
N        0.41056732      -1.42811796       0.70558425
C       -1.69683264      -0.29873250       0.33595889
O       -2.24490151      -1.30115910       0.78335267
N       -2.10872929       0.84540818      -0.19105972
H        2.17652643      -0.01249922      -1.15577620
H        2.30841645       0.74649077       0.43991569
H        2.03753930       1.74027762      -0.99667481
H       -0.25966702      -2.10940840       1.04163143
H        1.39522083      -1.59884299       0.62906156
H       -0.88664276       1.35761372      -0.62574971
H       -3.11255536       0.90584910      -0.28384267
14
Frame=16 idx=008713 GeodesicLength=0.6481942136961416 rxn_smarts="[C:1](/[N:2]=[C:3](\[N:4]([H:11])[H:12])[C:5](=[O:6])[N:7]([H:13])[H:14])([H:8])([H:9])[H:10]>>[C:1]([N:2]([C+:3]([N:4]([H:11])[H:12])[C+:5]([O-:6])[N-:7][H:14])[H:13])([H:8])([H:9])[H:10]"
C        1.79039980       0.78958851      -0.52120572
N        0.35731973       0.71174142      -0.35266729
C       -0.16104940      -0.34257400       0.19143479
N        0.41168622      -1.42372429       0.70492375
C       -1.69536087      -0.29749632       0.33821489
O       -2.23919897      -1.30328379       0.78286125
N       -2.11407972       0.84663408      -0.18609762
H        2.17633042      -0.01877149      -1.15299325
H        2.30930759       0.73913945       0.44273813
H        2.04728472       1.73476437      -0.99435193
H       -0.26005771      -2.10468518       1.03910774
H        1.39599939      -1.59446402       0.62423859
H       -0.90025756       1.36781834      -0.63277192
H       -3.11832365       0.89531290      -0.28343140
