15
Frame=0 idx=011192 GeodesicLength=0.0 rxn_smarts="[C:1]([C@@:2]1([H:11])[O:3][C@@:4]2([H:12])[C:5]([H:13])([H:14])[C@@:6]12[O:7][H:15])([H:8])([H:9])[H:10]>>[C:1]([C@@:2]1([H:11])[O+:3]=[C-:4][C@:6]1([C:5]([H:12])([H:13])[H:14])[O:7][H:15])([H:8])([H:9])[H:10]"
C       -1.82177024      -0.29962924      -0.13454272
C       -0.71550348       0.70126511       0.05989943
O       -0.27498354       0.85965033       1.43343274
C        1.07268867       0.89822386       1.07675355
C        1.26315091      -0.81895005       0.33329515
C        0.73468449       0.40547036      -0.32074068
O        1.32495491       0.88975895      -1.47148694
H       -1.56196933      -1.27957755       0.26572611
H       -2.73163685       0.03997475       0.36248430
H       -2.03769859      -0.40275102      -1.20071219
H       -1.00259180       1.68034030      -0.33234636
H        1.68197872      -0.18607091       1.44679156
H        2.24093980      -1.12360318      -0.02411031
H        0.58707259      -1.59509788       0.66956283
H        1.24068375       0.23099611      -2.16400652
15
Frame=1 idx=011192 GeodesicLength=0.050918932799676055 rxn_smarts="[C:1]([C@@:2]1([H:11])[O:3][C@@:4]2([H:12])[C:5]([H:13])([H:14])[C@@:6]12[O:7][H:15])([H:8])([H:9])[H:10]>>[C:1]([C@@:2]1([H:11])[O+:3]=[C-:4][C@:6]1([C:5]([H:12])([H:13])[H:14])[O:7][H:15])([H:8])([H:9])[H:10]"
C       -1.82681235      -0.29922996      -0.12503013
C       -0.71914321       0.70235371       0.05571090
O       -0.27818333       0.87398984       1.42820600
C        1.06809526       0.89472897       1.07320896
C        1.26365491      -0.82056460       0.32859260
C        0.73059047       0.40344368      -0.32405334
O        1.31658204       0.90208968      -1.47091846
H       -1.56899683      -1.27379714       0.28933616
H       -2.73598672       0.04838888       0.36780662
H       -2.04379308      -0.41616691      -1.18950591
H       -1.00779158       1.67816574      -0.34357696
H        1.68059336      -0.19761699       1.45737920
H        2.24396266      -1.11795293      -0.02858385
H        0.59049545      -1.61010841       0.63841646
H        1.28673294       0.23227644      -2.15698827
15
Frame=2 idx=011192 GeodesicLength=0.10180676579300657 rxn_smarts="[C:1]([C@@:2]1([H:11])[O:3][C@@:4]2([H:12])[C:5]([H:13])([H:14])[C@@:6]12[O:7][H:15])([H:8])([H:9])[H:10]>>[C:1]([C@@:2]1([H:11])[O+:3]=[C-:4][C@:6]1([C:5]([H:12])([H:13])[H:14])[O:7][H:15])([H:8])([H:9])[H:10]"
C       -1.83187203      -0.29890351      -0.11507411
C       -0.72285485       0.70337626       0.05125598
O       -0.28122360       0.88905807       1.42241097
C        1.06348989       0.89112211       1.06929413
C        1.26383236      -0.82243565       0.32379078
C        0.72640000       0.40118131      -0.32768817
O        1.30805283       0.91356798      -1.47078588
H       -1.57573195      -1.26766597       0.31363550
H       -2.74025696       0.05677762       0.37355185
H       -2.05015739      -0.43008805      -1.17757024
H       -1.01313248       1.67565970      -0.35549940
H        1.67857207      -0.20967209       1.46798983
H        2.24675227      -1.11255564      -0.03276927
H        0.59393823      -1.62498126       0.60606794
H        1.33419160       0.23555911      -2.14860991
15
Frame=3 idx=011192 GeodesicLength=0.15261479616059942 rxn_smarts="[C:1]([C@@:2]1([H:11])[O:3][C@@:4]2([H:12])[C:5]([H:13])([H:14])[C@@:6]12[O:7][H:15])([H:8])([H:9])[H:10]>>[C:1]([C@@:2]1([H:11])[O+:3]=[C-:4][C@:6]1([C:5]([H:12])([H:13])[H:14])[O:7][H:15])([H:8])([H:9])[H:10]"
C       -1.83691746      -0.29864203      -0.10469430
C       -0.72662806       0.70432989       0.04652903
O       -0.28407847       0.90485625       1.41600833
C        1.05886925       0.88740746       1.06500151
C        1.26366405      -0.82458430       0.31890695
C        0.72211908       0.39867139      -0.33164447
O        1.29937799       0.92410813      -1.47113937
H       -1.58210370      -1.26118924       0.33851898
H       -2.74440697       0.06510196       0.37973966
H       -2.05678639      -0.44443754      -1.16490718
H       -1.01859993       1.67280612      -0.36812462
H        1.67590928      -0.22223219       1.47861316
H        2.24927863      -1.10745269      -0.03664795
H        0.59741715      -1.63965763       0.57258449
H        1.38288554       0.24091442      -2.13874422
15
Frame=4 idx=011192 GeodesicLength=0.203246356978689 rxn_smarts="[C:1]([C@@:2]1([H:11])[O:3][C@@:4]2([H:12])[C:5]([H:13])([H:14])[C@@:6]12[O:7][H:15])([H:8])([H:9])[H:10]>>[C:1]([C@@:2]1([H:11])[O+:3]=[C-:4][C@:6]1([C:5]([H:12])([H:13])[H:14])[O:7][H:15])([H:8])([H:9])[H:10]"
C       -1.84190833      -0.29843259      -0.09392089
C       -0.73044632       0.70520547       0.04153226
O       -0.28672674       0.92135444       1.40896220
C        1.05422189       0.88358820       1.06032156
C        1.26313010      -0.82701724       0.31396616
C        0.71775637       0.39590134      -0.33591508
O        1.29056808       0.93359956      -1.47204093
H       -1.58803716      -1.25438080       0.36383233
H       -2.74838359       0.07330870       0.38639989
H       -2.06366844      -0.45908847      -1.15153198
H       -1.02416255       1.66957992      -0.38144208
H        1.67260549      -0.23527266       1.48923172
H        2.25150628      -1.10266603      -0.04020340
H        0.60095194      -1.65406092       0.53807043
H        1.43259299       0.24838108      -2.12726218
15
Frame=5 idx=011192 GeodesicLength=0.2536907913805825 rxn_smarts="[C:1]([C@@:2]1([H:11])[O:3][C@@:4]2([H:12])[C:5]([H:13])([H:14])[C@@:6]12[O:7][H:15])([H:8])([H:9])[H:10]>>[C:1]([C@@:2]1([H:11])[O+:3]=[C-:4][C@:6]1([C:5]([H:12])([H:13])[H:14])[O:7][H:15])([H:8])([H:9])[H:10]"
C       -1.84682793      -0.29825920      -0.08280902
C       -0.73430574       0.70600680       0.03627495
O       -0.28914487       0.93852952       1.40126476
C        1.04955635       0.87968431       1.05527631
C        1.26224791      -0.82975548       0.30900215
C        0.71332828       0.39285861      -0.34048139
O        1.28164186       0.94192853      -1.47354518
H       -1.59347874      -1.24727121       0.38940252
H       -2.75217373       0.08136851       0.39353182
H       -2.07081543      -0.47391989      -1.13750656
H       -1.02981302       1.66598570      -0.39542576
H        1.66872364      -0.24875881       1.49985146
H        2.25344777      -1.09824058      -0.04342224
H        0.60459411      -1.66813673       0.50266264
H        1.48301954       0.25797993      -2.11407646
15
Frame=6 idx=011192 GeodesicLength=0.3040988419741647 rxn_smarts="[C:1]([C@@:2]1([H:11])[O:3][C@@:4]2([H:12])[C:5]([H:13])([H:14])[C@@:6]12[O:7][H:15])([H:8])([H:9])[H:10]>>[C:1]([C@@:2]1([H:11])[O+:3]=[C-:4][C@:6]1([C:5]([H:12])([H:13])[H:14])[O:7][H:15])([H:8])([H:9])[H:10]"
C       -1.85165352      -0.29809466      -0.07143477
C       -0.73821430       0.70676595       0.03077255
O       -0.29132739       0.95636743       1.39296890
C        1.04487009       0.87573255       1.04994724
C        1.26107016      -0.83284166       0.30407394
C        0.70885009       0.38954643      -0.34531838
O        1.27260380       0.94899491      -1.47574463
H       -1.59835701      -1.23991455       0.41504933
H       -2.75576991       0.08927853       0.40111933
H       -2.07821949      -0.48879615      -1.12295721
H       -1.03557413       1.66208695      -0.41005205
H        1.66434994      -0.26267252       1.51055526
H        2.25516037      -1.09424688      -0.04627539
H        0.60844994      -1.68188851       0.46650856
H        1.53376136       0.26968220      -2.09921271
15
Frame=7 idx=011192 GeodesicLength=0.3538806890707172 rxn_smarts="[C:1]([C@@:2]1([H:11])[O:3][C@@:4]2([H:12])[C:5]([H:13])([H:14])[C@@:6]12[O:7][H:15])([H:8])([H:9])[H:10]>>[C:1]([C@@:2]1([H:11])[O+:3]=[C-:4][C@:6]1([C:5]([H:12])([H:13])[H:14])[O:7][H:15])([H:8])([H:9])[H:10]"
C       -1.85631603      -0.29794659      -0.05982644
C       -0.74208303       0.70739288       0.02502052
O       -0.29321573       0.97470969       1.38390165
C        1.04016345       0.87165840       1.04421032
C        1.25950763      -0.83621670       0.29916604
C        0.70435303       0.38591103      -0.35038996
O        1.26360002       0.95470238      -1.47850898
H       -1.60269789      -1.23227543       0.44066976
H       -2.75907283       0.09697864       0.40909919
H       -2.08577930      -0.50364683      -1.10781628
H       -1.04125101       1.65771092      -0.42528316
H        1.65947652      -0.27694108       1.52114002
H        2.25648430      -1.09061066      -0.04881265
H        0.61240205      -1.69509787       0.42990562
H        1.58442882       0.28367121      -2.08247564
15
Frame=8 idx=011192 GeodesicLength=0.40354710329349364 rxn_smarts="[C:1]([C@@:2]1([H:11])[O:3][C@@:4]2([H:12])[C:5]([H:13])([H:14])[C@@:6]12[O:7][H:15])([H:8])([H:9])[H:10]>>[C:1]([C@@:2]1([H:11])[O+:3]=[C-:4][C@:6]1([C:5]([H:12])([H:13])[H:14])[O:7][H:15])([H:8])([H:9])[H:10]"
C       -1.86089862      -0.29781086      -0.04798086
C       -0.74597561       0.70796213       0.01900947
O       -0.29483372       0.99368027       1.37412105
C        1.03545911       0.86752486       1.03816687
C        1.25765757      -0.83999091       0.29426040
C        0.69985871       0.38197977      -0.35571651
O        1.25468834       0.95910750      -1.48193813
H       -1.60654857      -1.22440849       0.46634839
H       -2.76223204       0.10457986       0.41745739
H       -2.09356079      -0.51856655      -1.09214267
H       -1.04696635       1.65299823      -0.44115926
H        1.65415648      -0.29164606       1.53172454
H        2.25758490      -1.08746183      -0.05106908
H        0.61658732      -1.70794269       0.39284928
H        1.63502328       0.29999478      -2.06393087
15
Frame=9 idx=011192 GeodesicLength=0.45277406082013266 rxn_smarts="[C:1]([C@@:2]1([H:11])[O:3][C@@:4]2([H:12])[C:5]([H:13])([H:14])[C@@:6]12[O:7][H:15])([H:8])([H:9])[H:10]>>[C:1]([C@@:2]1([H:11])[O+:3]=[C-:4][C@:6]1([C:5]([H:12])([H:13])[H:14])[O:7][H:15])([H:8])([H:9])[H:10]"
C       -1.86515553      -0.29760405      -0.03599327
C       -0.74978397       0.70840668       0.01271728
O       -0.29610772       1.01306344       1.36360595
C        1.03066358       0.86321635       1.03187916
C        1.25545475      -0.84407141       0.28944420
C        0.69532678       0.37773316      -0.36124443
O        1.24578011       0.96198825      -1.48606032
H       -1.60965452      -1.21619813       0.49189062
H       -2.76488352       0.11205680       0.42615579
H       -2.10135749      -0.53331463      -1.07604083
H       -1.05258306       1.64778317      -0.45770263
H        1.64827988      -0.30677533       1.54240373
H        2.25829823      -1.08465204      -0.05292707
H        0.62103519      -1.72020806       0.35535339
H        1.68468729       0.31857580      -2.04348157
15
Frame=10 idx=011192 GeodesicLength=0.5019614115372633 rxn_smarts="[C:1]([C@@:2]1([H:11])[O:3][C@@:4]2([H:12])[C:5]([H:13])([H:14])[C@@:6]12[O:7][H:15])([H:8])([H:9])[H:10]>>[C:1]([C@@:2]1([H:11])[O+:3]=[C-:4][C@:6]1([C:5]([H:12])([H:13])[H:14])[O:7][H:15])([H:8])([H:9])[H:10]"
C       -1.86938053      -0.29737857      -0.02380983
C       -0.75362175       0.70880796       0.00616073
O       -0.29711082       1.03301382       1.35231774
C        1.02588459       0.85886809       1.02530990
C        1.25304851      -0.84858135       0.28462614
C        0.69086134       0.37320232      -0.36700054
O        1.23714254       0.96348974      -1.49088784
H       -1.61233329      -1.20779581       0.51737631
H       -2.76747095       0.11947256       0.43523295
H       -2.10943467      -0.54804657      -1.05943538
H       -1.05822513       1.64225515      -0.47486506
H        1.64202891      -0.32233853       1.55307346
H        2.25891732      -1.08233337      -0.05454094
H        0.62581331      -1.73212371       0.31754886
H        1.73388063       0.33948828      -2.02110652
15
Frame=11 idx=011192 GeodesicLength=0.5508022379337019 rxn_smarts="[C:1]([C@@:2]1([H:11])[O:3][C@@:4]2([H:12])[C:5]([H:13])([H:14])[C@@:6]12[O:7][H:15])([H:8])([H:9])[H:10]>>[C:1]([C@@:2]1([H:11])[O+:3]=[C-:4][C@:6]1([C:5]([H:12])([H:13])[H:14])[O:7][H:15])([H:8])([H:9])[H:10]"
C       -1.87330829      -0.29706664      -0.01141943
C       -0.75738631       0.70902069      -0.00073857
O       -0.29771683       1.05333437       1.34013702
C        1.02099624       0.85423847       1.01838338
C        1.25024080      -0.85349987       0.27976068
C        0.68630650       0.36823641      -0.37306147
O        1.22847635       0.96339947      -1.49652196
H       -1.61437665      -1.19895798       0.54297322
H       -2.76957814       0.12694379       0.44460466
H       -2.11748245      -0.56274525      -1.04230081
H       -1.06376491       1.63610700      -0.49278336
H        1.63524764      -0.33842343       1.56367867
H        2.25903908      -1.08049823      -0.05601041
H        0.63082713      -1.74346551       0.27979658
H        1.78247984       0.36337672      -1.99649820
15
Frame=12 idx=011192 GeodesicLength=0.5993267724130686 rxn_smarts="[C:1]([C@@:2]1([H:11])[O:3][C@@:4]2([H:12])[C:5]([H:13])([H:14])[C@@:6]12[O:7][H:15])([H:8])([H:9])[H:10]>>[C:1]([C@@:2]1([H:11])[O+:3]=[C-:4][C@:6]1([C:5]([H:12])([H:13])[H:14])[O:7][H:15])([H:8])([H:9])[H:10]"
C       -1.87704089      -0.29666835       0.00099180
C       -0.76105662       0.70914942      -0.00789419
O       -0.29796315       1.07398547       1.32716262
C        1.01610180       0.84951309       1.01129925
C        1.24726000      -0.85877670       0.27497057
C        0.68186229       0.36298339      -0.37922292
O        1.22027503       0.96177496      -1.50270886
H       -1.61591121      -1.18986752       0.56823888
H       -2.77140703       0.13437197       0.45414923
H       -2.12561415      -0.57724626      -1.02483488
H       -1.06911665       1.62955217      -0.51124972
H        1.62815678      -0.35488614       1.57432140
H        2.25901262      -1.07902578      -0.05721201
H        0.63623452      -1.75433132       0.24203982
H        1.82920665       0.38947160      -1.97005097
15
Frame=13 idx=011192 GeodesicLength=0.6478094551767694 rxn_smarts="[C:1]([C@@:2]1([H:11])[O:3][C@@:4]2([H:12])[C:5]([H:13])([H:14])[C@@:6]12[O:7][H:15])([H:8])([H:9])[H:10]>>[C:1]([C@@:2]1([H:11])[O+:3]=[C-:4][C@:6]1([C:5]([H:12])([H:13])[H:14])[O:7][H:15])([H:8])([H:9])[H:10]"
C       -1.88055799      -0.29615823       0.01353474
C       -0.76465335       0.70916697      -0.01538911
O       -0.29786942       1.09501845       1.31328749
C        1.01112288       0.84455012       1.00400786
C        1.24408687      -0.86452943       0.27016081
C        0.67748386       0.35736180      -0.38559538
O        1.21251378       0.95864666      -1.50956456
H       -1.61693897      -1.18039675       0.59356500
H       -2.77295248       0.14195146       0.46386078
H       -2.13372865      -0.59172786      -1.00691488
H       -1.07433029       1.62251981      -0.53046551
H        1.62060280      -0.37195842       1.58501037
H        2.25881132      -1.07803807      -0.05827453
H        0.64202729      -1.76480474       0.20445187
H        1.87438234       0.41839822      -1.94167497
15
Frame=14 idx=011192 GeodesicLength=0.6962404232784469 rxn_smarts="[C:1]([C@@:2]1([H:11])[O:3][C@@:4]2([H:12])[C:5]([H:13])([H:14])[C@@:6]12[O:7][H:15])([H:8])([H:9])[H:10]>>[C:1]([C@@:2]1([H:11])[O+:3]=[C-:4][C@:6]1([C:5]([H:12])([H:13])[H:14])[O:7][H:15])([H:8])([H:9])[H:10]"
C       -1.88382173      -0.29548010       0.02608355
C       -0.76813764       0.70908837      -0.02319228
O       -0.29742472       1.11632648       1.29860968
C        1.00607238       0.83934108       0.99672614
C        1.24082568      -0.87067438       0.26539947
C        0.67324552       0.35144024      -0.39205255
O        1.20542242       0.95406197      -1.51689028
H       -1.61743376      -1.17048639       0.61875984
H       -2.77419306       0.14968835       0.47360627
H       -2.14176640      -0.60608377      -0.98870105
H       -1.07934691       1.61500049      -0.55035052
H        1.61261965      -0.38963602       1.59590457
H        2.25856630      -1.07736577      -0.05909757
H        0.64837276      -1.77482370       0.16691598
H        1.91699949       0.44960315      -1.91172125
15
Frame=15 idx=011192 GeodesicLength=0.74427398431028 rxn_smarts="[C:1]([C@@:2]1([H:11])[O:3][C@@:4]2([H:12])[C:5]([H:13])([H:14])[C@@:6]12[O:7][H:15])([H:8])([H:9])[H:10]>>[C:1]([C@@:2]1([H:11])[O+:3]=[C-:4][C@:6]1([C:5]([H:12])([H:13])[H:14])[O:7][H:15])([H:8])([H:9])[H:10]"
C       -1.88668292      -0.29467324       0.03858318
C       -0.77135844       0.70888737      -0.03127359
O       -0.29655529       1.13780106       1.28298837
C        1.00089501       0.83385222       0.98939916
C        1.23740494      -0.87717672       0.26070140
C        0.66918157       0.34522924      -0.39848897
O        1.19916696       0.94822780      -1.52433906
H       -1.61740554      -1.16018775       0.64373845
H       -2.77493321       0.15753651       0.48320152
H       -2.14948258      -0.62028948      -0.97014858
H       -1.08387590       1.60697282      -0.57081134
H        1.60404756      -0.40794381       1.60686942
H        2.25811818      -1.07689380      -0.05968819
H        0.65512153      -1.78436753       0.12982711
H        1.95635812       0.48302530      -1.88055889
15
Frame=16 idx=011192 GeodesicLength=0.7922796676559657 rxn_smarts="[C:1]([C@@:2]1([H:11])[O:3][C@@:4]2([H:12])[C:5]([H:13])([H:14])[C@@:6]12[O:7][H:15])([H:8])([H:9])[H:10]>>[C:1]([C@@:2]1([H:11])[O+:3]=[C-:4][C@:6]1([C:5]([H:12])([H:13])[H:14])[O:7][H:15])([H:8])([H:9])[H:10]"
C       -1.88919482      -0.29364125       0.05086535
C       -0.77439853       0.70862443      -0.03956355
O       -0.29538367       1.15928279       1.26676734
C        0.99556324       0.82813040       0.98235125
C        1.23403445      -0.88395853       0.25616755
C        0.66532630       0.33881780      -0.40482052
O        1.19384838       0.94130180      -1.53184381
H       -1.61682506      -1.14951595       0.66820192
H       -2.77529127       0.16551296       0.49263945
H       -2.15694479      -0.63407542      -0.95161980
H       -1.08808014       1.59855538      -0.59168393
H        1.59515259      -0.42682071       1.61818232
H        2.25774789      -1.07652201      -0.05995837
H        0.66260225      -1.79339193       0.09310575
H        1.99184319       0.51770025      -1.84879096
