13
Frame=0 idx=004334 GeodesicLength=0.0 rxn_smarts="[C:1]([C:2]([C:3]([H:10])([H:11])[H:12])([O:4][H:13])[C:5]#[N:6])([H:7])([H:8])[H:9]>>[C:1]([C:2]([C:3]([H:10])([H:11])[H:12])([O:4][H:13])[N+:6]#[C-:5])([H:7])([H:8])[H:9]"
C       -0.92675804      -0.93489743      -0.07236945
C        0.06582965       0.15036966       0.23944975
C        1.40502338       0.01023507      -0.42802753
O        0.21748242       0.49304352       1.51513846
C       -0.43995004       1.85506887      -0.83123677
N       -1.40993685       1.65379198      -0.20138217
H       -0.47237140      -1.87989177       0.24308839
H       -1.86752309      -0.79155034       0.45363786
H       -1.12632793      -0.98036814      -1.13986628
H        2.03224011       0.87256441      -0.22531474
H        1.29562451      -0.11906789      -1.50053661
H        1.86922719      -0.88439920       0.00223438
H       -0.64255990       0.55510120       1.94518470
13
Frame=1 idx=004334 GeodesicLength=0.05444542353953935 rxn_smarts="[C:1]([C:2]([C:3]([H:10])([H:11])[H:12])([O:4][H:13])[C:5]#[N:6])([H:7])([H:8])[H:9]>>[C:1]([C:2]([C:3]([H:10])([H:11])[H:12])([O:4][H:13])[N+:6]#[C-:5])([H:7])([H:8])[H:9]"
C       -0.92675178      -0.93264653      -0.07543763
C        0.05806456       0.16352547       0.23159815
C        1.40285633       0.01353440      -0.42631886
O        0.21686840       0.48790701       1.51652612
C       -0.45951687       1.83508002      -0.86976510
N       -1.38721286       1.68412580      -0.17063224
H       -0.47149160      -1.87446010       0.24718242
H       -1.87034359      -0.79073151       0.44639395
H       -1.12313231      -0.98837545      -1.14320243
H        2.02923644       0.87744965      -0.22669941
H        1.30368316      -0.12843386      -1.49843255
H        1.86604654      -0.87786023       0.01091795
H       -0.63830641       0.53088531       1.95786962
13
Frame=2 idx=004334 GeodesicLength=0.10776276399836615 rxn_smarts="[C:1]([C:2]([C:3]([H:10])([H:11])[H:12])([O:4][H:13])[C:5]#[N:6])([H:7])([H:8])[H:9]>>[C:1]([C:2]([C:3]([H:10])([H:11])[H:12])([O:4][H:13])[N+:6]#[C-:5])([H:7])([H:8])[H:9]"
C       -0.92672005      -0.93087735      -0.07816138
C        0.05041820       0.17592077       0.22433559
C        1.40038268       0.01708613      -0.42480613
O        0.21615473       0.48152805       1.51838338
C       -0.48053311       1.81472522      -0.90478612
N       -1.36115894       1.71446678      -0.14266819
H       -0.47091599      -1.86945403       0.25205416
H       -1.87335665      -0.78962188       0.43882217
H       -1.11917109      -0.99759163      -1.14616586
H        2.02592185       0.88243820      -0.22769028
H        1.31067780      -0.13594998      -1.49643829
H        1.86280666      -0.87151448       0.01809297
H       -0.63450608       0.50884421       1.96902799
13
Frame=3 idx=004334 GeodesicLength=0.16066529906179502 rxn_smarts="[C:1]([C:2]([C:3]([H:10])([H:11])[H:12])([O:4][H:13])[C:5]#[N:6])([H:7])([H:8])[H:9]>>[C:1]([C:2]([C:3]([H:10])([H:11])[H:12])([O:4][H:13])[N+:6]#[C-:5])([H:7])([H:8])[H:9]"
C       -0.92668672      -0.92954393      -0.08060544
C        0.04286901       0.18762624       0.21759084
C        1.39767484       0.02088683      -0.42345971
O        0.21533730       0.47411904       1.52060816
C       -0.50335393       1.79379439      -0.93696524
N       -1.33155348       1.74507747      -0.11693293
H       -0.47066548      -1.86482457       0.25762469
H       -1.87661692      -0.78822574       0.43082559
H       -1.11448230      -1.00791321      -1.14880990
H        2.02233058       0.88758159      -0.22831414
H        1.31679507      -0.14181038      -1.49458548
H        1.85957310      -0.86528569       0.02404081
H       -0.63122107       0.48851797       1.97898274
13
Frame=4 idx=004334 GeodesicLength=0.21352070888550434 rxn_smarts="[C:1]([C:2]([C:3]([H:10])([H:11])[H:12])([O:4][H:13])[C:5]#[N:6])([H:7])([H:8])[H:9]>>[C:1]([C:2]([C:3]([H:10])([H:11])[H:12])([O:4][H:13])[N+:6]#[C-:5])([H:7])([H:8])[H:9]"
C       -0.92664820      -0.92867167      -0.08278746
C        0.03538821       0.19863596       0.21134210
C        1.39474124       0.02492568      -0.42225756
O        0.21436538       0.46575532       1.52314332
C       -0.52811546       1.77216781      -0.96640018
N       -1.29817589       1.77613239      -0.09334224
H       -0.47066046      -1.86059929       0.26373834
H       -1.88007463      -0.78666984       0.42245826
H       -1.10912656      -1.01926184      -1.15111230
H        2.01845981       0.89287065      -0.22852854
H        1.32208059      -0.14601419      -1.49290222
H        1.85636140      -0.85917201       0.02883269
H       -0.62859543       0.46990103       1.98781582
13
Frame=5 idx=004334 GeodesicLength=0.26620780727085913 rxn_smarts="[C:1]([C:2]([C:3]([H:10])([H:11])[H:12])([O:4][H:13])[C:5]#[N:6])([H:7])([H:8])[H:9]>>[C:1]([C:2]([C:3]([H:10])([H:11])[H:12])([O:4][H:13])[N+:6]#[C-:5])([H:7])([H:8])[H:9]"
C       -0.92657486      -0.92831500      -0.08471422
C        0.02795563       0.20896023       0.20553694
C        1.39159563       0.02914489      -0.42122278
O        0.21317854       0.45661371       1.52590711
C       -0.55457055       1.75029890      -0.99267155
N       -1.26125738       1.80729413      -0.07221476
H       -0.47080981      -1.85681404       0.27034217
H       -1.88363885      -0.78520414       0.41386764
H       -1.10317456      -1.03153652      -1.15305352
H        2.01443984       0.89815414      -0.22828296
H        1.32651371      -0.14851080      -1.49147935
H        1.85312040      -0.85328205       0.03244566
H       -0.62677775       0.45319654       1.99553961
13
Frame=6 idx=004334 GeodesicLength=0.3186324408461023 rxn_smarts="[C:1]([C:2]([C:3]([H:10])([H:11])[H:12])([O:4][H:13])[C:5]#[N:6])([H:7])([H:8])[H:9]>>[C:1]([C:2]([C:3]([H:10])([H:11])[H:12])([O:4][H:13])[N+:6]#[C-:5])([H:7])([H:8])[H:9]"
C       -0.92643404      -0.92849762      -0.08641639
C        0.02056044       0.21862303       0.20010059
C        1.38826586       0.03347414      -0.42036362
O        0.21173088       0.44688644       1.52880496
C       -0.58252170       1.72865653      -1.01547925
N       -1.22110290       1.83815276      -0.05374197
H       -0.47102936      -1.85347536       0.27735914
H       -1.88721585      -0.78406711       0.40518127
H       -1.09671651      -1.04457131      -1.15464196
H        2.01040633       0.90327281      -0.22753721
H        1.33010005      -0.14933463      -1.49037385
H        1.84980955      -0.84770160       0.03493890
H       -0.62585273       0.43858191       2.00216939
13
Frame=7 idx=004334 GeodesicLength=0.37055787215717906 rxn_smarts="[C:1]([C:2]([C:3]([H:10])([H:11])[H:12])([O:4][H:13])[C:5]#[N:6])([H:7])([H:8])[H:9]>>[C:1]([C:2]([C:3]([H:10])([H:11])[H:12])([O:4][H:13])[N+:6]#[C-:5])([H:7])([H:8])[H:9]"
C       -0.92620204      -0.92923290      -0.08788615
C        0.01317497       0.22765288       0.19501706
C        1.38474489       0.03785438      -0.41965087
O        0.20995170       0.43685753       1.53176496
C       -0.61144813       1.70753247      -1.03455381
N       -1.17823438       1.86844374      -0.03830407
H       -0.47115347      -1.85061552       0.28455676
H       -1.89066706      -0.78355314       0.39668530
H       -1.08993922      -1.05812855      -1.15584778
H        2.00646807       0.90807839      -0.22621926
H        1.33282519      -0.14845321      -1.48960251
H        1.84635699      -0.84254937       0.03627285
H       -0.62587749       0.42611329       2.00776753
13
Frame=8 idx=004334 GeodesicLength=0.4226037463651669 rxn_smarts="[C:1]([C:2]([C:3]([H:10])([H:11])[H:12])([O:4][H:13])[C:5]#[N:6])([H:7])([H:8])[H:9]>>[C:1]([C:2]([C:3]([H:10])([H:11])[H:12])([O:4][H:13])[N+:6]#[C-:5])([H:7])([H:8])[H:9]"
C       -0.92587308      -0.93052423      -0.08920310
C        0.00579024       0.23607148       0.19017464
C        1.38107938       0.04227488      -0.41909233
O        0.20781207       0.42652756       1.53473639
C       -0.64197002       1.68698803      -1.05012151
N       -1.13216049       1.89817285      -0.02548788
H       -0.47124984      -1.84820239       0.29203836
H       -1.89405714      -0.78365394       0.38816481
H       -1.08273294      -1.07222549      -1.15676525
H        2.00263301       0.91259568      -0.22436861
H        1.33478094      -0.14602735      -1.48918184
H        1.84280373      -0.83772251       0.03671925
H       -0.62685586       0.41572545       2.01238707
13
Frame=9 idx=004334 GeodesicLength=0.4745636637347544 rxn_smarts="[C:1]([C:2]([C:3]([H:10])([H:11])[H:12])([O:4][H:13])[C:5]#[N:6])([H:7])([H:8])[H:9]>>[C:1]([C:2]([C:3]([H:10])([H:11])[H:12])([O:4][H:13])[N+:6]#[C-:5])([H:7])([H:8])[H:9]"
C       -0.92543738      -0.93236015      -0.09032427
C       -0.00162092       0.24390575       0.18561952
C        1.37726573       0.04669419      -0.41860582
O        0.20523355       0.41622300       1.53770015
C       -0.67358315       1.66699475      -1.06198770
N       -1.08335576       1.92721033      -0.01586681
H       -0.47107412      -1.84628134       0.29940460
H       -1.89723214      -0.78467945       0.38003984
H       -1.07541454      -1.08653294      -1.15734344
H        1.99903840       0.91664905      -0.22177802
H        1.33594790      -0.14184633      -1.48908433
H        1.83905846      -0.83339460       0.03612612
H       -0.62882603       0.40741773       2.01610016
13
Frame=10 idx=004334 GeodesicLength=0.5264612434911344 rxn_smarts="[C:1]([C:2]([C:3]([H:10])([H:11])[H:12])([O:4][H:13])[C:5]#[N:6])([H:7])([H:8])[H:9]>>[C:1]([C:2]([C:3]([H:10])([H:11])[H:12])([O:4][H:13])[N+:6]#[C-:5])([H:7])([H:8])[H:9]"
C       -0.92485873      -0.93470469      -0.09136522
C       -0.00902057       0.25120758       0.18116557
C        1.37336643       0.05102949      -0.41824939
O        0.20224787       0.40602028       1.54051962
C       -0.70629651       1.64836920      -1.06992040
N       -1.03225469       1.95477051      -0.00916125
H       -0.47074976      -1.84473253       0.30690304
H       -1.90021009      -0.78665114       0.37210083
H       -1.06784402      -1.10097785      -1.15771232
H        1.99577682       0.92015733      -0.21865120
H        1.33638277      -0.13632242      -1.48930876
H        1.83514799      -0.82946552       0.03484262
H       -0.63168751       0.40129977       2.01883684
13
Frame=11 idx=004334 GeodesicLength=0.5786522560466971 rxn_smarts="[C:1]([C:2]([C:3]([H:10])([H:11])[H:12])([O:4][H:13])[C:5]#[N:6])([H:7])([H:8])[H:9]>>[C:1]([C:2]([C:3]([H:10])([H:11])[H:12])([O:4][H:13])[N+:6]#[C-:5])([H:7])([H:8])[H:9]"
C       -0.92413093      -0.93755726      -0.09226761
C       -0.01645100       0.25799992       0.17691187
C        1.36938241       0.05528162      -0.41792610
O        0.19874806       0.39610682       1.54330496
C       -0.74026285       1.63056734      -1.07402203
N       -0.97863282       1.98129490      -0.00583028
H       -0.47004031      -1.84365631       0.31417161
H       -1.90291893      -0.78973513       0.36464264
H       -1.06021625      -1.11538507      -1.15785761
H        1.99292986       0.92300413      -0.21466459
H        1.33611077      -0.12904697      -1.48985693
H        1.83100556      -0.82614092       0.03264607
H       -0.63552358       0.39726693       2.02074800
13
Frame=12 idx=004334 GeodesicLength=0.6309020995622244 rxn_smarts="[C:1]([C:2]([C:3]([H:10])([H:11])[H:12])([O:4][H:13])[C:5]#[N:6])([H:7])([H:8])[H:9]>>[C:1]([C:2]([C:3]([H:10])([H:11])[H:12])([O:4][H:13])[N+:6]#[C-:5])([H:7])([H:8])[H:9]"
C       -0.92322708      -0.94084481      -0.09314099
C       -0.02384244       0.26433942       0.17267774
C        1.36539413       0.05934556      -0.41768036
O        0.19479024       0.38663755       1.54590730
C       -0.77509835       1.61450012      -1.07402924
N       -0.92343356       2.00580321      -0.00566150
H       -0.46903693      -1.84291806       0.32134035
H       -1.90533188      -0.79395183       0.35757682
H       -1.05252761      -1.12954889      -1.15790721
H        1.99059348       0.92511536      -0.21009683
H        1.33520779      -0.12055015      -1.49067600
H        1.82668685      -0.82330164       0.02993335
H       -0.64017464       0.39537414       2.02175657
13
Frame=13 idx=004334 GeodesicLength=0.6833934238704221 rxn_smarts="[C:1]([C:2]([C:3]([H:10])([H:11])[H:12])([O:4][H:13])[C:5]#[N:6])([H:7])([H:8])[H:9]>>[C:1]([C:2]([C:3]([H:10])([H:11])[H:12])([O:4][H:13])[N+:6]#[C-:5])([H:7])([H:8])[H:9]"
C       -0.92213871      -0.94449043      -0.09393526
C       -0.03118486       0.27028634       0.16854701
C        1.36142338       0.06321543      -0.41741954
O        0.19035609       0.37780235       1.54838245
C       -0.81070332       1.59974938      -1.06995509
N       -0.86692354       2.02838399      -0.00909985
H       -0.46760593      -1.84250946       0.32814629
H       -1.90739107      -0.79935666       0.35111223
H       -1.04493068      -1.14325893      -1.15783237
H        1.98889896       0.92632893      -0.20465055
H        1.33371922      -0.11048438      -1.49170688
H        1.82208594      -0.82115117       0.02646444
H       -0.64560548       0.39548462       2.02194712
13
Frame=14 idx=004334 GeodesicLength=0.7359937513268175 rxn_smarts="[C:1]([C:2]([C:3]([H:10])([H:11])[H:12])([O:4][H:13])[C:5]#[N:6])([H:7])([H:8])[H:9]>>[C:1]([C:2]([C:3]([H:10])([H:11])[H:12])([O:4][H:13])[N+:6]#[C-:5])([H:7])([H:8])[H:9]"
C       -0.92085075      -0.94842569      -0.09473403
C       -0.03841911       0.27590280       0.16442075
C        1.35755718       0.06679619      -0.41716420
O        0.18550705       0.36971134       1.55073569
C       -0.84679961       1.58686240      -1.06181117
N       -0.80997749       2.04855453      -0.01596884
H       -0.46577260      -1.84238647       0.33463796
H       -1.90908618      -0.80587006       0.34520026
H       -1.03744784      -1.15637654      -1.15779783
H        1.98788546       0.92661976      -0.19850683
H        1.33176581      -0.09925166      -1.49294256
H        1.81730615      -0.81967682       0.02251966
H       -0.65166808       0.39754022       2.02141115
13
Frame=15 idx=004334 GeodesicLength=0.7889837691249771 rxn_smarts="[C:1]([C:2]([C:3]([H:10])([H:11])[H:12])([O:4][H:13])[C:5]#[N:6])([H:7])([H:8])[H:9]>>[C:1]([C:2]([C:3]([H:10])([H:11])[H:12])([O:4][H:13])[N+:6]#[C-:5])([H:7])([H:8])[H:9]"
C       -0.91936934      -0.95257791      -0.09557363
C       -0.04549833       0.28119987       0.16022423
C        1.35384934       0.07006028      -0.41689904
O        0.18026201       0.36238866       1.55287978
C       -0.88339052       1.57590944      -1.04950464
N       -0.75286447       2.06602484      -0.02619053
H       -0.46358280      -1.84244065       0.34080502
H       -1.91041877      -0.81341373       0.33978720
H       -1.03009169      -1.16879321      -1.15783060
H        1.98756312       0.92597564      -0.19175155
H        1.32943581      -0.08700573      -1.49427872
H        1.81239316      -0.81877340       0.01827222
H       -0.65828752       0.40144592       2.02006025
13
Frame=16 idx=004334 GeodesicLength=0.8420701087728327 rxn_smarts="[C:1]([C:2]([C:3]([H:10])([H:11])[H:12])([O:4][H:13])[C:5]#[N:6])([H:7])([H:8])[H:9]>>[C:1]([C:2]([C:3]([H:10])([H:11])[H:12])([O:4][H:13])[N+:6]#[C-:5])([H:7])([H:8])[H:9]"
C       -0.91770375      -0.95678954      -0.09643779
C       -0.05234063       0.28628096       0.15601713
C        1.35037082       0.07298164      -0.41656695
O        0.17474819       0.35597959       1.55487582
C       -0.91983780       1.56674499      -1.03328131
N       -0.69675531       2.08062084      -0.03988695
H       -0.46104935      -1.84260208       0.34650916
H       -1.91136219      -0.82180650       0.33496656
H       -1.02301011      -1.18027444      -1.15795110
H        1.98799606       0.92434127      -0.18430355
H        1.32688393      -0.07377936      -1.49563452
H        1.80730541      -0.81859563       0.01361943
H       -0.66524527       0.40689827       2.01807408
