13
Frame=0 idx=001149 GeodesicLength=0.0 rxn_smarts="[C:1]([C:2]([C:3]([H:10])([H:11])[H:12])([C:4](=[O:5])[H:13])[H:9])([H:6])([H:7])[H:8]>>[C:1]([C@@:4]1([H:13])[C@:2]([C:3]([H:10])([H:11])[H:12])([H:9])[O:5]1)([H:6])([H:7])[H:8]"
C       -1.23405304       1.06025698       0.80709512
C        0.28841764      -0.20329291      -0.79834203
C        0.78528645      -1.55950290      -0.59509745
C        0.19017625       0.76661032       0.30530975
O        1.09720318       0.40061275       1.18197046
H       -1.64588432       0.15660258       1.25797239
H       -1.15235673       1.82634552       1.57867712
H       -1.90431490       1.41092098       0.01806190
H        0.20951431       0.14993150      -1.82875821
H        1.86791841      -1.59548604      -0.76813784
H        0.33464047      -2.23669826      -1.32656001
H        0.64110373      -1.85536462       0.44617188
H        0.52234857       1.67906412      -0.27836311
13
Frame=1 idx=001149 GeodesicLength=0.11226453470207468 rxn_smarts="[C:1]([C:2]([C:3]([H:10])([H:11])[H:12])([C:4](=[O:5])[H:13])[H:9])([H:6])([H:7])[H:8]>>[C:1]([C@@:4]1([H:13])[C@:2]([C:3]([H:10])([H:11])[H:12])([H:9])[O:5]1)([H:6])([H:7])[H:8]"
C       -1.22673252       1.02052027       0.79278413
C        0.30539891      -0.18154713      -0.78784539
C        0.75957709      -1.55238775      -0.56609594
C        0.22749607       0.81639500       0.28888705
O        1.16570183       0.45042717       1.12843585
H       -1.65657889       0.08950515       1.16394342
H       -1.16965911       1.71262120       1.63366626
H       -1.88536816       1.44001645       0.02826671
H        0.23468426       0.15554536      -1.82418608
H        1.83769077      -1.62684223      -0.75250158
H        0.27645152      -2.22781345      -1.27799327
H        0.61862971      -1.82856435       0.48083973
H        0.51270853       1.73212431      -0.30820090
13
Frame=2 idx=001149 GeodesicLength=0.2240790013027225 rxn_smarts="[C:1]([C:2]([C:3]([H:10])([H:11])[H:12])([C:4](=[O:5])[H:13])[H:9])([H:6])([H:7])[H:8]>>[C:1]([C@@:4]1([H:13])[C@:2]([C:3]([H:10])([H:11])[H:12])([H:9])[O:5]1)([H:6])([H:7])[H:8]"
C       -1.21905801       0.98269343       0.77754475
C        0.31894110      -0.16241434      -0.77673511
C        0.73651716      -1.54447409      -0.53700789
C        0.26019333       0.86255368       0.27270031
O        1.22832506       0.49600547       1.07390354
H       -1.67275741       0.03402814       1.06650621
H       -1.17838069       1.59298739       1.68067521
H       -1.86728194       1.47310199       0.04735455
H        0.25718183       0.15889808      -1.81863708
H        1.80908141      -1.65264107      -0.73661397
H        0.22370735      -2.21815834      -1.22927271
H        0.60095677      -1.80229298       0.51516012
H        0.50257405       1.77971263      -0.33557794
13
Frame=3 idx=001149 GeodesicLength=0.3352392697932349 rxn_smarts="[C:1]([C:2]([C:3]([H:10])([H:11])[H:12])([C:4](=[O:5])[H:13])[H:9])([H:6])([H:7])[H:8]>>[C:1]([C@@:4]1([H:13])[C@:2]([C:3]([H:10])([H:11])[H:12])([H:9])[O:5]1)([H:6])([H:7])[H:8]"
C       -1.21150717       0.94666370       0.76126084
C        0.32950929      -0.14556562      -0.76496310
C        0.71618754      -1.53619287      -0.50782515
C        0.28894717       0.90548333       0.25678938
O        1.28583022       0.53806238       1.01831550
H       -1.69493353      -0.00935547       0.96544677
H       -1.18003603       1.46728505       1.71942156
H       -1.84929363       1.50992311       0.07600844
H        0.27715441       0.16013961      -1.81204128
H        1.78239175      -1.67397319      -0.72077210
H        0.17587220      -2.20843751      -1.18000893
H        0.58805935      -1.77680792       0.54914194
H        0.49181842       1.82277540      -0.36077386
13
Frame=4 idx=001149 GeodesicLength=0.44543786355532244 rxn_smarts="[C:1]([C:2]([C:3]([H:10])([H:11])[H:12])([C:4](=[O:5])[H:13])[H:9])([H:6])([H:7])[H:8]>>[C:1]([C@@:4]1([H:13])[C@:2]([C:3]([H:10])([H:11])[H:12])([H:9])[O:5]1)([H:6])([H:7])[H:8]"
C       -1.20452904       0.91243725       0.74400459
C        0.33747101      -0.13069884      -0.75256439
C        0.69846383      -1.52783082      -0.47866036
C        0.31443679       0.94547669       0.24124753
O        1.33875278       0.57682939       0.96196962
H       -1.72293923      -0.03988429       0.86193317
H       -1.17576819       1.33667707       1.74882125
H       -1.83135369       1.54836559       0.11452759
H        0.29477506       0.15951126      -1.80452138
H        1.75790352      -1.69154226      -0.70489074
H        0.13285961      -2.19893636      -1.13066775
H        0.57914862      -1.75238802       0.58270039
H        0.48077893       1.86198336      -0.38389952
13
Frame=5 idx=001149 GeodesicLength=0.5548573744933639 rxn_smarts="[C:1]([C:2]([C:3]([H:10])([H:11])[H:12])([C:4](=[O:5])[H:13])[H:9])([H:6])([H:7])[H:8]>>[C:1]([C@@:4]1([H:13])[C@:2]([C:3]([H:10])([H:11])[H:12])([H:9])[O:5]1)([H:6])([H:7])[H:8]"
C       -1.19836266       0.87987950       0.72554920
C        0.34316874      -0.11747719      -0.73948776
C        0.68313102      -1.51951624      -0.44942491
C        0.33714863       0.98283153       0.22605506
O        1.38744599       0.61266814       0.90484003
H       -1.75576246      -0.05723838       0.75660646
H       -1.16700738       1.20140247       1.76782853
H       -1.81275645       1.58696784       0.16317605
H        0.31021069       0.15734666      -1.79598252
H        1.73548270      -1.70594435      -0.68891467
H        0.09414948      -2.18984738      -1.08098479
H        0.57373033      -1.72906598       0.61588565
H        0.46942136       1.89799336      -0.40514632
13
Frame=6 idx=001149 GeodesicLength=0.6635208204017096 rxn_smarts="[C:1]([C:2]([C:3]([H:10])([H:11])[H:12])([C:4](=[O:5])[H:13])[H:9])([H:6])([H:7])[H:8]>>[C:1]([C@@:4]1([H:13])[C@:2]([C:3]([H:10])([H:11])[H:12])([H:9])[O:5]1)([H:6])([H:7])[H:8]"
C       -1.19325693       0.84905484       0.70597266
C        0.34701272      -0.10559750      -0.72580523
C        0.66988920      -1.51137347      -0.42034814
C        0.35760614       1.01778250       0.21141629
O        1.43220789       0.64560547       0.84736502
H       -1.79166522      -0.06154334       0.65175884
H       -1.15524575       1.06390285       1.77526738
H       -1.79352189       1.62276110       0.22109227
H        0.32363090       0.15398543      -1.78655162
H        1.71506506      -1.71779624      -0.67278306
H        0.05941798      -2.18116626      -1.03160241
H        0.57084445      -1.70694787       0.64850327
H        0.45801545       1.93133249      -0.42428527
13
Frame=7 idx=001149 GeodesicLength=0.7719796229767969 rxn_smarts="[C:1]([C:2]([C:3]([H:10])([H:11])[H:12])([C:4](=[O:5])[H:13])[H:9])([H:6])([H:7])[H:8]>>[C:1]([C@@:4]1([H:13])[C@:2]([C:3]([H:10])([H:11])[H:12])([H:9])[O:5]1)([H:6])([H:7])[H:8]"
C       -1.18931100       0.81993847       0.68534980
C        0.34940953      -0.09468579      -0.71155384
C        0.65833992      -1.50339761      -0.39158670
C        0.37632958       1.05052394       0.19750657
O        1.47345235       0.67563281       0.78974015
H       -1.82860032      -0.05395501       0.54972158
H       -1.14211491       0.92670889       1.77059730
H       -1.77354356       1.65307855       0.28649952
H        0.33520599       0.14996858      -1.77624392
H        1.69635095      -1.72758744      -0.65655975
H        0.02799078      -2.17270525      -0.98278290
H        0.56967649      -1.68604937       0.68038973
H        0.44681419       1.96252923      -0.44107753
13
Frame=8 idx=001149 GeodesicLength=0.8802962215090009 rxn_smarts="[C:1]([C:2]([C:3]([H:10])([H:11])[H:12])([C:4](=[O:5])[H:13])[H:9])([H:6])([H:7])[H:8]>>[C:1]([C@@:4]1([H:13])[C@:2]([C:3]([H:10])([H:11])[H:12])([H:9])[O:5]1)([H:6])([H:7])[H:8]"
C       -1.18637452       0.79250538       0.66399847
C        0.35077501      -0.08444344      -0.69679992
C        0.64805629      -1.49554927      -0.36352591
C        0.39373053       1.08113861       0.18465019
O        1.51129641       0.70257343       0.73229130
H       -1.86413714      -0.03669813       0.45331530
H       -1.12897818       0.79391750       1.75414032
H       -1.75307163       1.67520011       0.35642850
H        0.34507687       0.14571561      -1.76502919
H        1.67891008      -1.73580929      -0.64039633
H       -0.00055896      -2.16414323      -0.93528632
H        0.56925312      -1.66633613       0.71109278
H        0.43602211       1.99192887      -0.45487919
13
Frame=9 idx=001149 GeodesicLength=0.9889665616900472 rxn_smarts="[C:1]([C:2]([C:3]([H:10])([H:11])[H:12])([C:4](=[O:5])[H:13])[H:9])([H:6])([H:7])[H:8]>>[C:1]([C@@:4]1([H:13])[C@:2]([C:3]([H:10])([H:11])[H:12])([H:9])[O:5]1)([H:6])([H:7])[H:8]"
C       -1.18437532       0.76662792       0.64225283
C        0.35146177      -0.07452150      -0.68164011
C        0.63869682      -1.48781045      -0.33637312
C        0.41035166       1.10976637       0.17304400
O        1.54645244       0.72632566       0.67503164
H       -1.89693891      -0.01257820       0.36450046
H       -1.11696061       0.66842187       1.72750181
H       -1.73255750       1.68785649       0.42746486
H        0.35327847       0.14184887      -1.75298634
H        1.66250201      -1.74287668      -0.62448926
H       -0.02693444      -2.15521467      -0.88941022
H        0.56903139      -1.64788664       0.74042077
H        0.42599223       2.02004096      -0.46531733
13
Frame=10 idx=001149 GeodesicLength=1.0977656322371367 rxn_smarts="[C:1]([C:2]([C:3]([H:10])([H:11])[H:12])([C:4](=[O:5])[H:13])[H:9])([H:6])([H:7])[H:8]>>[C:1]([C@@:4]1([H:13])[C@:2]([C:3]([H:10])([H:11])[H:12])([H:9])[O:5]1)([H:6])([H:7])[H:8]"
C       -1.18293937       0.74209737       0.62041892
C        0.35169718      -0.06482389      -0.66616349
C        0.63000305      -1.48012516      -0.31031971
C        0.42639556       1.13647425       0.16284352
O        1.57890043       0.74706841       0.61792331
H       -1.92590740       0.01598564       0.28387880
H       -1.10651344       0.55231044       1.69277865
H       -1.71210924       1.69090063       0.49705051
H        0.35986121       0.13839732      -1.74015131
H        1.64671209      -1.74904002      -0.60900200
H       -0.05137229      -2.14581179      -0.84544455
H        0.56857966      -1.63046822       0.76817166
H        0.41669258       2.04703503      -0.47198430
13
Frame=11 idx=001149 GeodesicLength=1.2068863603742699 rxn_smarts="[C:1]([C:2]([C:3]([H:10])([H:11])[H:12])([C:4](=[O:5])[H:13])[H:9])([H:6])([H:7])[H:8]>>[C:1]([C@@:4]1([H:13])[C@:2]([C:3]([H:10])([H:11])[H:12])([H:9])[O:5]1)([H:6])([H:7])[H:8]"
C       -1.18195480       0.71863976       0.59868945
C        0.35161925      -0.05518898      -0.65051593
C        0.62182383      -1.47256658      -0.28534373
C        0.44224485       1.16149886       0.15404612
O        1.60923926       0.76514221       0.56080842
H       -1.95110866       0.04692281       0.21131493
H       -1.09787262       0.44602247       1.65231820
H       -1.69199331       1.68521218       0.56316650
H        0.36472840       0.13563702      -1.72680909
H        1.63147376      -1.75449331      -0.59395213
H       -0.07431935      -2.13607912      -0.80338362
H        0.56778225      -1.61414616       0.79451706
H        0.40833712       2.07339884      -0.47485617
13
Frame=12 idx=001149 GeodesicLength=1.3163856323639638 rxn_smarts="[C:1]([C:2]([C:3]([H:10])([H:11])[H:12])([C:4](=[O:5])[H:13])[H:9])([H:6])([H:7])[H:8]>>[C:1]([C@@:4]1([H:13])[C@:2]([C:3]([H:10])([H:11])[H:12])([H:9])[O:5]1)([H:6])([H:7])[H:8]"
C       -1.18137728       0.69602774       0.57719422
C        0.35132656      -0.04556505      -0.63480843
C        0.61413170      -1.46515440      -0.26135359
C        0.45815589       1.18499100       0.14653925
O        1.63782357       0.78086277       0.50337486
H       -1.97301807       0.07900941       0.14609021
H       -1.09113443       0.34907050       1.60809218
H       -1.67230076       1.67209652       0.62484401
H        0.36785609       0.13359877      -1.71318878
H        1.61683667      -1.75933152      -0.57931151
H       -0.09595684      -2.12613218      -0.76307426
H        0.56661544      -1.59883131       0.81966298
H        0.40104143       2.09935777      -0.47406113
13
Frame=13 idx=001149 GeodesicLength=1.4262504583782025 rxn_smarts="[C:1]([C:2]([C:3]([H:10])([H:11])[H:12])([C:4](=[O:5])[H:13])[H:9])([H:6])([H:7])[H:8]>>[C:1]([C@@:4]1([H:13])[C@:2]([C:3]([H:10])([H:11])[H:12])([H:9])[O:5]1)([H:6])([H:7])[H:8]"
C       -1.18115678       0.67409800       0.55596421
C        0.35086196      -0.03591641      -0.61910528
C        0.60691569      -1.45785233      -0.23824293
C        0.47430230       1.20703570       0.14018008
O        1.66478154       0.79442986       0.44532005
H       -1.99211217       0.11134946       0.08757449
H       -1.08624927       0.26062614       1.56155634
H       -1.65298647       1.65288827       0.68148324
H        0.36920331       0.13228658      -1.69941743
H        1.60284161      -1.76355276      -0.56493510
H       -0.11629559      -2.11600908      -0.72441395
H        0.56500858      -1.58437718       0.84376503
H        0.39488529       2.12499374      -0.46972873
13
Frame=14 idx=001149 GeodesicLength=1.5363476037750226 rxn_smarts="[C:1]([C:2]([C:3]([H:10])([H:11])[H:12])([C:4](=[O:5])[H:13])[H:9])([H:6])([H:7])[H:8]>>[C:1]([C@@:4]1([H:13])[C@:2]([C:3]([H:10])([H:11])[H:12])([H:9])[O:5]1)([H:6])([H:7])[H:8]"
C       -1.18121180       0.65273162       0.53501134
C        0.35025290      -0.02636485      -0.60341307
C        0.60026027      -1.45064320      -0.21588568
C        0.49067623       1.22769886       0.13481187
O        1.68988906       0.80618739       0.38629441
H       -2.00879933       0.14415082       0.03447663
H       -1.08314090       0.17955910       1.51352855
H       -1.63382149       1.62869405       0.73361420
H        0.36882378       0.13128728      -1.68550248
H        1.58954885      -1.76718693      -0.55075110
H       -0.13519131      -2.10585726      -0.68713492
H        0.56302915      -1.57046989       0.86695441
H        0.38968460       2.15021301      -0.46200415
13
Frame=15 idx=001149 GeodesicLength=1.646679294436869 rxn_smarts="[C:1]([C:2]([C:3]([H:10])([H:11])[H:12])([C:4](=[O:5])[H:13])[H:9])([H:6])([H:7])[H:8]>>[C:1]([C@@:4]1([H:13])[C@:2]([C:3]([H:10])([H:11])[H:12])([H:9])[O:5]1)([H:6])([H:7])[H:8]"
C       -1.18152343       0.63181896       0.51428621
C        0.34950876      -0.01690272      -0.58776431
C        0.59417669      -1.44351745      -0.19415972
C        0.50738338       1.24708563       0.13027297
O        1.71309439       0.81635373       0.32608437
H       -2.02345548       0.17720964      -0.01380642
H       -1.08167090       0.10488975       1.46463807
H       -1.61472539       1.60044857       0.78129413
H        0.36669188       0.13052653      -1.67151863
H        1.57703442      -1.77021711      -0.53656514
H       -0.15261074      -2.09578056      -0.65114459
H        0.56060542      -1.55699443       0.88939143
H        0.38549098       2.17507946      -0.45100837
13
Frame=16 idx=001149 GeodesicLength=1.7572294644740254 rxn_smarts="[C:1]([C:2]([C:3]([H:10])([H:11])[H:12])([C:4](=[O:5])[H:13])[H:9])([H:6])([H:7])[H:8]>>[C:1]([C@@:4]1([H:13])[C@:2]([C:3]([H:10])([H:11])[H:12])([H:9])[O:5]1)([H:6])([H:7])[H:8]"
C       -1.18208577       0.61127790       0.49373801
C        0.34863309      -0.00753602      -0.57217857
C        0.58868596      -1.43646776      -0.17295255
C        0.52450327       1.26529538       0.12640361
O        1.73427056       0.82513517       0.26451897
H       -2.03640612       0.21051385      -0.05781834
H       -1.08169274       0.03571034       1.41526484
H       -1.59560779       1.56890844       0.82474057
H        0.36279523       0.12988973      -1.65751337
H        1.56539426      -1.77262186      -0.52218581
H       -0.16849546      -2.08588973      -0.61637738
H        0.55765183      -1.54383774       0.91121690
H        0.38235368       2.19962229      -0.43685687
