9
Frame=0 idx=002672 GeodesicLength=0.0 rxn_smarts="[C:1](#[C:2][C:3]([C:4]#[C:5][H:9])([H:7])[H:8])[H:6]>>[C:1]1([H:6])=[C-:2][C:3]([H:7])([H:8])[C+:4]=[C:5]1[H:9]"
C        0.94089523      -1.12943619       0.03815203
C        0.77268795       0.08347228      -0.11808753
C       -0.00111489       1.30073954      -0.16911386
C       -1.29423021       0.49729733       0.09911607
C       -0.85380432      -0.75766296       0.20794670
H        1.46291165      -2.05781420       0.10190022
H        0.24351240       2.01150746       0.61731937
H        0.00613792       1.79088730      -1.14028141
H       -1.27699572      -1.73899055       0.36304840
9
Frame=1 idx=002672 GeodesicLength=0.08164694993477646 rxn_smarts="[C:1](#[C:2][C:3]([C:4]#[C:5][H:9])([H:7])[H:8])[H:6]>>[C:1]1([H:6])=[C-:2][C:3]([H:7])([H:8])[C+:4]=[C:5]1[H:9]"
C        0.94603942      -1.12735163       0.04337409
C        0.78746440       0.08803575      -0.11834363
C        0.00166094       1.29929117      -0.16937495
C       -1.28469864       0.49396178       0.09767053
C       -0.87128527      -0.76515589       0.21113601
H        1.48307642      -2.04853238       0.09184093
H        0.24139468       2.01102013       0.61773779
H        0.00649431       1.78764863      -1.14150948
H       -1.31014626      -1.73891756       0.36746872
9
Frame=2 idx=002672 GeodesicLength=0.16329350629440514 rxn_smarts="[C:1](#[C:2][C:3]([C:4]#[C:5][H:9])([H:7])[H:8])[H:6]>>[C:1]1([H:6])=[C-:2][C:3]([H:7])([H:8])[C+:4]=[C:5]1[H:9]"
C        0.95132518      -1.12523531       0.04695915
C        0.80286634       0.09278291      -0.11920096
C        0.00457400       1.29761665      -0.16956001
C       -1.27475729       0.49001354       0.09642555
C       -0.88906174      -0.77296622       0.21412640
H        1.50354534      -2.03847045       0.08328109
H        0.23944582       2.01009623       0.61838373
H        0.00653131       1.78454596      -1.14247305
H       -1.34446895      -1.73838330       0.37205812
9
Frame=3 idx=002672 GeodesicLength=0.24493981258506592 rxn_smarts="[C:1](#[C:2][C:3]([C:4]#[C:5][H:9])([H:7])[H:8])[H:6]>>[C:1]1([H:6])=[C-:2][C:3]([H:7])([H:8])[C+:4]=[C:5]1[H:9]"
C        0.95661690      -1.12323813       0.04742448
C        0.81879323       0.09762750      -0.12168009
C        0.00762060       1.29572023      -0.16961888
C       -1.26433873       0.48546440       0.09577442
C       -0.90719586      -0.78116273       0.21645623
H        1.52462266      -2.02748210       0.07825777
H        0.23819730       2.00832952       0.61952269
H        0.00572342       1.78205953      -1.14288132
H       -1.38003951      -1.73731822       0.37674470
9
Frame=4 idx=002672 GeodesicLength=0.3265830317208569 rxn_smarts="[C:1](#[C:2][C:3]([C:4]#[C:5][H:9])([H:7])[H:8])[H:6]>>[C:1]1([H:6])=[C-:2][C:3]([H:7])([H:8])[C+:4]=[C:5]1[H:9]"
C        0.96244742      -1.12081615       0.04857384
C        0.83564963       0.10295635      -0.12302640
C        0.01079311       1.29357082      -0.16964852
C       -1.25361255       0.48002988       0.09403846
C       -0.92560615      -0.78971281       0.21859577
H        1.54545867      -2.01627329       0.07112043
H        0.23582647       2.00662142       0.62074398
H        0.00572202       1.77911901      -1.14335067
H       -1.41667862      -1.73549522       0.38295311
9
Frame=5 idx=002672 GeodesicLength=0.40822521872884954 rxn_smarts="[C:1](#[C:2][C:3]([C:4]#[C:5][H:9])([H:7])[H:8])[H:6]>>[C:1]1([H:6])=[C-:2][C:3]([H:7])([H:8])[C+:4]=[C:5]1[H:9]"
C        0.96831707      -1.11850208       0.04606000
C        0.85297515       0.10833544      -0.12682904
C        0.01407893       1.29115745      -0.16959935
C       -1.24217162       0.47408868       0.09444221
C       -0.94423344      -0.79851735       0.22140136
H        1.56713478      -2.00404402       0.06917268
H        0.23510599       2.00413901       0.62203783
H        0.00374335       1.77658863      -1.14337608
H       -1.45495022      -1.73324575       0.38669039
9
Frame=6 idx=002672 GeodesicLength=0.48986357529127816 rxn_smarts="[C:1](#[C:2][C:3]([C:4]#[C:5][H:9])([H:7])[H:8])[H:6]>>[C:1]1([H:6])=[C-:2][C:3]([H:7])([H:8])[C+:4]=[C:5]1[H:9]"
C        0.97494186      -1.11556988       0.04503684
C        0.87140923       0.11438010      -0.12869007
C        0.01748988       1.28845505      -0.16950619
C       -1.23049181       0.46699397       0.09265705
C       -0.96319839      -0.80780399       0.22340272
H        1.58828843      -1.99184218       0.06349102
H        0.23240468       2.00172781       0.62360615
H        0.00334982       1.77353898      -1.14346798
H       -1.49419371      -1.72987986       0.39347046
9
Frame=7 idx=002672 GeodesicLength=0.5715003280879958 rxn_smarts="[C:1](#[C:2][C:3]([C:4]#[C:5][H:9])([H:7])[H:8])[H:6]>>[C:1]1([H:6])=[C-:2][C:3]([H:7])([H:8])[C+:4]=[C:5]1[H:9]"
C        0.98196661      -1.11239936       0.04230502
C        0.89046409       0.12062449      -0.13226220
C        0.02099597       1.28541790      -0.16944182
C       -1.21792353       0.45936960       0.09387993
C       -0.98217513      -0.81717208       0.22783048
H        1.60997993      -1.97885727       0.06120898
H        0.23137914       1.99921914       0.62446816
H        0.00068794       1.76993288      -1.14363934
H       -1.53537502      -1.72613530       0.39565080
9
Frame=8 idx=002672 GeodesicLength=0.6531342791243745 rxn_smarts="[C:1](#[C:2][C:3]([C:4]#[C:5][H:9])([H:7])[H:8])[H:6]>>[C:1]1([H:6])=[C-:2][C:3]([H:7])([H:8])[C+:4]=[C:5]1[H:9]"
C        0.98977620      -1.10861223       0.04043147
C        0.91076623       0.12769942      -0.13332593
C        0.02463683       1.28206498      -0.16919178
C       -1.20538583       0.45009905       0.09015179
C       -1.00187356      -0.82747516       0.22829532
H        1.63106159      -1.96606404       0.05434633
H        0.22688065       1.99601006       0.62676276
H        0.00119769       1.76670254      -1.14332130
H       -1.57705980      -1.72042464       0.40585135
9
Frame=9 idx=002672 GeodesicLength=0.7347601371470016 rxn_smarts="[C:1](#[C:2][C:3]([C:4]#[C:5][H:9])([H:7])[H:8])[H:6]>>[C:1]1([H:6])=[C-:2][C:3]([H:7])([H:8])[C+:4]=[C:5]1[H:9]"
C        0.99790130      -1.10470860       0.03535266
C        0.93147927       0.13478689      -0.13792401
C        0.02835061       1.27830209      -0.16899784
C       -1.19160491       0.44048046       0.09188753
C       -1.02143360      -0.83767046       0.23295020
H        1.65315844      -1.95213194       0.05398545
H        0.22576803       1.99260714       0.62790759
H       -0.00244570       1.76279722      -1.14305769
H       -1.62117344      -1.71446281       0.40789610
9
Frame=10 idx=002672 GeodesicLength=0.8163809665232876 rxn_smarts="[C:1](#[C:2][C:3]([C:4]#[C:5][H:9])([H:7])[H:8])[H:6]>>[C:1]1([H:6])=[C-:2][C:3]([H:7])([H:8])[C+:4]=[C:5]1[H:9]"
C        1.00693227      -1.10009706       0.03121918
C        0.95336754       0.14267252      -0.14062924
C        0.03216781       1.27413505      -0.16869358
C       -1.17756368       0.42931651       0.09055492
C       -1.04155457      -0.84859432       0.23551429
H        1.67485079      -1.93828324       0.05023893
H        0.22217690       1.98873591       0.62981143
H       -0.00415895       1.75873005      -1.14257921
H       -1.66621810      -1.70661540       0.41456328
9
Frame=11 idx=002672 GeodesicLength=0.8980081756904795 rxn_smarts="[C:1](#[C:2][C:3]([C:4]#[C:5][H:9])([H:7])[H:8])[H:6]>>[C:1]1([H:6])=[C-:2][C:3]([H:7])([H:8])[C+:4]=[C:5]1[H:9]"
C        1.01678161      -1.09490851       0.02679419
C        0.97619989       0.15114610      -0.14316853
C        0.03606538       1.26950106      -0.16835614
C       -1.16287131       0.41690821       0.08910062
C       -1.06194319      -0.85990293       0.23877829
H        1.69668433      -1.92413296       0.04615928
H        0.21802805       1.98451567       0.63172074
H       -0.00605327       1.75414064      -1.14205513
H       -1.71289149      -1.69726729       0.42102669
9
Frame=12 idx=002672 GeodesicLength=0.9796198367342102 rxn_smarts="[C:1](#[C:2][C:3]([C:4]#[C:5][H:9])([H:7])[H:8])[H:6]>>[C:1]1([H:6])=[C-:2][C:3]([H:7])([H:8])[C+:4]=[C:5]1[H:9]"
C        1.02793798      -1.08862759       0.02585282
C        0.99989759       0.16016796      -0.14570972
C        0.03997567       1.26429892      -0.16821512
C       -1.14688114       0.40383851       0.09270717
C       -1.08205136      -0.87090644       0.24817443
H        1.71842363      -1.90990593       0.04036182
H        0.21543947       1.98173618       0.63121149
H       -0.01081400       1.74658382      -1.14273629
H       -1.76192784      -1.68718542       0.41835339
9
Frame=13 idx=002672 GeodesicLength=1.0612404612911575 rxn_smarts="[C:1](#[C:2][C:3]([C:4]#[C:5][H:9])([H:7])[H:8])[H:6]>>[C:1]1([H:6])=[C-:2][C:3]([H:7])([H:8])[C+:4]=[C:5]1[H:9]"
C        1.03978495      -1.08197600       0.02273140
C        1.02449349       0.16980531      -0.14838288
C        0.04397267       1.25856492      -0.16783833
C       -1.13051915       0.38900535       0.09337031
C       -1.10310497      -0.88290099       0.25340411
H        1.74066047      -1.89520028       0.03532169
H        0.21112964       1.97727109       0.63230255
H       -0.01439718       1.73994173      -1.14245628
H       -1.81201993      -1.67451112       0.42154742
9
Frame=14 idx=002672 GeodesicLength=1.1428562562151516 rxn_smarts="[C:1](#[C:2][C:3]([C:4]#[C:5][H:9])([H:7])[H:8])[H:6]>>[C:1]1([H:6])=[C-:2][C:3]([H:7])([H:8])[C+:4]=[C:5]1[H:9]"
C        1.05180769      -1.07554332       0.01305551
C        1.04979296       0.17991018      -0.15218042
C        0.04802670       1.25223192      -0.16704890
C       -1.11416143       0.37189025       0.08795624
C       -1.12572371      -0.89640551       0.25046216
H        1.76388012      -1.87955543       0.03463449
H        0.20426627       1.96921275       0.63690707
H       -0.01573553       1.73631064      -1.14005764
H       -1.86215307      -1.65805149       0.43627149
9
Frame=15 idx=002672 GeodesicLength=1.2244568358822032 rxn_smarts="[C:1](#[C:2][C:3]([C:4]#[C:5][H:9])([H:7])[H:8])[H:6]>>[C:1]1([H:6])=[C-:2][C:3]([H:7])([H:8])[C+:4]=[C:5]1[H:9]"
C        1.06581503      -1.06741113       0.01129798
C        1.07624059       0.19103162      -0.15280574
C        0.05203680       1.24517024      -0.16645851
C       -1.09662909       0.35368419       0.08596651
C       -1.14833217      -0.90952172       0.25337715
H        1.78650561      -1.86462874       0.02572576
H        0.19681255       1.96327560       0.63871046
H       -0.01810479       1.72848336      -1.13947903
H       -1.91434453      -1.64008343       0.44366542
9
Frame=16 idx=002672 GeodesicLength=1.3060578905365243 rxn_smarts="[C:1](#[C:2][C:3]([C:4]#[C:5][H:9])([H:7])[H:8])[H:6]>>[C:1]1([H:6])=[C-:2][C:3]([H:7])([H:8])[C+:4]=[C:5]1[H:9]"
C        1.08059699      -1.05898241       0.00690718
C        1.10297772       0.20230481      -0.15703414
C        0.05600670       1.23732344      -0.16580042
C       -1.07772742       0.33442998       0.08877868
C       -1.17119319      -0.92240642       0.26071943
H        1.81037298      -1.84865161       0.02160273
H        0.19209296       1.95676388       0.63976353
H       -0.02445870       1.71947769      -1.13866710
H       -1.96866804      -1.62025936       0.44373012
