14
Frame=0 idx=003807 GeodesicLength=0.0 rxn_smarts="[C:1]([C@@:2]1([H:10])[C@@:3]2([H:11])[C:4]([H:12])([H:13])[O:5][C@@:6]12[H:14])([H:7])([H:8])[H:9]>>[C:1]([C@@:2]1([H:10])[C@@:3]2([H:11])[C-:4]=[O+:5][C@@:6]12[H:14])([H:7])([H:8])[H:9].[H:12][H:13]"
C        1.46681633      -0.37918666       0.46820596
C        0.63806365       0.57537072      -0.34064980
C       -0.71714544       0.23293076      -0.97135884
C       -1.65101918      -0.43232048      -0.01426535
O       -1.29728651       0.36758072       1.04972862
C       -0.57521297       1.23325289       0.16182045
H        0.84799985      -0.97908559       1.13701813
H        2.18102551       0.16985795       1.08409288
H        2.02273438      -1.05685971      -0.18196492
H        1.19659323       1.21740527      -1.01522924
H       -0.91715968       0.38214384      -2.02129732
H       -0.75324278      -1.92577574       0.24122108
H       -1.63020050      -1.69111784       0.19444320
H       -0.81196591       2.28580392       0.20823517
14
Frame=1 idx=003807 GeodesicLength=0.054413041009312206 rxn_smarts="[C:1]([C@@:2]1([H:10])[C@@:3]2([H:11])[C:4]([H:12])([H:13])[O:5][C@@:6]12[H:14])([H:7])([H:8])[H:9]>>[C:1]([C@@:2]1([H:10])[C@@:3]2([H:11])[C-:4]=[O+:5][C@@:6]12[H:14])([H:7])([H:8])[H:9].[H:12][H:13]"
C        1.47104788      -0.37439585       0.46903701
C        0.64029860       0.57840917      -0.34035933
C       -0.71490552       0.23448012      -0.96914139
C       -1.64036469      -0.43741303      -0.00775917
O       -1.29377460       0.37153664       1.05202456
C       -0.57393955       1.23646694       0.16155370
H        0.85406893      -0.97107322       1.14226050
H        2.18840603       0.17596107       1.08011309
H        2.02396644      -1.05478164      -0.18083177
H        1.19813657       1.22056029      -1.01551037
H       -0.91649121       0.38018111      -2.01924933
H       -0.77075834      -1.93847994       0.23950637
H       -1.65621398      -1.71088731       0.18128236
H       -0.80947656       2.28943565       0.20707377
14
Frame=2 idx=003807 GeodesicLength=0.10884723429537704 rxn_smarts="[C:1]([C@@:2]1([H:10])[C@@:3]2([H:11])[C:4]([H:12])([H:13])[O:5][C@@:6]12[H:14])([H:7])([H:8])[H:9]>>[C:1]([C@@:2]1([H:10])[C@@:3]2([H:11])[C-:4]=[O+:5][C@@:6]12[H:14])([H:7])([H:8])[H:9].[H:12][H:13]"
C        1.47545813      -0.36945686       0.46991409
C        0.64258357       0.58148193      -0.34002088
C       -0.71263671       0.23587869      -0.96674827
C       -1.62926736      -0.44285134      -0.00087723
O       -1.29019341       0.37548128       1.05444944
C       -0.57265913       1.23962668       0.16135466
H        0.86048278      -0.96271906       1.14782212
H        2.19611322       0.18228840       1.07587966
H        2.02516836      -1.05274249      -0.17960713
H        1.19961598       1.22372828      -1.01585519
H       -0.91590867       0.37796660      -2.01700327
H       -0.78904427      -1.95155246       0.23799479
H       -1.68261782      -1.73012058       0.16682096
H       -0.80709466       2.29299092       0.20587623
14
Frame=3 idx=003807 GeodesicLength=0.16328775674025606 rxn_smarts="[C:1]([C@@:2]1([H:10])[C@@:3]2([H:11])[C:4]([H:12])([H:13])[O:5][C@@:6]12[H:14])([H:7])([H:8])[H:9]>>[C:1]([C@@:2]1([H:10])[C@@:3]2([H:11])[C-:4]=[O+:5][C@@:6]12[H:14])([H:7])([H:8])[H:9].[H:12][H:13]"
C        1.48005805      -0.36436158       0.47083999
C        0.64491882       0.58458452      -0.33963362
C       -0.71033616       0.23710571      -0.96417332
C       -1.61771123      -0.44865041       0.00638260
O       -1.28654355       0.37939270       1.05700054
C       -0.57137679       1.24271690       0.16122494
H        0.86726228      -0.95401000       1.15370811
H        2.20415223       0.18885339       1.07138618
H        2.02635272      -1.05073525      -0.17827984
H        1.20102388       1.22690695      -1.01626643
H       -0.91540927       0.37548066      -2.01455110
H       -0.80814883      -1.96501188       0.23662436
H       -1.70940814      -1.74872415       0.15109385
H       -0.80483401       2.29645245       0.20464374
14
Frame=4 idx=003807 GeodesicLength=0.2177085993118986 rxn_smarts="[C:1]([C@@:2]1([H:10])[C@@:3]2([H:11])[C:4]([H:12])([H:13])[O:5][C@@:6]12[H:14])([H:7])([H:8])[H:9]>>[C:1]([C@@:2]1([H:10])[C@@:3]2([H:11])[C-:4]=[O+:5][C@@:6]12[H:14])([H:7])([H:8])[H:9].[H:12][H:13]"
C        1.48486068      -0.35910078       0.47181750
C        0.64730560       0.58771274      -0.33919641
C       -0.70799802       0.23813904      -0.96141308
C       -1.60567812      -0.45482984       0.01401755
O       -1.28282537       0.38324115       1.05967256
C       -0.57009885       1.24571881       0.16116595
H        0.87443145      -0.94493143       1.15992347
H        2.21252938       0.19567112       1.06662541
H        2.02753438      -1.04875179      -0.17683805
H        1.20235313       1.23009673      -1.01674437
H       -0.91498623       0.37270255      -2.01188722
H       -0.82812768      -1.97887151       0.23531985
H       -1.73658787      -1.76659564       0.13415763
H       -0.80271249       2.29979884       0.20337921
14
Frame=5 idx=003807 GeodesicLength=0.27209910442041524 rxn_smarts="[C:1]([C@@:2]1([H:10])[C@@:3]2([H:11])[C:4]([H:12])([H:13])[O:5][C@@:6]12[H:14])([H:7])([H:8])[H:9]>>[C:1]([C@@:2]1([H:10])[C@@:3]2([H:11])[C-:4]=[O+:5][C@@:6]12[H:14])([H:7])([H:8])[H:9].[H:12][H:13]"
C        1.48987960      -0.35366509       0.47284826
C        0.64974561       0.59086295      -0.33870858
C       -0.70561481       0.23895619      -0.95846609
C       -1.59315036      -0.46140893       0.02201994
O       -1.27903947       0.38699333       1.06245851
C       -0.56883254       1.24861181       0.16117859
H        0.88201290      -0.93547330       1.16646787
H        2.22124901       0.20275632       1.06159354
H        2.02873196      -1.04678065      -0.17527209
H        1.20359724       1.23330040      -1.01728814
H       -0.91462879       0.36961340      -2.00900906
H       -0.84903138      -1.99314041       0.23400829
H       -1.76416883      -1.78363273       0.11608301
H       -0.80075016       2.30300672       0.20208596
14
Frame=6 idx=003807 GeodesicLength=0.3264418734682542 rxn_smarts="[C:1]([C@@:2]1([H:10])[C@@:3]2([H:11])[C:4]([H:12])([H:13])[O:5][C@@:6]12[H:14])([H:7])([H:8])[H:9]>>[C:1]([C@@:2]1([H:10])[C@@:3]2([H:11])[C-:4]=[O+:5][C@@:6]12[H:14])([H:7])([H:8])[H:9].[H:12][H:13]"
C        1.49513377      -0.34804138       0.47393451
C        0.65224278       0.59403154      -0.33816878
C       -0.70317367       0.23953087      -0.95533342
C       -1.58010460      -0.46841472       0.03037655
O       -1.27518409       0.39060344       1.06534861
C       -0.56758596       1.25136950       0.16126418
H        0.89003799      -0.92561821       1.17334419
H        2.23032001       0.21013023       1.05628276
H        2.02996919      -1.04480801      -0.17356955
H        1.20474982       1.23652428      -1.01789393
H       -0.91431993       0.36619135      -2.00591594
H       -0.87092889      -2.00781787       0.23259733
H       -1.79218431      -1.79972630       0.09696244
H       -0.79897212       2.30604527       0.20077105
14
Frame=7 idx=003807 GeodesicLength=0.3807413072816709 rxn_smarts="[C:1]([C@@:2]1([H:10])[C@@:3]2([H:11])[C:4]([H:12])([H:13])[O:5][C@@:6]12[H:14])([H:7])([H:8])[H:9]>>[C:1]([C@@:2]1([H:10])[C@@:3]2([H:11])[C-:4]=[O+:5][C@@:6]12[H:14])([H:7])([H:8])[H:9].[H:12][H:13]"
C        1.50064637      -0.34221353       0.47507803
C        0.65480306       0.59721592      -0.33757572
C       -0.70065791       0.23983414      -0.95201719
C       -1.56651353      -0.47587885       0.03907314
O       -1.27125513       0.39401901       1.06833291
C       -0.56636775       1.25396124       0.16142422
H        0.89854194      -0.91534834       1.18055215
H        2.23975215       0.21781655       1.05068588
H        2.03127589      -1.04281576      -0.17171837
H        1.20580511       1.23977805      -1.01855689
H       -0.91403845       0.36241282      -2.00260891
H       -0.89389359      -2.02289258       0.23099869
H       -1.82069004      -1.81476769       0.07688999
H       -0.79740812       2.30887902       0.19944207
14
Frame=8 idx=003807 GeodesicLength=0.4350366186176572 rxn_smarts="[C:1]([C@@:2]1([H:10])[C@@:3]2([H:11])[C:4]([H:12])([H:13])[O:5][C@@:6]12[H:14])([H:7])([H:8])[H:9]>>[C:1]([C@@:2]1([H:10])[C@@:3]2([H:11])[C-:4]=[O+:5][C@@:6]12[H:14])([H:7])([H:8])[H:9].[H:12][H:13]"
C        1.50643818      -0.33616545       0.47627919
C        0.65743209       0.60041344      -0.33692893
C       -0.69804859       0.23983858      -0.94852223
C       -1.55235328      -0.48382852       0.04809229
O       -1.26724569       0.39718455       1.07140001
C       -0.56518505       1.25635568       0.16165956
H        0.90755533      -0.90464990       1.18808874
H        2.24955222       0.22584534       1.04480119
H        2.03268543      -1.04078205      -0.16970999
H        1.20675674       1.24307172      -1.01927135
H       -0.91375855       0.35825535      -1.99909283
H       -0.91798967      -2.03835096       0.22912360
H       -1.84975460      -1.82865737       0.05597245
H       -0.79608456       2.31146959       0.19810831
14
Frame=9 idx=003807 GeodesicLength=0.48918809514757816 rxn_smarts="[C:1]([C@@:2]1([H:10])[C@@:3]2([H:11])[C:4]([H:12])([H:13])[O:5][C@@:6]12[H:14])([H:7])([H:8])[H:9]>>[C:1]([C@@:2]1([H:10])[C@@:3]2([H:11])[C-:4]=[O+:5][C@@:6]12[H:14])([H:7])([H:8])[H:9].[H:12][H:13]"
C        1.51256315      -0.32985999       0.47754247
C        0.66014745       0.60362080      -0.33622425
C       -0.69530434       0.23949077      -0.94485405
C       -1.53755650      -0.49233011       0.05742077
O       -1.26313411       0.40000138       1.07454415
C       -0.56405168       1.25849226       0.16197499
H        0.91716260      -0.89345917       1.19596908
H        2.25976070       0.23426728       1.03859627
H        2.03425216      -1.03867881      -0.16750868
H        1.20759991       1.24642881      -1.02002308
H       -0.91343870       0.35367908      -1.99537003
H       -0.94348962      -2.05410018       0.22680451
H       -1.87944740      -1.84129949       0.03434350
H       -0.79506362       2.31374738       0.19678434
14
Frame=10 idx=003807 GeodesicLength=0.543270653240204 rxn_smarts="[C:1]([C@@:2]1([H:10])[C@@:3]2([H:11])[C:4]([H:12])([H:13])[O:5][C@@:6]12[H:14])([H:7])([H:8])[H:9]>>[C:1]([C@@:2]1([H:10])[C@@:3]2([H:11])[C-:4]=[O+:5][C@@:6]12[H:14])([H:7])([H:8])[H:9].[H:12][H:13]"
C        1.51902972      -0.32329063       0.47886578
C        0.66294872       0.60683600      -0.33546161
C       -0.69241606       0.23876677      -0.94101834
C       -1.52210261      -0.50141614       0.06703029
O       -1.25892759       0.40241821       1.07774468
C       -0.56297782       1.26034427       0.16237004
H        0.92737086      -0.88179957       1.20417029
H        2.27036258       0.24310081       1.03209018
H        2.03601163      -1.03647774      -0.16512311
H        1.20832443       1.24985853      -1.02080805
H       -0.91305820       0.34865706      -1.99144833
H       -0.97032896      -2.07016327       0.22402053
H       -1.90986636      -1.85251404       0.01208963
H       -0.79437034       2.31567975       0.19547802
14
Frame=11 idx=003807 GeodesicLength=0.5973121275727726 rxn_smarts="[C:1]([C@@:2]1([H:10])[C@@:3]2([H:11])[C:4]([H:12])([H:13])[O:5][C@@:6]12[H:14])([H:7])([H:8])[H:9]>>[C:1]([C@@:2]1([H:10])[C@@:3]2([H:11])[C-:4]=[O+:5][C@@:6]12[H:14])([H:7])([H:8])[H:9].[H:12][H:13]"
C        1.52586969      -0.31643518       0.48024957
C        0.66584471       0.61005628      -0.33463926
C       -0.68935683       0.23762687      -0.93702255
C       -1.50594741      -0.51113431       0.07688970
O       -1.25462028       0.40435612       1.08098710
C       -0.56197722       1.26186654       0.16284634
H        0.93822447      -0.86965565       1.21268201
H        2.28136750       0.25238140       1.02527961
H        2.03801584      -1.03414512      -0.16254122
H        1.20892345       1.25337853      -1.02161566
H       -0.91258150       0.34315514      -1.98733472
H       -0.99859651      -2.08649614       0.22069228
H       -1.94111511      -1.86216859      -0.01067568
H       -0.79405082       2.31721411       0.19420248
14
Frame=12 idx=003807 GeodesicLength=0.6513246186418302 rxn_smarts="[C:1]([C@@:2]1([H:10])[C@@:3]2([H:11])[C:4]([H:12])([H:13])[O:5][C@@:6]12[H:14])([H:7])([H:8])[H:9]>>[C:1]([C@@:2]1([H:10])[C@@:3]2([H:11])[C-:4]=[O+:5][C@@:6]12[H:14])([H:7])([H:8])[H:9].[H:12][H:13]"
C        1.53312303      -0.30926455       0.48169413
C        0.66884693       0.61327904      -0.33375493
C       -0.68609214       0.23602204      -0.93287595
C       -1.48903154      -0.52155080       0.08696915
O       -1.25020101       0.40571692       1.08425546
C       -0.56106507       1.26300156       0.16340662
H        0.94977955      -0.85700489       1.22149629
H        2.29279071       0.26215785       1.01816054
H        2.04032787      -1.03164052      -0.15974928
H        1.20938757       1.25701201      -1.02243313
H       -0.91196509       0.33712962      -1.98303849
H       -1.02841494      -2.10303852       0.21673287
H       -1.97332352      -1.87010252      -0.03383628
H       -0.79416237       2.31828277       0.19297301
14
Frame=13 idx=003807 GeodesicLength=0.7053233838711009 rxn_smarts="[C:1]([C@@:2]1([H:10])[C@@:3]2([H:11])[C:4]([H:12])([H:13])[O:5][C@@:6]12[H:14])([H:7])([H:8])[H:9]>>[C:1]([C@@:2]1([H:10])[C@@:3]2([H:11])[C-:4]=[O+:5][C@@:6]12[H:14])([H:7])([H:8])[H:9].[H:12][H:13]"
C        1.54082988      -0.30174902       0.48319999
C        0.67196636       0.61650146      -0.33280568
C       -0.68258479       0.23389942      -0.92859029
C       -1.47129038      -0.53273904       0.09723484
O       -1.24565889       0.40639422       1.08753213
C       -0.56025921       1.26368645       0.16405298
H        0.96209103      -0.84382875       1.23060138
H        2.30464478       0.27248178       1.01073159
H        2.04301570      -1.02891937      -0.15673568
H        1.20970623       1.26078435      -1.02324493
H       -0.91116104       0.33053276      -1.97857282
H       -1.05990524      -2.11972054       0.21206179
H       -2.00662552      -1.87613471      -0.05727029
H       -0.79476891       2.31881099       0.19180499
14
Frame=14 idx=003807 GeodesicLength=0.7593417145966196 rxn_smarts="[C:1]([C@@:2]1([H:10])[C@@:3]2([H:11])[C:4]([H:12])([H:13])[O:5][C@@:6]12[H:14])([H:7])([H:8])[H:9]>>[C:1]([C@@:2]1([H:10])[C@@:3]2([H:11])[C-:4]=[O+:5][C@@:6]12[H:14])([H:7])([H:8])[H:9].[H:12][H:13]"
C        1.54903490      -0.29385365       0.48476722
C        0.67521523       0.61971951      -0.33178862
C       -0.67879189       0.23119925      -0.92417867
C       -1.45265326      -0.54478188       0.10765215
O       -1.24097961       0.40626579       1.09079656
C       -0.55957899       1.26384884       0.16478792
H        0.97521852      -0.83010558       1.23998397
H        2.31693994       0.28341219       1.00299129
H        2.04615721      -1.02593008      -0.15348795
H        1.20986579       1.26472296      -1.02403476
H       -0.91011482       0.32330934      -1.97395200
H       -1.09320386      -2.13645478       0.20660567
H       -2.04116796      -1.88006436      -0.08085951
H       -0.79594121       2.31871244       0.19071674
14
Frame=15 idx=003807 GeodesicLength=0.8134040826385404 rxn_smarts="[C:1]([C@@:2]1([H:10])[C@@:3]2([H:11])[C:4]([H:12])([H:13])[O:5][C@@:6]12[H:14])([H:7])([H:8])[H:9]>>[C:1]([C@@:2]1([H:10])[C@@:3]2([H:11])[C-:4]=[O+:5][C@@:6]12[H:14])([H:7])([H:8])[H:9].[H:12][H:13]"
C        1.55778895      -0.28553909       0.48639499
C        0.67860686       0.62292804      -0.33070014
C       -0.67466306       0.22784913      -0.91965789
C       -1.43303241      -0.55778596       0.11817772
O       -1.23614690       0.40518559       1.09402479
C       -0.55904893       1.26340074       0.16561402
H        0.98922986      -0.81581698       1.24962559
H        2.32968699       0.29501946       0.99494332
H        2.04984626      -1.02261009      -0.14999527
H        1.20984916       1.26886084      -1.02478189
H       -0.90876236       0.31539323      -1.96919492
H       -1.12847277      -2.15312366       0.20029610
H       -2.07711452      -1.88164334      -0.10447465
H       -0.79776714       2.31788207       0.18972822
14
Frame=16 idx=003807 GeodesicLength=0.867517872432043 rxn_smarts="[C:1]([C@@:2]1([H:10])[C@@:3]2([H:11])[C:4]([H:12])([H:13])[O:5][C@@:6]12[H:14])([H:7])([H:8])[H:9]>>[C:1]([C@@:2]1([H:10])[C@@:3]2([H:11])[C-:4]=[O+:5][C@@:6]12[H:14])([H:7])([H:8])[H:9].[H:12][H:13]"
C        1.56714656      -0.27676315       0.48808292
C        0.68215403       0.62611955      -0.32953604
C       -0.67014189       0.22376564      -0.91505002
C       -1.41232888      -0.57187687       0.12876005
O       -1.23114373       0.40298256       1.09718678
C       -0.55869941       1.26223842       0.16653293
H        1.00419755      -0.80094722       1.25950504
H        2.34289348       0.30738213       0.98659548
H        2.05418948      -1.01888799      -0.14624808
H        1.20963496       1.27323548      -1.02546106
H       -0.90703055       0.30670790      -1.96432691
H       -1.16589313      -2.16958134       0.19306603
H       -2.11462755      -1.88057187      -0.12796837
H       -0.80035092       2.31619676       0.18886125
