8
Frame=0 idx=004645 GeodesicLength=0.0 rxn_smarts="[O:1]=[C:2]([C:3](=[O:4])[C:5]#[C:6][H:8])[H:7]>>[C-:3]([O:4][H:7])=[C:5]=[C+:6][H:8].[O+:1]#[C-:2]"
O       -2.28845456      -1.39098377      -1.16623315
C       -1.97777219      -0.52046010      -0.49677518
C       -0.17358608       0.18335530       0.12872497
O       -0.82231426       1.05036281       0.74272008
C        1.23396223       0.15812667       0.18581206
C        2.42656538       0.01003047       0.13844328
H       -1.88410862       0.61042772       0.35567541
H        3.48570811      -0.10085911       0.11163252
8
Frame=1 idx=004645 GeodesicLength=0.03405162300638936 rxn_smarts="[O:1]=[C:2]([C:3](=[O:4])[C:5]#[C:6][H:8])[H:7]>>[C-:3]([O:4][H:7])=[C:5]=[C+:6][H:8].[O+:1]#[C-:2]"
O       -2.28378791      -1.39438690      -1.16663678
C       -1.97795611      -0.51590646      -0.50402826
C       -0.17570924       0.17076655       0.14820093
O       -0.81807327       1.05688885       0.74288100
C        1.23399033       0.15677349       0.17808009
C        2.42721583       0.01295246       0.13603776
H       -1.89174196       0.61409452       0.35474597
H        3.48606233      -0.10118250       0.11071928
8
Frame=2 idx=004645 GeodesicLength=0.06829943585429415 rxn_smarts="[O:1]=[C:2]([C:3](=[O:4])[C:5]#[C:6][H:8])[H:7]>>[C-:3]([O:4][H:7])=[C:5]=[C+:6][H:8].[O+:1]#[C-:2]"
O       -2.27786143      -1.39938714      -1.16479305
C       -1.97682878      -0.50935032      -0.51411922
C       -0.17809627       0.15586498       0.17285395
O       -0.81400643       1.06142351       0.74640842
C        1.23354368       0.16057129       0.16209342
C        2.42698641       0.01469236       0.13464388
H       -1.89923670       0.61916243       0.35180213
H        3.48549952      -0.10297711       0.11111046
8
Frame=3 idx=004645 GeodesicLength=0.1025214891549026 rxn_smarts="[O:1]=[C:2]([C:3](=[O:4])[C:5]#[C:6][H:8])[H:7]>>[C-:3]([O:4][H:7])=[C:5]=[C+:6][H:8].[O+:1]#[C-:2]"
O       -2.27020071      -1.40501199      -1.16195805
C       -1.97395316      -0.50305565      -0.52427111
C       -0.18043110       0.14158708       0.19908755
O       -0.81009121       1.06379814       0.75413140
C        1.23151785       0.16016511       0.15004090
C        2.42549871       0.01821846       0.13080436
H       -1.90588167       0.62844209       0.34288289
H        3.48354128      -0.10414324       0.10928206
8
Frame=4 idx=004645 GeodesicLength=0.13681165245309637 rxn_smarts="[O:1]=[C:2]([C:3](=[O:4])[C:5]#[C:6][H:8])[H:7]>>[C-:3]([O:4][H:7])=[C:5]=[C+:6][H:8].[O+:1]#[C-:2]"
O       -2.25942521      -1.40979037      -1.16072186
C       -1.96945114      -0.49863411      -0.53187953
C       -0.18306789       0.12749933       0.22868588
O       -0.80627657       1.06679166       0.76289289
C        1.22764633       0.15746110       0.13935197
C        2.42244938       0.02327814       0.12169816
H       -1.91167513       0.63966962       0.33137050
H        3.47980024      -0.10627537       0.10860200
8
Frame=5 idx=004645 GeodesicLength=0.17152062333682963 rxn_smarts="[O:1]=[C:2]([C:3](=[O:4])[C:5]#[C:6][H:8])[H:7]>>[C-:3]([O:4][H:7])=[C:5]=[C+:6][H:8].[O+:1]#[C-:2]"
O       -2.24915446      -1.41542312      -1.15788321
C       -1.96456919      -0.49356288      -0.54081434
C       -0.18531607       0.11674095       0.25331660
O       -0.80268094       1.06899627       0.77274065
C        1.22392127       0.15646892       0.12779736
C        2.41952915       0.02820768       0.11375176
H       -1.91758923       0.64876852       0.32208645
H        3.47585946      -0.11019633       0.10900474
8
Frame=6 idx=004645 GeodesicLength=0.20632072350562988 rxn_smarts="[O:1]=[C:2]([C:3](=[O:4])[C:5]#[C:6][H:8])[H:7]>>[C-:3]([O:4][H:7])=[C:5]=[C+:6][H:8].[O+:1]#[C-:2]"
O       -2.23810849      -1.42115708      -1.15483018
C       -1.95879873      -0.48856015      -0.55006320
C       -0.18788298       0.10660719       0.27826684
O       -0.79945803       1.07098707       0.78368924
C        1.21956979       0.15227890       0.12188205
C        2.41599364       0.03232856       0.10470903
H       -1.92287850       0.65958762       0.30998316
H        3.47156330      -0.11207211       0.10636305
8
Frame=7 idx=004645 GeodesicLength=0.2414027261528097 rxn_smarts="[O:1]=[C:2]([C:3](=[O:4])[C:5]#[C:6][H:8])[H:7]>>[C-:3]([O:4][H:7])=[C:5]=[C+:6][H:8].[O+:1]#[C-:2]"
O       -2.22561833      -1.42674037      -1.15211079
C       -1.95164558      -0.48344518      -0.56013784
C       -0.19127403       0.09673611       0.30518816
O       -0.79681212       1.07420418       0.79414607
C        1.21452263       0.14447988       0.12290898
C        2.41145908       0.03352191       0.09798910
H       -1.92776121       0.67167423       0.29535481
H        3.46712958      -0.11043075       0.09666151
8
Frame=8 idx=004645 GeodesicLength=0.2766946184178255 rxn_smarts="[O:1]=[C:2]([C:3](=[O:4])[C:5]#[C:6][H:8])[H:7]>>[C-:3]([O:4][H:7])=[C:5]=[C+:6][H:8].[O+:1]#[C-:2]"
O       -2.21347037      -1.43200290      -1.14938402
C       -1.94485920      -0.47949019      -0.56817209
C       -0.19446190       0.08808725       0.32955477
O       -0.79406978       1.07586847       0.80667114
C        1.20934052       0.13772352       0.12146845
C        2.40678057       0.03440401       0.08889494
H       -1.93184591       0.68436820       0.28008898
H        3.46258607      -0.10895836       0.09087783
8
Frame=9 idx=004645 GeodesicLength=0.3120555180749329 rxn_smarts="[O:1]=[C:2]([C:3](=[O:4])[C:5]#[C:6][H:8])[H:7]>>[C-:3]([O:4][H:7])=[C:5]=[C+:6][H:8].[O+:1]#[C-:2]"
O       -2.19843012      -1.43735543      -1.14798920
C       -1.93718895      -0.47681671      -0.57516701
C       -0.19821178       0.08014920       0.35587516
O       -0.79254167       1.07818787       0.82012687
C        1.20347908       0.13141608       0.12436237
C        2.40104060       0.03447952       0.08193003
H       -1.93501863       0.69839546       0.26182709
H        3.45687147      -0.10845600       0.07903469
8
Frame=10 idx=004645 GeodesicLength=0.3474768823675094 rxn_smarts="[O:1]=[C:2]([C:3](=[O:4])[C:5]#[C:6][H:8])[H:7]>>[C-:3]([O:4][H:7])=[C:5]=[C+:6][H:8].[O+:1]#[C-:2]"
O       -2.18371970      -1.44244404      -1.14600201
C       -1.92906158      -0.47378625      -0.58228479
C       -0.20237750       0.07256309       0.38148080
O       -0.79091530       1.08009855       0.83410559
C        1.19721434       0.12300906       0.12867667
C        2.39473945       0.03254474       0.07442560
H       -1.93716858       0.71296609       0.24260845
H        3.45128887      -0.10495124       0.06698969
8
Frame=11 idx=004645 GeodesicLength=0.38311855410363294 rxn_smarts="[O:1]=[C:2]([C:3](=[O:4])[C:5]#[C:6][H:8])[H:7]>>[C-:3]([O:4][H:7])=[C:5]=[C+:6][H:8].[O+:1]#[C-:2]"
O       -2.16823417      -1.44736476      -1.14431523
C       -1.92071299      -0.47119269      -0.58880699
C       -0.20621551       0.06645591       0.40552553
O       -0.78926626       1.08255842       0.84778654
C        1.19087969       0.11624211       0.13154900
C        2.38807843       0.03155131       0.06433653
H       -1.93943165       0.72571265       0.22569585
H        3.44490246      -0.10396294       0.05822878
8
Frame=12 idx=004645 GeodesicLength=0.4188915322759206 rxn_smarts="[O:1]=[C:2]([C:3](=[O:4])[C:5]#[C:6][H:8])[H:7]>>[C-:3]([O:4][H:7])=[C:5]=[C+:6][H:8].[O+:1]#[C-:2]"
O       -2.15238087      -1.45227110      -1.14252810
C       -1.91216661      -0.46881191      -0.59505021
C       -0.20981146       0.06142200       0.42809652
O       -0.78767921       1.08499870       0.86167622
C        1.18452088       0.11094228       0.13310817
C        2.38116264       0.03101285       0.05354669
H       -1.94166136       0.73735389       0.21002205
H        3.43801598      -0.10464671       0.05112866
8
Frame=13 idx=004645 GeodesicLength=0.4548007367572404 rxn_smarts="[O:1]=[C:2]([C:3](=[O:4])[C:5]#[C:6][H:8])[H:7]>>[C-:3]([O:4][H:7])=[C:5]=[C+:6][H:8].[O+:1]#[C-:2]"
O       -2.13588682      -1.45712418      -1.14090385
C       -1.90341405      -0.46672673      -0.60094014
C       -0.21338516       0.05718625       0.44988393
O       -0.78629421       1.08757166       0.87572830
C        1.17803008       0.10650727       0.13445587
C        2.37399368       0.03047682       0.04326662
H       -1.94378044       0.74843842       0.19475304
H        3.43073692      -0.10632952       0.04375623
8
Frame=14 idx=004645 GeodesicLength=0.49090256873440397 rxn_smarts="[O:1]=[C:2]([C:3](=[O:4])[C:5]#[C:6][H:8])[H:7]>>[C-:3]([O:4][H:7])=[C:5]=[C+:6][H:8].[O+:1]#[C-:2]"
O       -2.11821630      -1.46169374      -1.13999652
C       -1.89461097      -0.46505011      -0.60605211
C       -0.21703003       0.05378761       0.47119375
O       -0.78491803       1.09093187       0.88929648
C        1.17134781       0.10245299       0.13583364
C        2.36646034       0.02935725       0.03306639
H       -1.94612961       0.75876130       0.18041144
H        3.42309680      -0.10854717       0.03624693
8
Frame=15 idx=004645 GeodesicLength=0.5271843993649052 rxn_smarts="[O:1]=[C:2]([C:3](=[O:4])[C:5]#[C:6][H:8])[H:7]>>[C-:3]([O:4][H:7])=[C:5]=[C+:6][H:8].[O+:1]#[C-:2]"
O       -2.09881923      -1.46628312      -1.13971391
C       -1.88542593      -0.46389437      -0.61061564
C       -0.22103180       0.05105863       0.49292498
O       -0.78423643       1.09459223       0.90333844
C        1.16438291       0.09883415       0.13896123
C        2.35847432       0.02844733       0.02418240
H       -1.94814156       0.76930211       0.16508064
H        3.41479772      -0.11205696       0.02584185
8
Frame=16 idx=004645 GeodesicLength=0.5636350212254917 rxn_smarts="[O:1]=[C:2]([C:3](=[O:4])[C:5]#[C:6][H:8])[H:7]>>[C-:3]([O:4][H:7])=[C:5]=[C+:6][H:8].[O+:1]#[C-:2]"
O       -2.07811382      -1.47064355      -1.14013881
C       -1.87625716      -0.46319250      -0.61435851
C       -0.22511993       0.04912183       0.51426700
O       -0.78366706       1.09885749       0.91718094
C        1.15727626       0.09568600       0.14235007
C        2.35014482       0.02734429       0.01528413
H       -1.95032075       0.77928517       0.15029492
H        3.40605763      -0.11645874       0.01512025
