10
Frame=0 idx=007941 GeodesicLength=0.0 rxn_smarts="[O:1]([c:2]1[c:3]([H:9])[n:4][n:5][c:6]([H:10])[n:7]1)[H:8]>>[O:1]([N+:5]1=[C:6]([H:10])[N:7]=[C:2]=[C:3]([H:9])[N-:4]1)[H:8]"
O        0.99455344      -0.32506171       0.85437768
C        1.09283001       0.02643049      -0.59288486
C        0.32490946       1.33547978      -0.36235786
N       -0.60581954       1.23626015       0.50786273
N       -0.59207571      -0.07775224       1.02681145
C       -0.91835144      -0.90133939      -0.19265710
N       -0.04280274      -0.87729918      -1.08902094
H        1.15769942      -1.27612386       0.95832954
H        0.46752194       2.25986315      -0.90492116
H       -1.87846485      -1.40045719      -0.20553947
10
Frame=1 idx=007941 GeodesicLength=0.5001370269501137 rxn_smarts="[O:1]([c:2]1[c:3]([H:9])[n:4][n:5][c:6]([H:10])[n:7]1)[H:8]>>[O:1]([N+:5]1=[C:6]([H:10])[N:7]=[C:2]=[C:3]([H:9])[N-:4]1)[H:8]"
O        0.99034051      -0.40908822       0.85712617
C        1.01312465       0.03520347      -0.59084101
C        0.38041018       1.39385241      -0.33435726
N       -0.69427334       1.31198152       0.33907605
N       -0.54310071       0.00546990       1.07968829
C       -0.90150556      -0.95511149      -0.17460296
N       -0.11542558      -0.80721592      -1.13924150
H        1.13861759      -1.35865050       0.97521933
H        0.54070742       2.32717285      -0.86202474
H       -1.80889516      -1.54361402      -0.15004238
10
Frame=2 idx=007941 GeodesicLength=1.003660733323512 rxn_smarts="[O:1]([c:2]1[c:3]([H:9])[n:4][n:5][c:6]([H:10])[n:7]1)[H:8]>>[O:1]([N+:5]1=[C:6]([H:10])[N:7]=[C:2]=[C:3]([H:9])[N-:4]1)[H:8]"
O        0.98497373      -0.49873189       0.85497991
C        0.92853767       0.05081486      -0.58512293
C        0.41542556       1.44598435      -0.30505493
N       -0.76259581       1.37661808       0.16071228
N       -0.47279413       0.10193382       1.13339622
C       -0.88322906      -1.00684127      -0.16217908
N       -0.18712520      -0.74759132      -1.17282371
H        1.11769333      -1.44476161       0.99957167
H        0.59693201       2.38979026      -0.81276955
H       -1.73781811      -1.66721529      -0.11070989
10
Frame=3 idx=007941 GeodesicLength=1.5077739134974895 rxn_smarts="[O:1]([c:2]1[c:3]([H:9])[n:4][n:5][c:6]([H:10])[n:7]1)[H:8]>>[O:1]([N+:5]1=[C:6]([H:10])[N:7]=[C:2]=[C:3]([H:9])[N-:4]1)[H:8]"
O        0.97477627      -0.59073007       0.84996960
C        0.84095289       0.06940802      -0.57340107
C        0.43073638       1.49132304      -0.28514572
N       -0.80834437       1.43661793      -0.01438147
N       -0.37548454       0.20549523       1.19040063
C       -0.86749603      -1.05675650      -0.15741834
N       -0.25568996      -0.69865197      -1.19403973
H        1.09305295      -1.52997869       1.03355096
H        0.63639732       2.45147641      -0.75953570
H       -1.66890091      -1.77820340      -0.08999916
10
Frame=4 idx=007941 GeodesicLength=2.009058156588851 rxn_smarts="[O:1]([c:2]1[c:3]([H:9])[n:4][n:5][c:6]([H:10])[n:7]1)[H:8]>>[O:1]([N+:5]1=[C:6]([H:10])[N:7]=[C:2]=[C:3]([H:9])[N-:4]1)[H:8]"
O        0.95581493      -0.68221751       0.84518029
C        0.74843060       0.08732862      -0.55514002
C        0.43214606       1.53115052      -0.27817454
N       -0.83641209       1.49717867      -0.18890660
N       -0.24484293       0.31426017       1.25119843
C       -0.85623301      -1.10938395      -0.15963553
N       -0.32628683      -0.65674842      -1.20629640
H        1.06364566      -1.61048788       1.07663233
H        0.66456914       2.51638213      -0.69841071
H       -1.60083154      -1.88746235      -0.08644725
10
Frame=5 idx=007941 GeodesicLength=2.505284898836301 rxn_smarts="[O:1]([c:2]1[c:3]([H:9])[n:4][n:5][c:6]([H:10])[n:7]1)[H:8]>>[O:1]([N+:5]1=[C:6]([H:10])[N:7]=[C:2]=[C:3]([H:9])[N-:4]1)[H:8]"
O        0.92497130      -0.76993841       0.84508887
C        0.64470084       0.10413743      -0.52799897
C        0.42243371       1.56747651      -0.28211190
N       -0.84965478       1.56254399      -0.37639727
N       -0.07160394       0.42758269       1.31237166
C       -0.84889831      -1.17047418      -0.16767708
N       -0.40606357      -0.61862950      -1.20911221
H        1.03130006      -1.68325816       1.12630663
H        0.68529249       2.58229091      -0.62098452
H       -1.53247780      -2.00173128      -0.09948522
10
Frame=6 idx=007941 GeodesicLength=2.993395511367813 rxn_smarts="[O:1]([c:2]1[c:3]([H:9])[n:4][n:5][c:6]([H:10])[n:7]1)[H:8]>>[O:1]([N+:5]1=[C:6]([H:10])[N:7]=[C:2]=[C:3]([H:9])[N-:4]1)[H:8]"
O        0.88085243      -0.85153585       0.85857789
C        0.52103132       0.12444872      -0.48287767
C        0.39667603       1.60405675      -0.28896595
N       -0.84088823       1.63491958      -0.59550788
N        0.16305893       0.54056631       1.36744341
C       -0.83984019      -1.24650955      -0.18467545
N       -0.49999741      -0.58051080      -1.19892072
H        1.00050925      -1.74736527       1.18292728
H        0.68996642       2.63980060      -0.52426934
H       -1.47136855      -2.11787048      -0.13373156
10
Frame=7 idx=007941 GeodesicLength=3.4474387633415624 rxn_smarts="[O:1]([c:2]1[c:3]([H:9])[n:4][n:5][c:6]([H:10])[n:7]1)[H:8]>>[O:1]([N+:5]1=[C:6]([H:10])[N:7]=[C:2]=[C:3]([H:9])[N-:4]1)[H:8]"
O        0.81389872      -0.91610104       0.89796834
C        0.36022115       0.15450779      -0.40138753
C        0.34273794       1.64461775      -0.27740416
N       -0.78631900       1.70670462      -0.86000990
N        0.49647545       0.62907318       1.38742638
C       -0.81379955      -1.34795896      -0.22650718
N       -0.61764089      -0.53467371      -1.16614147
H        0.96776572      -1.79272261       1.25611350
H        0.66369140       2.68961867      -0.41522012
H       -1.42703095      -2.23306568      -0.19483786
10
Frame=8 idx=007941 GeodesicLength=3.8130258343735495 rxn_smarts="[O:1]([c:2]1[c:3]([H:9])[n:4][n:5][c:6]([H:10])[n:7]1)[H:8]>>[O:1]([N+:5]1=[C:6]([H:10])[N:7]=[C:2]=[C:3]([H:9])[N-:4]1)[H:8]"
O        0.68008078      -0.95125959       1.01050019
C        0.11870926       0.20842997      -0.25521139
C        0.26087112       1.69174942      -0.24514486
N       -0.65906022       1.75927244      -1.11258510
N        0.97876868       0.68561977       1.26461250
C       -0.74262473      -1.47598849      -0.32814606
N       -0.79924651      -0.47474727      -1.09317793
H        0.90465056      -1.81049601       1.37342671
H        0.60735640       2.73267567      -0.30342989
H       -1.34950535      -2.36525591      -0.31084417
10
Frame=9 idx=007941 GeodesicLength=3.9794794827530833 rxn_smarts="[O:1]([c:2]1[c:3]([H:9])[n:4][n:5][c:6]([H:10])[n:7]1)[H:8]>>[O:1]([N+:5]1=[C:6]([H:10])[N:7]=[C:2]=[C:3]([H:9])[N-:4]1)[H:8]"
O        0.50616784      -0.91135028       1.15236968
C       -0.21314632       0.29477316      -0.01566884
C        0.21220325       1.71568533      -0.19677640
N       -0.47882517       1.75986264      -1.28781126
N        1.37882092       0.48904631       0.83205142
C       -0.61423107      -1.50298182      -0.43225711
N       -0.98581070      -0.40534708      -0.94936792
H        0.77505551      -1.75694318       1.52529317
H        0.54056437       2.77557849      -0.19531438
H       -1.12079862      -2.45832358      -0.43251835
10
Frame=10 idx=007941 GeodesicLength=4.46121580655969 rxn_smarts="[O:1]([c:2]1[c:3]([H:9])[n:4][n:5][c:6]([H:10])[n:7]1)[H:8]>>[O:1]([N+:5]1=[C:6]([H:10])[N:7]=[C:2]=[C:3]([H:9])[N-:4]1)[H:8]"
O        0.42999431      -0.86601275       1.27559793
C       -0.44831330       0.39028040       0.17514959
C        0.14623483       1.70962906      -0.12886700
N       -0.21972467       1.62025779      -1.34979407
N        1.42800899       0.28628482       0.34520305
C       -0.48976910      -1.40970599      -0.51084216
N       -1.16300152      -0.35211191      -0.76770320
H        0.69480739      -1.71101571       1.64577635
H        0.49455077       2.75021667      -0.12954786
H       -0.87278771      -2.41782238      -0.55497264
10
Frame=11 idx=007941 GeodesicLength=5.033077790234271 rxn_smarts="[O:1]([c:2]1[c:3]([H:9])[n:4][n:5][c:6]([H:10])[n:7]1)[H:8]>>[O:1]([N+:5]1=[C:6]([H:10])[N:7]=[C:2]=[C:3]([H:9])[N-:4]1)[H:8]"
O        0.39920093      -0.80186789       1.34674096
C       -0.58511201       0.45204578       0.29382398
C        0.12382148       1.68488195      -0.09029265
N        0.04554375       1.46166210      -1.35646746
N        1.32116235       0.08317419       0.03417004
C       -0.43505318      -1.30969140      -0.56747317
N       -1.26636149      -0.32719288      -0.62561397
H        0.70783758      -1.64090662       1.69651763
H        0.40584313       2.74697520      -0.08309298
H       -0.71688253      -2.34908042      -0.64831239
10
Frame=12 idx=007941 GeodesicLength=5.639762880796709 rxn_smarts="[O:1]([c:2]1[c:3]([H:9])[n:4][n:5][c:6]([H:10])[n:7]1)[H:8]>>[O:1]([N+:5]1=[C:6]([H:10])[N:7]=[C:2]=[C:3]([H:9])[N-:4]1)[H:8]"
O        0.38791350      -0.74466481       1.39860420
C       -0.68505420       0.50251311       0.36839548
C        0.10538161       1.65369197      -0.07143088
N        0.27447734       1.32167877      -1.30871580
N        1.20346302      -0.07615952      -0.16850875
C       -0.41164297      -1.22716293      -0.62558592
N       -1.32950668      -0.31294329      -0.53492362
H        0.76312289      -1.56435795       1.72999822
H        0.32073625       2.72838524      -0.06155826
H       -0.62889077      -2.28098059      -0.72627467
10
Frame=13 idx=007941 GeodesicLength=6.263445566038627 rxn_smarts="[O:1]([c:2]1[c:3]([H:9])[n:4][n:5][c:6]([H:10])[n:7]1)[H:8]>>[O:1]([N+:5]1=[C:6]([H:10])[N:7]=[C:2]=[C:3]([H:9])[N-:4]1)[H:8]"
O        0.38502275      -0.68135503       1.43959948
C       -0.77531933       0.54313486       0.41719264
C        0.07907904       1.61679124      -0.06756813
N        0.47364097       1.20026729      -1.22746568
N        1.08642522      -0.21546795      -0.32007672
C       -0.40622106      -1.15863827      -0.68868535
N       -1.37486220      -0.30929777      -0.47118646
H        0.84166057      -1.46387391       1.75912101
H        0.26329342       2.68942730      -0.03680367
H       -0.57271937      -2.22098776      -0.80412712
10
Frame=14 idx=007941 GeodesicLength=6.894818873583197 rxn_smarts="[O:1]([c:2]1[c:3]([H:9])[n:4][n:5][c:6]([H:10])[n:7]1)[H:8]>>[O:1]([N+:5]1=[C:6]([H:10])[N:7]=[C:2]=[C:3]([H:9])[N-:4]1)[H:8]"
O        0.38977803      -0.60563643       1.47145555
C       -0.86884276       0.57911241       0.44584605
C        0.03214367       1.57492494      -0.08999008
N        0.65438421       1.08099019      -1.11522722
N        0.97483884      -0.33680990      -0.44588233
C       -0.41317630      -1.10160546      -0.75994250
N       -1.41400660      -0.32073899      -0.41963984
H        0.93457305      -1.33316870       1.78298561
H        0.24628215       2.63261566       0.01495728
H       -0.53597430      -2.16968373      -0.88456252
10
Frame=15 idx=007941 GeodesicLength=7.5276511464458915 rxn_smarts="[O:1]([c:2]1[c:3]([H:9])[n:4][n:5][c:6]([H:10])[n:7]1)[H:8]>>[O:1]([N+:5]1=[C:6]([H:10])[N:7]=[C:2]=[C:3]([H:9])[N-:4]1)[H:8]"
O        0.40413002      -0.51682316       1.49770941
C       -0.95849667       0.62086015       0.46014800
C       -0.01713667       1.52680638      -0.14604732
N        0.82593255       0.94734338      -0.95522852
N        0.87249661      -0.44471290      -0.55667505
C       -0.42904207      -1.04630122      -0.83894460
N       -1.44303674      -0.34420929      -0.36065536
H        1.03089846      -1.18109450       1.79628435
H        0.23333854       2.55518352       0.08132948
H       -0.51908402      -2.11705237      -0.97792038
10
Frame=16 idx=007941 GeodesicLength=8.156853080688714 rxn_smarts="[O:1]([c:2]1[c:3]([H:9])[n:4][n:5][c:6]([H:10])[n:7]1)[H:8]>>[O:1]([N+:5]1=[C:6]([H:10])[N:7]=[C:2]=[C:3]([H:9])[N-:4]1)[H:8]"
O        0.42189214      -0.42772979       1.52773010
C       -1.03971160       0.67485598       0.46351654
C       -0.04117887       1.46742513      -0.21392497
N        0.95966391       0.79048043      -0.74673616
N        0.78235376      -0.52460400      -0.66254506
C       -0.44529417      -0.98474079      -0.91755321
N       -1.44921703      -0.37811630      -0.28112227
H        1.11851992      -1.03082345       1.80044456
H        0.20735927       2.46671436       0.12197310
H       -0.51438732      -2.05346158      -1.09178262
