13
Frame=0 idx=010198 GeodesicLength=0.0 rxn_smarts="[C:1]([C:2](=[O:3])[C@@:4]([O:5][H:12])([C:6](=[O:7])[H:13])[H:11])([H:8])([H:9])[H:10]>>[C:1]([O+:3]=[C-:2][C@@:4]([O:5][H:12])([C:6](=[O:7])[H:13])[H:11])([H:8])([H:9])[H:10]"
C       -1.85172566      -0.30139551      -0.23192620
C       -0.40927679       0.52374806      -0.94150147
O       -0.71308311      -0.61214228      -1.47769494
C        0.99980760       0.51004390      -0.31561186
O        1.34583797       1.73805839       0.22760917
C        1.15739653      -0.60300507       0.68598181
O        1.52179282      -0.38993882       1.81342550
H       -1.55200447       0.08161014       0.75084068
H       -2.68182770       0.23283973      -0.66683504
H       -2.00663601      -1.37845727      -0.13398318
H        1.64095628       0.24901557      -1.17622454
H        1.65017107       1.56679355       1.12887552
H        0.89859153      -1.61717039       0.33704452
13
Frame=1 idx=010198 GeodesicLength=0.04412710684488476 rxn_smarts="[C:1]([C:2](=[O:3])[C@@:4]([O:5][H:12])([C:6](=[O:7])[H:13])[H:11])([H:8])([H:9])[H:10]>>[C:1]([O+:3]=[C-:2][C@@:4]([O:5][H:12])([C:6](=[O:7])[H:13])[H:11])([H:8])([H:9])[H:10]"
C       -1.86289496      -0.29607927      -0.23555181
C       -0.40482894       0.50689204      -0.93643514
O       -0.70664504      -0.62767455      -1.46810493
C        1.00404219       0.50792335      -0.31497686
O        1.33240295       1.73926536       0.23181788
C        1.17599977      -0.60599706       0.68428738
O        1.54471207      -0.39099235       1.80979428
H       -1.57334248       0.08368466       0.75108932
H       -2.68493361       0.24866610      -0.67472289
H       -2.03965672      -1.36936385      -0.13636751
H        1.64696777       0.25640783      -1.17689934
H        1.64292813       1.56922777       1.13131951
H        0.92524886      -1.62196001       0.33475013
13
Frame=2 idx=010198 GeodesicLength=0.08831403326028828 rxn_smarts="[C:1]([C:2](=[O:3])[C@@:4]([O:5][H:12])([C:6](=[O:7])[H:13])[H:11])([H:8])([H:9])[H:10]>>[C:1]([O+:3]=[C-:2][C@@:4]([O:5][H:12])([C:6](=[O:7])[H:13])[H:11])([H:8])([H:9])[H:10]"
C       -1.87435028      -0.29065034      -0.23937011
C       -0.40051311       0.48953581      -0.93075198
O       -0.70028421      -0.64385417      -1.45763030
C        1.00818369       0.50570805      -0.31418897
O        1.31871037       1.74014726       0.23618562
C        1.19517122      -0.60892287       0.68259534
O        1.56848645      -0.39183451       1.80602483
H       -1.59547345       0.08597591       0.75112626
H       -2.68780744       0.26480928      -0.68308707
H       -2.07338999      -1.35966514      -0.13941241
H        1.65253770       0.26396456      -1.17764612
H        1.63569471       1.57149105       1.13382412
H        0.95303434      -1.62670490       0.33233079
13
Frame=3 idx=010198 GeodesicLength=0.1325588676208429 rxn_smarts="[C:1]([C:2](=[O:3])[C@@:4]([O:5][H:12])([C:6](=[O:7])[H:13])[H:11])([H:8])([H:9])[H:10]>>[C:1]([O+:3]=[C-:2][C@@:4]([O:5][H:12])([C:6](=[O:7])[H:13])[H:11])([H:8])([H:9])[H:10]"
C       -1.88610122      -0.28510898      -0.24339199
C       -0.39634172       0.47165848      -0.92439325
O       -0.69401329      -0.66070322      -1.44620091
C        1.01222089       0.50338909      -0.31323667
O        1.30476192       1.74068312       0.24072959
C        1.21494495      -0.61177418       0.68089690
O        1.59315637      -0.39244463       1.80209650
H       -1.61844315       0.08848634       0.75093474
H       -2.69041950       0.28127079      -0.69195346
H       -2.10784249      -1.34933350      -0.14317348
H        1.65761806       0.27168103      -1.17847440
H        1.62849005       1.57357477       1.13638962
H        0.98196914      -1.63137912       0.32977682
13
Frame=4 idx=010198 GeodesicLength=0.17685841993962512 rxn_smarts="[C:1]([C:2](=[O:3])[C@@:4]([O:5][H:12])([C:6](=[O:7])[H:13])[H:11])([H:8])([H:9])[H:10]>>[C:1]([O+:3]=[C-:2][C@@:4]([O:5][H:12])([C:6](=[O:7])[H:13])[H:11])([H:8])([H:9])[H:10]"
C       -1.89815863      -0.27945463      -0.24763099
C       -0.39232939       0.45323706      -0.91729126
O       -0.68784837      -0.67824694      -1.43373332
C        1.01614072       0.50095709      -0.31210637
O        1.29055839       1.74084971       0.24547173
C        1.23535877      -0.61454253       0.67918173
O        1.61877312      -0.39280054       1.79798243
H       -1.64230390       0.09122424       0.75049110
H       -2.69273635       0.29804852      -0.70135373
H       -2.14301924      -1.33833820      -0.14771253
H        1.66215371       0.27955217      -1.17939450
H        1.62133677       1.57546926       1.13901829
H        1.01207439      -1.63595522       0.32707742
13
Frame=5 idx=010198 GeodesicLength=0.22120935120389165 rxn_smarts="[C:1]([C:2](=[O:3])[C@@:4]([O:5][H:12])([C:6](=[O:7])[H:13])[H:11])([H:8])([H:9])[H:10]>>[C:1]([O+:3]=[C-:2][C@@:4]([O:5][H:12])([C:6](=[O:7])[H:13])[H:11])([H:8])([H:9])[H:10]"
C       -1.91052961      -0.27368837      -0.25209710
C       -0.38849102       0.43425016      -0.90938093
O       -0.68180730      -0.69650838      -1.42014561
C        1.01993042       0.49840351      -0.31078647
O        1.27610938       1.74062992       0.25042567
C        1.25644559      -0.61721642       0.67744038
O        1.64537279      -0.39288058       1.79366841
H       -1.66710411       0.09418454       0.74977995
H       -2.69472843       0.31514810      -0.71131226
H       -2.17891740      -1.32665525      -0.15310006
H        1.66608888       0.28756941      -1.18041727
H        1.61426289       1.57716495       1.14170892
H        1.04336791      -1.64040160       0.32421636
13
Frame=6 idx=010198 GeodesicLength=0.2656017342727327 rxn_smarts="[C:1]([C:2](=[O:3])[C@@:4]([O:5][H:12])([C:6](=[O:7])[H:13])[H:11])([H:8])([H:9])[H:10]>>[C:1]([O+:3]=[C-:2][C@@:4]([O:5][H:12])([C:6](=[O:7])[H:13])[H:11])([H:8])([H:9])[H:10]"
C       -1.92322803      -0.26780960      -0.25680782
C       -0.38484716       0.41467270      -0.90057425
O       -0.67591476      -0.71551570      -1.40532986
C        1.02357351       0.49571604      -0.30925866
O        1.26141545       1.73999554       0.25562484
C        1.27825044      -0.61978298       0.67565497
O        1.67301976      -0.39265660       1.78911157
H       -1.69290928       0.09738864       0.74876418
H       -2.69635117       0.33255575      -0.72186844
H       -2.21553160      -1.31425171      -0.15941331
H        1.66935327       0.29572616      -1.18155483
H        1.60730519       1.57864723       1.14446795
H        1.07586440      -1.64468546       0.32118365
13
Frame=7 idx=010198 GeodesicLength=0.3100273697399849 rxn_smarts="[C:1]([C:2](=[O:3])[C@@:4]([O:5][H:12])([C:6](=[O:7])[H:13])[H:11])([H:8])([H:9])[H:10]>>[C:1]([O+:3]=[C-:2][C@@:4]([O:5][H:12])([C:6](=[O:7])[H:13])[H:11])([H:8])([H:9])[H:10]"
C       -1.93626442      -0.26181718      -0.26177706
C       -0.38141893       0.39448083      -0.89078263
O       -0.67019747      -0.73529440      -1.38917765
C        1.02705455       0.49288398      -0.30750624
O        1.24648840       1.73892519       0.26109424
C        1.30081534      -0.62222703       0.67380728
O        1.70176274      -0.39209945       1.78428190
H       -1.71977739       0.10083852       0.74741715
H       -2.69756892       0.35027014      -0.73305269
H       -2.25284642      -1.30110454      -0.16674726
H        1.67187406       0.30401043      -1.18281929
H        1.60050629       1.57990525       1.14729485
H        1.10957218      -1.64877174       0.31796740
13
Frame=8 idx=010198 GeodesicLength=0.35447499400080756 rxn_smarts="[C:1]([C:2](=[O:3])[C@@:4]([O:5][H:12])([C:6](=[O:7])[H:13])[H:11])([H:8])([H:9])[H:10]>>[C:1]([O+:3]=[C-:2][C@@:4]([O:5][H:12])([C:6](=[O:7])[H:13])[H:11])([H:8])([H:9])[H:10]"
C       -1.94965369      -0.25570961      -0.26702550
C       -0.37822927       0.37365438      -0.87990014
O       -0.66468792      -0.75586815      -1.37155526
C        1.03035495       0.48989562      -0.30550621
O        1.23134133       1.73739265       0.26687279
C        1.32418299      -0.62453151       0.67187724
O        1.73167075      -0.39117708       1.77912435
H       -1.74778436       0.10455521       0.74569738
H       -2.69833829       0.36827023      -0.74491118
H       -2.29084351      -1.28718779      -0.17519641
H        1.67356953       0.31240563      -1.18422001
H        1.59391606       1.58092435       1.15019346
H        1.14450143      -1.65262393       0.31454949
13
Frame=9 idx=010198 GeodesicLength=0.39889389448580276 rxn_smarts="[C:1]([C:2](=[O:3])[C@@:4]([O:5][H:12])([C:6](=[O:7])[H:13])[H:11])([H:8])([H:9])[H:10]>>[C:1]([O+:3]=[C-:2][C@@:4]([O:5][H:12])([C:6](=[O:7])[H:13])[H:11])([H:8])([H:9])[H:10]"
C       -1.96343355      -0.24947161      -0.27261078
C       -0.37533794       0.35211620      -0.86767759
O       -0.65946920      -0.77732701      -1.35215361
C        1.03343961       0.48672299      -0.30319377
O        1.21598998       1.73536194       0.27302911
C        1.34845525      -0.62666896       0.66980643
O        1.76289025      -0.38983729       1.77356625
H       -1.77709424       0.10862106       0.74345667
H       -2.69855076       0.38652687      -0.75758680
H       -2.32955070      -1.27245102      -0.18489779
H        1.67425329       0.32090793      -1.18573818
H        1.58765228       1.58168637       1.15318246
H        1.18075574      -1.65618747       0.31081760
13
Frame=10 idx=010198 GeodesicLength=0.44332221967751706 rxn_smarts="[C:1]([C:2](=[O:3])[C@@:4]([O:5][H:12])([C:6](=[O:7])[H:13])[H:11])([H:8])([H:9])[H:10]>>[C:1]([O+:3]=[C-:2][C@@:4]([O:5][H:12])([C:6](=[O:7])[H:13])[H:11])([H:8])([H:9])[H:10]"
C       -1.97759498      -0.24311430      -0.27853571
C       -0.37274924       0.32987162      -0.85407371
O       -0.65453412      -0.79966273      -1.33092857
C        1.03628720       0.48336575      -0.30056353
O        1.20043240       1.73281559       0.27959567
C        1.37362703      -0.62862626       0.66759703
O        1.79549486      -0.38806806       1.76754620
H       -1.80774017       0.11301498       0.74071189
H       -2.69817776       0.40503723      -0.77107383
H       -2.36891561      -1.25687811      -0.19594146
H        1.67387605       0.32949266      -1.18740016
H        1.58172963       1.58218677       1.15625247
H        1.21826471      -1.65943515       0.30681371
13
Frame=11 idx=010198 GeodesicLength=0.48777608065098166 rxn_smarts="[C:1]([C:2](=[O:3])[C@@:4]([O:5][H:12])([C:6](=[O:7])[H:13])[H:11])([H:8])([H:9])[H:10]>>[C:1]([O+:3]=[C-:2][C@@:4]([O:5][H:12])([C:6](=[O:7])[H:13])[H:11])([H:8])([H:9])[H:10]"
C       -1.99215293      -0.23663350      -0.28483341
C       -0.37049908       0.30687764      -0.83893344
O       -0.64992189      -0.82292218      -1.30769000
C        1.03886022       0.47980778      -0.29757742
O        1.18467408       1.72972621       0.28662813
C        1.39974367      -0.63038231       0.66521794
O        1.82962058      -0.38583871       1.76098905
H       -1.83983846       0.11776936       0.73739514
H       -2.69714918       0.42379326      -0.78545235
H       -2.40890582      -1.24043385      -0.20844488
H        1.67231014       0.33814572      -1.18920728
H        1.57621863       1.58241310       1.15941388
H        1.25704003      -1.66232252       0.30249465
13
Frame=12 idx=010198 GeodesicLength=0.5322650913618538 rxn_smarts="[C:1]([C:2](=[O:3])[C@@:4]([O:5][H:12])([C:6](=[O:7])[H:13])[H:11])([H:8])([H:9])[H:10]>>[C:1]([O+:3]=[C-:2][C@@:4]([O:5][H:12])([C:6](=[O:7])[H:13])[H:11])([H:8])([H:9])[H:10]"
C       -2.00712984      -0.23002446      -0.29154936
C       -0.36863301       0.28309029      -0.82205152
O       -0.64568426      -0.84715801      -1.28218453
C        1.04111162       0.47603090      -0.29417988
O        1.16872157       1.72606164       0.29420660
C        1.42685983      -0.63191322       0.66262924
O        1.86544718      -0.38310978       1.75377862
H       -1.87353849       0.12294315       0.73340828
H       -2.69536677       0.44276523      -0.80083087
H       -2.44949083      -1.22308319      -0.22255751
H        1.66938954       0.34684926      -1.19115813
H        1.57121620       1.58235095       1.16268040
H        1.29709726      -1.66480276       0.29780867
13
Frame=13 idx=010198 GeodesicLength=0.5767726376981701 rxn_smarts="[C:1]([C:2](=[O:3])[C@@:4]([O:5][H:12])([C:6](=[O:7])[H:13])[H:11])([H:8])([H:9])[H:10]>>[C:1]([O+:3]=[C-:2][C@@:4]([O:5][H:12])([C:6](=[O:7])[H:13])[H:11])([H:8])([H:9])[H:10]"
C       -2.02253241      -0.22328638      -0.29872930
C       -0.36720778       0.25847389      -0.80318177
O       -0.64189503      -0.87239693      -1.25411766
C        1.04298962       0.47201947      -0.29031210
O        1.15260407       1.72179430       0.30241217
C        1.45502550      -0.63319458       0.65977546
O        1.90311412      -0.37984568       1.74581617
H       -1.90899037       0.12859630       0.72863544
H       -2.69273393       0.46190179      -0.81734218
H       -2.49057369      -1.20479972      -0.23842821
H        1.66491687       0.35557966      -1.19325546
H        1.56684973       1.58198123       1.16605555
H        1.33843332      -1.66682334       0.29267190
13
Frame=14 idx=010198 GeodesicLength=0.621321807584616 rxn_smarts="[C:1]([C:2](=[O:3])[C@@:4]([O:5][H:12])([C:6](=[O:7])[H:13])[H:11])([H:8])([H:9])[H:10]>>[C:1]([O+:3]=[C-:2][C@@:4]([O:5][H:12])([C:6](=[O:7])[H:13])[H:11])([H:8])([H:9])[H:10]"
C       -2.03838236      -0.21641676      -0.30643831
C       -0.36628667       0.23298306      -0.78202631
O       -0.63862018      -0.89869587      -1.22314322
C        1.04442744       0.46775187      -0.28589092
O        1.13633237       1.71688237       0.31137080
C        1.48430420      -0.63419440       0.65660150
O        1.94288938      -0.37598705       1.73689919
H       -1.94640006       0.13481767       0.72293550
H       -2.68910902       0.48114995      -0.83512935
H       -2.53211727      -1.18556512      -0.25628147
H        1.65865651       0.36430809      -1.19547837
H        1.56327129       1.58129901       1.16955589
H        1.38103437      -1.66833284       0.28702508
13
Frame=15 idx=010198 GeodesicLength=0.6659097284456748 rxn_smarts="[C:1]([C:2](=[O:3])[C@@:4]([O:5][H:12])([C:6](=[O:7])[H:13])[H:11])([H:8])([H:9])[H:10]>>[C:1]([O+:3]=[C-:2][C@@:4]([O:5][H:12])([C:6](=[O:7])[H:13])[H:11])([H:8])([H:9])[H:10]"
C       -2.05467974      -0.20941932      -0.31474320
C       -0.36594781       0.20658358      -0.75822828
O       -0.63594959      -0.92608004      -1.18886239
C        1.04534637       0.46320997      -0.28082294
O        1.11994377       1.71129024       0.32121721
C        1.51475783      -0.63488115       0.65302379
O        1.98498708      -0.37147922       1.72684159
H       -1.98597894       0.14170958       0.71613023
H       -2.68433529       0.50042253      -0.85436663
H       -2.57400804      -1.16537501      -0.27632905
H        1.65032564       0.37300332      -1.19780962
H        1.56067395       1.58029333       1.17318913
H        1.42486477      -1.66927780       0.28076015
13
Frame=16 idx=010198 GeodesicLength=0.7105291988928321 rxn_smarts="[C:1]([C:2](=[O:3])[C@@:4]([O:5][H:12])([C:6](=[O:7])[H:13])[H:11])([H:8])([H:9])[H:10]>>[C:1]([O+:3]=[C-:2][C@@:4]([O:5][H:12])([C:6](=[O:7])[H:13])[H:11])([H:8])([H:9])[H:10]"
C       -2.07142975      -0.20229160      -0.32373647
C       -0.36629000       0.17922706      -0.73133200
O       -0.63400403      -0.95460687      -1.15075861
C        1.04564703       0.45837349      -0.27498517
O        1.10347544       1.70497972       0.33212412
C        1.54645132      -0.63521856       0.64894505
O        2.02969945      -0.36625590       1.71538489
H       -2.02797962       0.14940279       0.70798030
H       -2.67820670       0.51962260      -0.87527310
H       -2.61612127      -1.14421763      -0.29883990
H        1.63956815       0.38162817      -1.20021340
H        1.55928220       1.57895508       1.17697687
H        1.46990777      -1.66959837       0.27372741
