12
Frame=0 idx=001699 GeodesicLength=0.0 rxn_smarts="[C:1](#[C:2][C@@:3]1([H:8])[C:4]([H:9])([H:10])[C:5]([H:11])([H:12])[O:6]1)[H:7]>>[C:1](#[C:2][C@@:3]([C:4](=[C:5]([H:11])[H:12])[H:10])([O:6][H:9])[H:8])[H:7]"
C        2.49936650       0.15370965       0.37246387
C        1.42148819       0.00595746      -0.12897931
C        0.15124153      -0.32436327      -0.77095263
C       -1.00962012      -0.92670116       0.00429733
C       -1.16831327       0.44024648       0.62137837
O       -0.74261931       0.94342072      -0.77724700
H        3.45400300       0.29139215       0.82332542
H        0.33330271      -0.64686432      -1.79627618
H       -1.49812759       0.23108761      -1.11324484
H       -0.89985461      -1.83222690       0.59396537
H       -0.38960997       0.83977457       1.28120677
H       -2.15125710       0.82456705       0.89006283
12
Frame=1 idx=001699 GeodesicLength=0.0974843247572316 rxn_smarts="[C:1](#[C:2][C@@:3]1([H:8])[C:4]([H:9])([H:10])[C:5]([H:11])([H:12])[O:6]1)[H:7]>>[C:1](#[C:2][C@@:3]([C:4](=[C:5]([H:11])[H:12])[H:10])([O:6][H:9])[H:8])[H:7]"
C        2.50451434       0.15224765       0.37197002
C        1.42709274       0.01495850      -0.13307750
C        0.15492117      -0.31106073      -0.77159847
C       -1.00366287      -0.91687957       0.00688855
C       -1.17949180       0.44028467       0.62873357
O       -0.73954411       0.94661353      -0.78876754
H        3.46419684       0.25474042       0.82164354
H        0.33455289      -0.64526384      -1.79391658
H       -1.50809527       0.21625167      -1.12265103
H       -0.87490509      -1.81871613       0.59823211
H       -0.41015619       0.86050229       1.28543694
H       -2.16942263       0.80632155       0.89710640
12
Frame=2 idx=001699 GeodesicLength=0.194972326808449 rxn_smarts="[C:1](#[C:2][C@@:3]1([H:8])[C:4]([H:9])([H:10])[C:5]([H:11])([H:12])[O:6]1)[H:7]>>[C:1](#[C:2][C@@:3]([C:4](=[C:5]([H:11])[H:12])[H:10])([O:6][H:9])[H:8])[H:7]"
C        2.50995259       0.15058750       0.37148801
C        1.43288672       0.02357081      -0.13669708
C        0.15878374      -0.29765071      -0.77199375
C       -0.99778445      -0.90673320       0.00944200
C       -1.19076885       0.44024562       0.63629887
O       -0.73584107       0.95014038      -0.80026892
H        3.47378725       0.21847796       0.81877215
H        0.33613699      -0.64367275      -1.79111035
H       -1.51749994       0.20094494      -1.13225739
H       -0.85077949      -1.80479175       0.60214698
H       -0.43143752       0.88137532       1.28965353
H       -2.18743598       0.78750587       0.90452594
12
Frame=3 idx=001699 GeodesicLength=0.2924579903513436 rxn_smarts="[C:1](#[C:2][C@@:3]1([H:8])[C:4]([H:9])([H:10])[C:5]([H:11])([H:12])[O:6]1)[H:7]>>[C:1](#[C:2][C@@:3]([C:4](=[C:5]([H:11])[H:12])[H:10])([O:6][H:9])[H:8])[H:7]"
C        2.51478502       0.14677600       0.37427046
C        1.43872674       0.03098747      -0.13844273
C        0.16295392      -0.28430529      -0.77160367
C       -0.99259153      -0.89621960       0.01160225
C       -1.20263186       0.44006678       0.64395952
O       -0.73089084       0.95417924      -0.81144296
H        3.48546914       0.18525688       0.81018837
H        0.33868363      -0.64202643      -1.78731473
H       -1.52581282       0.18567929      -1.14246215
H       -0.82869974      -1.79064045       0.60525371
H       -0.45419020       0.90190605       1.29427887
H       -2.20580146       0.76834006       0.91171306
12
Frame=4 idx=001699 GeodesicLength=0.38992352019726817 rxn_smarts="[C:1](#[C:2][C@@:3]1([H:8])[C:4]([H:9])([H:10])[C:5]([H:11])([H:12])[O:6]1)[H:7]>>[C:1](#[C:2][C@@:3]([C:4](=[C:5]([H:11])[H:12])[H:10])([O:6][H:9])[H:8])[H:7]"
C        2.52040611       0.14328431       0.37425727
C        1.44494748       0.03857450      -0.14184147
C        0.16700496      -0.27074861      -0.77186087
C       -0.98693364      -0.88537356       0.01401934
C       -1.21381516       0.43989437       0.65199785
O       -0.72592587       0.95844949      -0.82298122
H        3.49380101       0.15131396       0.80592759
H        0.34042886      -0.64044287      -1.78405403
H       -1.53431682       0.16946729      -1.15237280
H       -0.80609732      -1.77594768       0.60841473
H       -0.47646303       0.92304499       1.29819338
H       -2.22303657       0.74848382       0.92030025
12
Frame=5 idx=001699 GeodesicLength=0.48735418567857475 rxn_smarts="[C:1](#[C:2][C@@:3]1([H:8])[C:4]([H:9])([H:10])[C:5]([H:11])([H:12])[O:6]1)[H:7]>>[C:1](#[C:2][C@@:3]([C:4](=[C:5]([H:11])[H:12])[H:10])([O:6][H:9])[H:8])[H:7]"
C        2.52601876       0.13991781       0.37380045
C        1.45146891       0.04636170      -0.14610917
C        0.17107984      -0.25692221      -0.77244133
C       -0.98096204      -0.87416433       0.01656323
C       -1.22465928       0.43970984       0.66031456
O       -0.72079348       0.96301145      -0.83483743
H        3.50034843       0.11665556       0.80291481
H        0.34190651      -0.63880676      -1.78094371
H       -1.54272845       0.15231180      -1.16222669
H       -0.78327858      -1.76071056       0.61150430
H       -0.49887364       0.94474891       1.30154105
H       -2.23952699       0.72788678       0.92991994
12
Frame=6 idx=001699 GeodesicLength=0.5847715978028073 rxn_smarts="[C:1](#[C:2][C@@:3]1([H:8])[C:4]([H:9])([H:10])[C:5]([H:11])([H:12])[O:6]1)[H:7]>>[C:1](#[C:2][C@@:3]([C:4](=[C:5]([H:11])[H:12])[H:10])([O:6][H:9])[H:8])[H:7]"
C        2.53180882       0.13503950       0.37372388
C        1.45813782       0.05282763      -0.14970043
C        0.17524834      -0.24325110      -0.77274942
C       -0.97549561      -0.86255156       0.01888089
C       -1.23557627       0.43945261       0.66889406
O       -0.71458792       0.96804898      -0.84652934
H        3.50709601       0.08474298       0.79839379
H        0.34354507      -0.63727972      -1.77742126
H       -1.55045627       0.13497644      -1.17235680
H       -0.76209452      -1.74529521       0.61393865
H       -0.52197192       0.96625455       1.30493821
H       -2.25565353       0.70703490       0.93998778
12
Frame=7 idx=001699 GeodesicLength=0.6821702866880848 rxn_smarts="[C:1](#[C:2][C@@:3]1([H:8])[C:4]([H:9])([H:10])[C:5]([H:11])([H:12])[O:6]1)[H:7]>>[C:1](#[C:2][C@@:3]([C:4](=[C:5]([H:11])[H:12])[H:10])([O:6][H:9])[H:8])[H:7]"
C        2.53753284       0.12931669       0.37382684
C        1.46501542       0.05885197      -0.15346816
C        0.17946513      -0.22945948      -0.77312106
C       -0.97009598      -0.85052214       0.02115304
C       -1.24637947       0.43916757       0.67774671
O       -0.70781871       0.97350350      -0.85834479
H        3.51330536       0.05372539       0.79373763
H        0.34510038      -0.63570686      -1.77380692
H       -1.55784004       0.11696251      -1.18260136
H       -0.74149541      -1.72950366       0.61603577
H       -0.54557089       0.98805661       1.30797733
H       -2.27121863       0.68560790       0.95086497
12
Frame=8 idx=001699 GeodesicLength=0.779552072780802 rxn_smarts="[C:1](#[C:2][C@@:3]1([H:8])[C:4]([H:9])([H:10])[C:5]([H:11])([H:12])[O:6]1)[H:7]>>[C:1](#[C:2][C@@:3]([C:4](=[C:5]([H:11])[H:12])[H:10])([O:6][H:9])[H:8])[H:7]"
C        2.54320568       0.12248964       0.37463872
C        1.47201347       0.06392495      -0.15660213
C        0.18380112      -0.21568164      -0.77321585
C       -0.96508649      -0.83805159       0.02326840
C       -1.25735081       0.43883689       0.68683775
O       -0.70011518       0.97945383      -0.87008408
H        3.52010378       0.02446721       0.78735156
H        0.34686224      -0.63412303      -1.76976151
H       -1.56459588       0.09849197      -1.19315057
H       -0.72223395      -1.71349241       0.61763158
H       -0.57008562       1.00990774       1.31089101
H       -2.28651835       0.66377644       0.96219511
12
Frame=9 idx=001699 GeodesicLength=0.8768859054710053 rxn_smarts="[C:1](#[C:2][C@@:3]1([H:8])[C:4]([H:9])([H:10])[C:5]([H:11])([H:12])[O:6]1)[H:7]>>[C:1](#[C:2][C@@:3]([C:4](=[C:5]([H:11])[H:12])[H:10])([O:6][H:9])[H:8])[H:7]"
C        2.54869109       0.11461266       0.37604708
C        1.47917124       0.06791138      -0.15953170
C        0.18818549      -0.20197159      -0.77323569
C       -0.96044575      -0.82513003       0.02521639
C       -1.26828217       0.43846951       0.69622163
O       -0.69149024       0.98590170      -0.88179837
H        3.52713540      -0.00284428       0.78006508
H        0.34856939      -0.63257076      -1.76552205
H       -1.57086140       0.07953146      -1.20391783
H       -0.70422365      -1.69731700       0.61866353
H       -0.59519041       1.03179646       1.31355667
H       -2.30125900       0.64161049       0.97423527
12
Frame=10 idx=001699 GeodesicLength=0.9741908052067771 rxn_smarts="[C:1](#[C:2][C@@:3]1([H:8])[C:4]([H:9])([H:10])[C:5]([H:11])([H:12])[O:6]1)[H:7]>>[C:1](#[C:2][C@@:3]([C:4](=[C:5]([H:11])[H:12])[H:10])([O:6][H:9])[H:8])[H:7]"
C        2.55439655       0.10670631       0.37637548
C        1.48656502       0.07168361      -0.16326231
C        0.19254980      -0.18804564      -0.77359003
C       -0.95567210      -0.81173485       0.02720186
C       -1.27887615       0.43808536       0.70599604
O       -0.68248712       0.99279091      -0.89375846
H        3.53272038      -0.03027170       0.77463206
H        0.34987426      -0.63088773      -1.76148767
H       -1.57699222       0.05953444      -1.21461933
H       -0.68637265      -1.68077257       0.61939958
H       -0.62062484       1.05417111       1.31560950
H       -2.31508093       0.61874076       0.98750327
12
Frame=11 idx=001699 GeodesicLength=1.0714465299475444 rxn_smarts="[C:1](#[C:2][C@@:3]1([H:8])[C:4]([H:9])([H:10])[C:5]([H:11])([H:12])[O:6]1)[H:7]>>[C:1](#[C:2][C@@:3]([C:4](=[C:5]([H:11])[H:12])[H:10])([O:6][H:9])[H:8])[H:7]"
C        2.56018291       0.09861887       0.37595478
C        1.49417893       0.07490084      -0.16770764
C        0.19688139      -0.17400396      -0.77426497
C       -0.95090787      -0.79783968       0.02914685
C       -1.28910310       0.43768444       0.71618901
O       -0.67293833       1.00016196      -0.90592036
H        3.53713734      -0.05721771       0.77074995
H        0.35075428      -0.62911896      -1.75766299
H       -1.58293644       0.03857335      -1.22527751
H       -0.66898663      -1.66395393       0.61968145
H       -0.64637448       1.07690350       1.31708645
H       -2.32788801       0.59529128       1.00202498
12
Frame=12 idx=001699 GeodesicLength=1.168641523153236 rxn_smarts="[C:1](#[C:2][C@@:3]1([H:8])[C:4]([H:9])([H:10])[C:5]([H:11])([H:12])[O:6]1)[H:7]>>[C:1](#[C:2][C@@:3]([C:4](=[C:5]([H:11])[H:12])[H:10])([O:6][H:9])[H:8])[H:7]"
C        2.56554065       0.08904018       0.37702475
C        1.50185279       0.07646027      -0.17132789
C        0.20131223      -0.16016486      -0.77460691
C       -0.94683897      -0.78340160       0.03081391
C       -1.29949565       0.43727262       0.72668190
O       -0.66205505       1.00815402      -0.91789596
H        3.54308984      -0.08125333       0.76442022
H        0.35173668      -0.62739522      -1.75341673
H       -1.58817526       0.01718273      -1.23631625
H       -0.65356289      -1.64716240       0.61920046
H       -0.67311470       1.09955598       1.31837672
H       -2.34028966       0.57171160       1.01704577
12
Frame=13 idx=001699 GeodesicLength=1.2657927622704448 rxn_smarts="[C:1](#[C:2][C@@:3]1([H:8])[C:4]([H:9])([H:10])[C:5]([H:11])([H:12])[O:6]1)[H:7]>>[C:1](#[C:2][C@@:3]([C:4](=[C:5]([H:11])[H:12])[H:10])([O:6][H:9])[H:8])[H:7]"
C        2.57093392       0.07925323       0.37747901
C        1.50970491       0.07745493      -0.17555732
C        0.20573567      -0.14616229      -0.77522480
C       -0.94280471      -0.76838863       0.03242826
C       -1.30956928       0.43685617       0.73763090
O       -0.65055058       1.01670428      -0.93005131
H        3.54816295      -0.10491080       0.75940368
H        0.35232702      -0.62549293      -1.74935119
H       -1.59317847      -0.00533893      -1.24732164
H       -0.63866788      -1.63012967       0.61820650
H       -0.70042375       1.12265431       1.31900616
H       -2.35166981       0.54750032       1.03335176
12
Frame=14 idx=001699 GeodesicLength=1.362911012737829 rxn_smarts="[C:1](#[C:2][C@@:3]1([H:8])[C:4]([H:9])([H:10])[C:5]([H:11])([H:12])[O:6]1)[H:7]>>[C:1](#[C:2][C@@:3]([C:4](=[C:5]([H:11])[H:12])[H:10])([O:6][H:9])[H:8])[H:7]"
C        2.57640012       0.06949803       0.37722803
C        1.51772211       0.07816195      -0.18041248
C        0.21017773      -0.13187338      -0.77611931
C       -0.93871228      -0.75274265       0.03403007
C       -1.31935039       0.43645268       0.74904788
O       -0.63850731       1.02584467      -0.94244477
H        3.55221990      -0.12885656       0.75573595
H        0.35258729      -0.62330637      -1.74544809
H       -1.59790908      -0.02924882      -1.25826278
H       -0.62410812      -1.61276489       0.61676107
H       -0.72852258       1.14631204       1.31887333
H       -2.36199740       0.52252330       1.05101110
12
Frame=15 idx=001699 GeodesicLength=1.4600056099232992 rxn_smarts="[C:1](#[C:2][C@@:3]1([H:8])[C:4]([H:9])([H:10])[C:5]([H:11])([H:12])[O:6]1)[H:7]>>[C:1](#[C:2][C@@:3]([C:4](=[C:5]([H:11])[H:12])[H:10])([O:6][H:9])[H:8])[H:7]"
C        2.58159589       0.05867407       0.37778667
C        1.52578501       0.07791281      -0.18480354
C        0.21474331      -0.11746636      -0.77681810
C       -0.93500612      -0.73639180       0.03549094
C       -1.32923349       0.43609438       0.76085050
O       -0.62537808       1.03569383      -0.95480562
H        3.55717024      -0.15150489       0.75060257
H        0.35289094      -0.62088152      -1.74125465
H       -1.60198479      -0.05428331      -1.26941678
H       -0.61085542      -1.59522764       0.61470710
H       -0.75802200       1.17036458       1.31812488
H       -2.37170550       0.49701585       1.06953604
12
Frame=16 idx=001699 GeodesicLength=1.5570919231557045 rxn_smarts="[C:1](#[C:2][C@@:3]1([H:8])[C:4]([H:9])([H:10])[C:5]([H:11])([H:12])[O:6]1)[H:7]>>[C:1](#[C:2][C@@:3]([C:4](=[C:5]([H:11])[H:12])[H:10])([O:6][H:9])[H:8])[H:7]"
C        2.58628375       0.04573289       0.38014038
C        1.53380149       0.07612418      -0.18796967
C        0.21950261      -0.10308255      -0.77698783
C       -0.93202616      -0.71926436       0.03671858
C       -1.33948076       0.43581227       0.77300354
O       -0.61070172       1.04635883      -0.96688914
H        3.56444127      -0.17142873       0.74212186
H        0.35343892      -0.61824291      -1.73648410
H       -1.60514965      -0.08024005      -1.28096525
H       -0.59966107      -1.57766974       0.61189903
H       -0.78936568       1.19474200       1.31679400
H       -2.38108299       0.47115816       1.08861861
