13
Frame=0 idx=003737 GeodesicLength=0.0 rxn_smarts="[C:1]1([H:7])([H:8])[N:2]([H:9])[C:3]12[C:4]([H:10])([H:11])[O:5][C:6]2([H:12])[H:13]>>[C-:1]1([H:8])[N+:2]([H:7])([H:9])[C:3]12[C:4]([H:10])([H:11])[O:5][C:6]2([H:12])[H:13]"
C       -1.05490551      -0.83912935      -0.94970077
N       -0.80720906      -1.01431159       0.79136598
C       -0.04604981      -0.17157690      -0.12363860
C        0.14314297       1.31359687       0.16177588
O        1.56530760       1.15172322       0.17228697
C        1.47192085      -0.24353114      -0.17164108
H       -1.15917248      -1.80722251       0.01592952
H       -1.94574143      -0.20450543      -1.02821742
H       -1.55849972      -0.50216040       1.23996388
H       -0.24267175       1.67841037       1.11920347
H       -0.18685719       1.97717061      -0.64327430
H        1.93533063      -0.88868097       0.57815970
H        1.88540492      -0.44978284      -1.16221322
13
Frame=1 idx=003737 GeodesicLength=0.05259063624073323 rxn_smarts="[C:1]1([H:7])([H:8])[N:2]([H:9])[C:3]12[C:4]([H:10])([H:11])[O:5][C:6]2([H:12])[H:13]>>[C-:1]1([H:8])[N+:2]([H:7])([H:9])[C:3]12[C:4]([H:10])([H:11])[O:5][C:6]2([H:12])[H:13]"
C       -1.06025967      -0.83826989      -0.94051590
N       -0.81514891      -1.01038631       0.78370300
C       -0.04729985      -0.16660566      -0.12377498
C        0.14582937       1.31770365       0.16201754
O        1.56774274       1.15202237       0.17029727
C        1.47021431      -0.24353820      -0.17104908
H       -1.14291276      -1.82978909       0.00924293
H       -1.95079505      -0.20532704      -1.02811935
H       -1.56160309      -0.49956636       1.24097938
H       -0.23742153       1.68299458       1.12035527
H       -0.18364318       1.98263103      -0.64212887
H        1.93175330      -0.88875047       0.57998949
H        1.88354432      -0.45311862      -1.16099670
13
Frame=2 idx=003737 GeodesicLength=0.10516778764543795 rxn_smarts="[C:1]1([H:7])([H:8])[N:2]([H:9])[C:3]12[C:4]([H:10])([H:11])[O:5][C:6]2([H:12])[H:13]>>[C-:1]1([H:8])[N+:2]([H:7])([H:9])[C:3]12[C:4]([H:10])([H:11])[O:5][C:6]2([H:12])[H:13]"
C       -1.06556690      -0.83752915      -0.93141017
N       -0.82308313      -1.00664242       0.77606547
C       -0.04863405      -0.16171723      -0.12389119
C        0.14842371       1.32172776       0.16225383
O        1.57007134       1.15225510       0.16834413
C        1.46842393      -0.24358963      -0.17044067
H       -1.12663725      -1.85143870       0.00246948
H       -1.95567718      -0.20624206      -1.02833053
H       -1.56424911      -0.49698121       1.24238027
H       -0.23228817       1.68748615       1.12148747
H       -0.18050831       1.98799644      -0.64099994
H        1.92811495      -0.88885279       0.58182532
H        1.88161019      -0.45647224      -1.15975347
13
Frame=3 idx=003737 GeodesicLength=0.15772832448278765 rxn_smarts="[C:1]1([H:7])([H:8])[N:2]([H:9])[C:3]12[C:4]([H:10])([H:11])[O:5][C:6]2([H:12])[H:13]>>[C-:1]1([H:8])[N+:2]([H:7])([H:9])[C:3]12[C:4]([H:10])([H:11])[O:5][C:6]2([H:12])[H:13]"
C       -1.07081477      -0.83689425      -0.92238769
N       -0.83099008      -1.00305772       0.76848118
C       -0.05004138      -0.15691339      -0.12398120
C        0.15093262       1.32567100       0.16248390
O        1.57230121       1.15242713       0.16642926
C        1.46656106      -0.24368011      -0.16981770
H       -1.11042159      -1.87220498      -0.00438847
H       -1.96039060      -0.20726364      -1.02881981
H       -1.56647071      -0.49442807       1.24412260
H       -0.22726819       1.69189280       1.12259620
H       -0.17744618       1.99326547      -0.63989121
H        1.92443586      -0.88898220       0.58366061
H        1.87961275      -0.45983202      -1.15848767
13
Frame=4 idx=003737 GeodesicLength=0.2102654908775708 rxn_smarts="[C:1]1([H:7])([H:8])[N:2]([H:9])[C:3]12[C:4]([H:10])([H:11])[O:5][C:6]2([H:12])[H:13]>>[C-:1]1([H:8])[N+:2]([H:7])([H:9])[C:3]12[C:4]([H:10])([H:11])[O:5][C:6]2([H:12])[H:13]"
C       -1.07599595      -0.83635473      -0.91345157
N       -0.83885060      -0.99961194       0.76097504
C       -0.05151130      -0.15219513      -0.12403974
C        0.15336293       1.32953828       0.16270753
O        1.57444257       1.15254564       0.16455543
C        1.46463881      -0.24380548      -0.16918144
H       -1.09433209      -1.89212754      -0.01133102
H       -1.96494458      -0.20840404      -1.02955792
H       -1.56830297      -0.49192739       1.24616424
H       -0.22235755       1.69622660       1.12367908
H       -0.17445191       1.99844030      -0.63880634
H        1.92073901      -0.88913515       0.58549027
H        1.87756364      -0.46318943      -1.15720357
13
Frame=5 idx=003737 GeodesicLength=0.2627973415548599 rxn_smarts="[C:1]1([H:7])([H:8])[N:2]([H:9])[C:3]12[C:4]([H:10])([H:11])[O:5][C:6]2([H:12])[H:13]>>[C-:1]1([H:8])[N+:2]([H:7])([H:9])[C:3]12[C:4]([H:10])([H:11])[O:5][C:6]2([H:12])[H:13]"
C       -1.08109065      -0.83589054      -0.90459571
N       -0.84664993      -0.99627772       0.75357003
C       -0.05303244      -0.14756121      -0.12406184
C        0.15572205       1.33332293       0.16292047
O        1.57649455       1.15261012       0.16272113
C        1.46265895      -0.24395588      -0.16853468
H       -1.07843173      -1.91125264      -0.01835752
H       -1.96932135      -0.20966618      -1.03050584
H       -1.56977431      -0.48949608       1.24846747
H       -0.21755537       1.70047919       1.12472497
H       -0.17151039       2.00350885      -0.63775068
H        1.91702514      -0.88929903       0.58730535
H        1.87546548      -0.46652181      -1.15590314
13
Frame=6 idx=003737 GeodesicLength=0.3153015924304346 rxn_smarts="[C:1]1([H:7])([H:8])[N:2]([H:9])[C:3]12[C:4]([H:10])([H:11])[O:5][C:6]2([H:12])[H:13]>>[C-:1]1([H:8])[N+:2]([H:7])([H:9])[C:3]12[C:4]([H:10])([H:11])[O:5][C:6]2([H:12])[H:13]"
C       -1.08610610      -0.83549932      -0.89582601
N       -0.85437794      -0.99304236       0.74628463
C       -0.05459925      -0.14300873      -0.12404438
C        0.15801602       1.33704269       0.16312571
O        1.57847509       1.15263333       0.16092421
C        1.46063888      -0.24413383      -0.16787738
H       -1.06274354      -1.92963059      -0.02547602
H       -1.97355361      -0.21106253      -1.03164382
H       -1.57093080      -0.48714902       1.25099738
H       -0.21285096       1.70467962       1.12574245
H       -0.16862458       2.00849258      -0.63672445
H        1.91332288      -0.88948007       0.58910938
H        1.87333390      -0.46984177      -1.15459168
13
Frame=7 idx=003737 GeodesicLength=0.367761117339186 rxn_smarts="[C:1]1([H:7])([H:8])[N:2]([H:9])[C:3]12[C:4]([H:10])([H:11])[O:5][C:6]2([H:12])[H:13]>>[C-:1]1([H:8])[N+:2]([H:7])([H:9])[C:3]12[C:4]([H:10])([H:11])[O:5][C:6]2([H:12])[H:13]"
C       -1.09103541      -0.83516396      -0.88713932
N       -0.86201906      -0.98988285       0.73912769
C       -0.05620373      -0.13853561      -0.12398551
C        0.16025272       1.34069069       0.16332306
O        1.58038458       1.15261510       0.15916245
C        1.45857712      -0.24433011      -0.16720921
H       -1.04730477      -1.94730321      -0.03267657
H       -1.97763483      -0.21259891      -1.03294934
H       -1.57179176      -0.48489269       1.25370956
H       -0.20822962       1.70882005       1.12672701
H       -0.16578798       2.01337853      -0.63572342
H        1.90963194      -0.88966018       0.59089845
H        1.87116080      -0.47313684      -1.15326485
13
Frame=8 idx=003737 GeodesicLength=0.4202221363506967 rxn_smarts="[C:1]1([H:7])([H:8])[N:2]([H:9])[C:3]12[C:4]([H:10])([H:11])[O:5][C:6]2([H:12])[H:13]>>[C-:1]1([H:8])[N+:2]([H:7])([H:9])[C:3]12[C:4]([H:10])([H:11])[O:5][C:6]2([H:12])[H:13]"
C       -1.09587749      -0.83487955      -0.87852726
N       -0.86957633      -0.98678016       0.73211949
C       -0.05784372      -0.13413207      -0.12387992
C        0.16243856       1.34428176       0.16351144
O        1.58223436       1.15256296       0.15742554
C        1.45648158      -0.24454518      -0.16653001
H       -1.03210900      -1.96433220      -0.03999913
H       -1.98158248      -0.21428406      -1.03439158
H       -1.57240067      -0.48273567       1.25659046
H       -0.20368380       1.71292312       1.12768020
H       -0.16299377       2.01818588      -0.63475107
H        1.90595801      -0.88984526       0.59267734
H        1.86895476      -0.47641957      -1.15192551
13
Frame=9 idx=003737 GeodesicLength=0.4726761930451019 rxn_smarts="[C:1]1([H:7])([H:8])[N:2]([H:9])[C:3]12[C:4]([H:10])([H:11])[O:5][C:6]2([H:12])[H:13]>>[C-:1]1([H:8])[N+:2]([H:7])([H:9])[C:3]12[C:4]([H:10])([H:11])[O:5][C:6]2([H:12])[H:13]"
C       -1.10063544      -0.83463350      -0.86998819
N       -0.87704223      -0.98372230       0.72526666
C       -0.05951601      -0.12979318      -0.12372768
C        0.16457901       1.34782081       0.16368987
O        1.58402894       1.15248106       0.15570715
C        1.45435367      -0.24477638      -0.16583811
H       -1.01715912      -1.98076533      -0.04745480
H       -1.98540702      -0.21611853      -1.03594734
H       -1.57277810      -0.48068547       1.25961592
H       -0.19920301       1.71699672       1.12860169
H       -0.16023610       2.02292033      -0.63380804
H        1.90230065      -0.89002702       0.59445330
H        1.86671474      -0.47969721      -1.15057044
13
Frame=10 idx=003737 GeodesicLength=0.5251210639754469 rxn_smarts="[C:1]1([H:7])([H:8])[N:2]([H:9])[C:3]12[C:4]([H:10])([H:11])[O:5][C:6]2([H:12])[H:13]>>[C-:1]1([H:8])[N+:2]([H:7])([H:9])[C:3]12[C:4]([H:10])([H:11])[O:5][C:6]2([H:12])[H:13]"
C       -1.10531032      -0.83441701      -0.86151776
N       -0.88441585      -0.98069540       0.71857540
C       -0.06121812      -0.12551305      -0.12352808
C        0.16668010       1.35131147       0.16385981
O        1.58577440       1.15237538       0.15398562
C        1.45219525      -0.24502101      -0.16513237
H       -1.00244932      -1.99664569      -0.05506028
H       -1.98911572      -0.21810673      -1.03759793
H       -1.57295517      -0.47874246       1.26276106
H       -0.19476590       1.72104365       1.12949799
H       -0.15751905       2.02758664      -0.63288543
H        1.89865910      -0.89019190       0.59623591
H        1.86444061      -0.48298390      -1.14919394
13
Frame=11 idx=003737 GeodesicLength=0.5775569794971114 rxn_smarts="[C:1]1([H:7])([H:8])[N:2]([H:9])[C:3]12[C:4]([H:10])([H:11])[O:5][C:6]2([H:12])[H:13]>>[C-:1]1([H:8])[N+:2]([H:7])([H:9])[C:3]12[C:4]([H:10])([H:11])[O:5][C:6]2([H:12])[H:13]"
C       -1.10990333      -0.83422487      -0.85310893
N       -0.89169557      -0.97768414       0.71205644
C       -0.06294596      -0.12128958      -0.12327632
C        0.16874577       1.35475668       0.16401869
O        1.58747501       1.15224526       0.15227139
C        1.45001052      -0.24527757      -0.16441156
H       -0.98798593      -2.01201344      -0.06283198
H       -1.99271850      -0.22024980      -1.03931993
H       -1.57295275      -0.47690609       1.26601131
H       -0.19037450       1.72507201       1.13036172
H       -0.15483159       2.03218281      -0.63199370
H        1.89504157      -0.89034389       0.59802069
H        1.86213526      -0.48626739      -1.14779781
13
Frame=12 idx=003737 GeodesicLength=0.6299887236367644 rxn_smarts="[C:1]1([H:7])([H:8])[N:2]([H:9])[C:3]12[C:4]([H:10])([H:11])[O:5][C:6]2([H:12])[H:13]>>[C-:1]1([H:8])[N+:2]([H:7])([H:9])[C:3]12[C:4]([H:10])([H:11])[O:5][C:6]2([H:12])[H:13]"
C       -1.11441844      -0.83405026      -0.84475771
N       -0.89888206      -0.97468150       0.70571488
C       -0.06469856      -0.11711777      -0.12297225
C        0.17078027       1.35816295       0.16416606
O        1.58913506       1.15209696       0.15054633
C        1.44779984      -0.24554592      -0.16367319
H       -0.97375783      -2.02691368      -0.07079232
H       -1.99622267      -0.22254840      -1.04109897
H       -1.57279323      -0.47517436       1.26935380
H       -0.18601079       1.72908887       1.13119883
H       -0.15217663       2.03671925      -0.63112835
H        1.89144672      -0.89047341       0.59982016
H        1.85979833      -0.48956273      -1.14637727
13
Frame=13 idx=003737 GeodesicLength=0.6824188329867789 rxn_smarts="[C:1]1([H:7])([H:8])[N:2]([H:9])[C:3]12[C:4]([H:10])([H:11])[O:5][C:6]2([H:12])[H:13]>>[C-:1]1([H:8])[N+:2]([H:7])([H:9])[C:3]12[C:4]([H:10])([H:11])[O:5][C:6]2([H:12])[H:13]"
C       -1.11886037      -0.83388649      -0.83645933
N       -0.90597686      -0.97167820       0.69955324
C       -0.06647630      -0.11299155      -0.12261543
C        0.17278680       1.36153500       0.16430126
O        1.59075829       1.15193574       0.14878772
C        1.44556294      -0.24582578      -0.16291318
H       -0.95974705      -2.04138098      -0.07897219
H       -1.99964009      -0.22500318      -1.04291923
H       -1.57249239      -0.47354694       1.27277877
H       -0.18165590       1.73309816       1.13201442
H       -0.14955903       2.04120299      -0.63028433
H        1.88787041      -0.89056825       0.60165081
H        1.85742956      -0.49289052      -1.14492253
13
Frame=14 idx=003737 GeodesicLength=0.7348422268486992 rxn_smarts="[C:1]1([H:7])([H:8])[N:2]([H:9])[C:3]12[C:4]([H:10])([H:11])[O:5][C:6]2([H:12])[H:13]>>[C-:1]1([H:8])[N+:2]([H:7])([H:9])[C:3]12[C:4]([H:10])([H:11])[O:5][C:6]2([H:12])[H:13]"
C       -1.12323003      -0.83373133      -0.82820401
N       -0.91297928      -0.96866360       0.69358146
C       -0.06827479      -0.10891028      -0.12220183
C        0.17476913       1.36487406       0.16442228
O        1.59234755       1.15175889       0.14701228
C        1.44330329      -0.24611537      -0.16213172
H       -0.94595570      -2.05544815      -0.08738513
H       -2.00297348      -0.22761423      -1.04476324
H       -1.57206982      -0.47201608       1.27627762
H       -0.17731776       1.73710735       1.13279921
H       -0.14696777       2.04562946      -0.62947188
H        1.88431967      -0.89063518       0.60350320
H        1.85502900      -0.49623553      -1.14343825
13
Frame=15 idx=003737 GeodesicLength=0.7872580918675581 rxn_smarts="[C:1]1([H:7])([H:8])[N:2]([H:9])[C:3]12[C:4]([H:10])([H:11])[O:5][C:6]2([H:12])[H:13]>>[C-:1]1([H:8])[N+:2]([H:7])([H:9])[C:3]12[C:4]([H:10])([H:11])[O:5][C:6]2([H:12])[H:13]"
C       -1.12753024      -0.83358392      -0.81998071
N       -0.91989033      -0.96562876       0.68780963
C       -0.07009042      -0.10487415      -0.12172696
C        0.17672958       1.36818227       0.16452671
O        1.59390492       1.15156376       0.14524157
C        1.44102414      -0.24641333      -0.16132934
H       -0.93238275      -2.06914855      -0.09604719
H       -2.00622329      -0.23037815      -1.04661416
H       -1.57154006      -0.47057263       1.27984653
H       -0.17300832       1.74112551       1.13354315
H       -0.14438905       2.04999204      -0.62870546
H        1.88079948      -0.89068324       0.60536702
H        1.85259633      -0.49958086      -1.14193080
13
Frame=16 idx=003737 GeodesicLength=0.8396685171693781 rxn_smarts="[C:1]1([H:7])([H:8])[N:2]([H:9])[C:3]12[C:4]([H:10])([H:11])[O:5][C:6]2([H:12])[H:13]>>[C-:1]1([H:8])[N+:2]([H:7])([H:9])[C:3]12[C:4]([H:10])([H:11])[O:5][C:6]2([H:12])[H:13]"
C       -1.13176632      -0.83344046      -0.81178298
N       -0.92671259      -0.96256746       0.68223989
C       -0.07192391      -0.10087810      -0.12119118
C        0.17867136       1.37146384       0.16461317
O        1.59543379       1.15135335       0.14346156
C        1.43872494      -0.24671994      -0.16050187
H       -0.91900725      -2.08251001      -0.10498953
H       -2.00940224      -0.23329843      -1.04845634
H       -1.57091720      -0.46921133       1.28348035
H       -0.16871506       1.74515802       1.13424744
H       -0.14182377       2.05429772      -0.62798263
H        1.87730648      -0.89070629       0.60725364
H        1.85013175      -0.50294091      -1.14039151
