10
Frame=0 idx=004798 GeodesicLength=0.0 rxn_smarts="[O:1]=[c:2]1[n:3]([H:7])[c:4]([H:8])[c:5]([H:9])[n:6]1[H:10]>>[C:4](#[C:5][H:9])[H:8].[O:1]1/[C:2](=[N:3]\[H:7])[N:6]1[H:10]"
O        2.11449405       0.75162649      -0.25798326
C        1.23127361      -0.09944217       0.05505088
N        1.07990457      -1.29597781       0.42159157
C       -1.66507519      -0.32520864      -0.29116868
C       -1.61365440       0.59677814       0.49388594
N        0.21414863       0.89141196      -0.12179808
H        1.98341444      -1.74691182       0.52065050
H       -1.63734401      -1.16035753      -0.95468066
H       -1.79559319       1.32433156       1.25228527
H        0.08843148       1.06374983      -1.11783347
10
Frame=1 idx=004798 GeodesicLength=0.08443637279133466 rxn_smarts="[O:1]=[c:2]1[n:3]([H:7])[c:4]([H:8])[c:5]([H:9])[n:6]1[H:10]>>[C:4](#[C:5][H:9])[H:8].[O:1]1/[C:2](=[N:3]\[H:7])[N:6]1[H:10]"
O        2.13212436       0.75095940      -0.25549364
C        1.23889695      -0.08035330       0.07799158
N        1.05180938      -1.28837806       0.39669312
C       -1.62208586      -0.36084554      -0.26243661
C       -1.60421850       0.59612500       0.48606738
N        0.23538843       0.91843878      -0.10162814
H        1.93775814      -1.77867481       0.45481292
H       -1.62771385      -1.21697501      -0.89884324
H       -1.84782919       1.35356305       1.19666132
H        0.10587014       1.10614050      -1.09382468
10
Frame=2 idx=004798 GeodesicLength=0.1687365164534625 rxn_smarts="[O:1]=[c:2]1[n:3]([H:7])[c:4]([H:8])[c:5]([H:9])[n:6]1[H:10]>>[C:4](#[C:5][H:9])[H:8].[O:1]1/[C:2](=[N:3]\[H:7])[N:6]1[H:10]"
O        2.14950423       0.74957323      -0.25061841
C        1.24694597      -0.06367126       0.09921205
N        1.02547788      -1.27968822       0.37376645
C       -1.58050980      -0.39229268      -0.23634758
C       -1.59444030       0.59520556       0.47685785
N        0.25714931       0.94361686      -0.08034103
H        1.89171305      -1.80635903       0.38590179
H       -1.62186778      -1.27319894      -0.83641486
H       -1.89863043       1.37725835       1.13593789
H        0.12465786       1.14955612      -1.06795415
10
Frame=3 idx=004798 GeodesicLength=0.25270503021971197 rxn_smarts="[O:1]=[c:2]1[n:3]([H:7])[c:4]([H:8])[c:5]([H:9])[n:6]1[H:10]>>[C:4](#[C:5][H:9])[H:8].[O:1]1/[C:2](=[N:3]\[H:7])[N:6]1[H:10]"
O        2.16643463       0.74742490      -0.24492213
C        1.25485801      -0.04918837       0.11744180
N        1.00011605      -1.27021884       0.35137419
C       -1.54093158      -0.42009504      -0.21384079
C       -1.58459493       0.59436532       0.46508128
N        0.27910056       0.96725426      -0.05928844
H        1.84506544      -1.82891694       0.32020809
H       -1.61945535      -1.32705525      -0.76966715
H       -1.94497187       1.39252642       1.07509596
H        0.14437904       1.19390354      -1.04148281
10
Frame=4 idx=004798 GeodesicLength=0.33620049623322723 rxn_smarts="[O:1]=[c:2]1[n:3]([H:7])[c:4]([H:8])[c:5]([H:9])[n:6]1[H:10]>>[C:4](#[C:5][H:9])[H:8].[O:1]1/[C:2](=[N:3]\[H:7])[N:6]1[H:10]"
O        2.18265762       0.74398830      -0.23995015
C        1.26235834      -0.03728498       0.13187260
N        0.97573477      -1.26074958       0.32933968
C       -1.50351733      -0.44509987      -0.19381779
C       -1.57449821       0.59338184       0.45174744
N        0.30112417       0.98923602      -0.03787754
H        1.79872702      -1.84713301       0.25854566
H       -1.61816640      -1.37697933      -0.70001626
H       -1.98873880       1.40116214       1.01364913
H        0.16431884       1.23947846      -1.01349277
10
Frame=5 idx=004798 GeodesicLength=0.4194763485352305 rxn_smarts="[O:1]=[c:2]1[n:3]([H:7])[c:4]([H:8])[c:5]([H:9])[n:6]1[H:10]>>[C:4](#[C:5][H:9])[H:8].[O:1]1/[C:2](=[N:3]\[H:7])[N:6]1[H:10]"
O        2.19834001       0.74036981      -0.23404703
C        1.26991229      -0.02782488       0.14311181
N        0.95277235      -1.25223946       0.30340829
C       -1.46808874      -0.46807517      -0.17578869
C       -1.56379152       0.59069014       0.43954666
N        0.32319062       1.00928825      -0.01421043
H        1.75420260      -1.86223320       0.19891392
H       -1.61961660      -1.42408151      -0.62441346
H       -2.03108799       1.40708859       0.94496018
H        0.18416698       1.28701742      -0.98148125
10
Frame=6 idx=004798 GeodesicLength=0.5023908441032198 rxn_smarts="[O:1]=[c:2]1[n:3]([H:7])[c:4]([H:8])[c:5]([H:9])[n:6]1[H:10]>>[C:4](#[C:5][H:9])[H:8].[O:1]1/[C:2](=[N:3]\[H:7])[N:6]1[H:10]"
O        2.21325312       0.73618610      -0.22785743
C        1.27654632      -0.01974807       0.15215607
N        0.92993966      -1.24322437       0.27835308
C       -1.43501404      -0.48906516      -0.16193365
C       -1.55380066       0.58869188       0.42293271
N        0.34486655       1.02820978       0.00896989
H        1.70947736      -1.87420116       0.14172882
H       -1.62118269      -1.46780184      -0.54433253
H       -2.06895612       1.40596946       0.87877853
H        0.20487049       1.33498337      -0.94879550
10
Frame=7 idx=004798 GeodesicLength=0.5851534195524992 rxn_smarts="[O:1]=[c:2]1[n:3]([H:7])[c:4]([H:8])[c:5]([H:9])[n:6]1[H:10]>>[C:4](#[C:5][H:9])[H:8].[O:1]1/[C:2](=[N:3]\[H:7])[N:6]1[H:10]"
O        2.22748324       0.73249607      -0.21882592
C        1.28273137      -0.01326395       0.15998220
N        0.90815828      -1.23469764       0.25041342
C       -1.40397578      -0.50957723      -0.14959108
C       -1.54409700       0.58576051       0.40501923
N        0.36595059       1.04523696       0.03366580
H        1.66604020      -1.88355042       0.08236235
H       -1.62407823      -1.50809633      -0.45650564
H       -2.10402180       1.40265068       0.80649842
H        0.22580912       1.38304135      -0.91301877
10
Frame=8 idx=004798 GeodesicLength=0.6675651348796846 rxn_smarts="[O:1]=[c:2]1[n:3]([H:7])[c:4]([H:8])[c:5]([H:9])[n:6]1[H:10]>>[C:4](#[C:5][H:9])[H:8].[O:1]1/[C:2](=[N:3]\[H:7])[N:6]1[H:10]"
O        2.24038874       0.72765137      -0.21131052
C        1.28772247      -0.00813028       0.16584476
N        0.88640352      -1.22606490       0.22349104
C       -1.37560588      -0.52946601      -0.13814244
C       -1.53507266       0.58358629       0.38352543
N        0.38623168       1.06078176       0.05802321
H        1.62285774      -1.89057834       0.02635827
H       -1.62368049      -1.54245162      -0.36846525
H       -2.13575920       1.39422096       0.73686244
H        0.24651408       1.43045076      -0.87618693
10
Frame=9 idx=004798 GeodesicLength=0.7499617903017339 rxn_smarts="[O:1]=[c:2]1[n:3]([H:7])[c:4]([H:8])[c:5]([H:9])[n:6]1[H:10]>>[C:4](#[C:5][H:9])[H:8].[O:1]1/[C:2](=[N:3]\[H:7])[N:6]1[H:10]"
O        2.25233743       0.72311969      -0.20161605
C        1.29197807      -0.00433286       0.17086351
N        0.86538251      -1.21781266       0.19399330
C       -1.34939585      -0.54988967      -0.12619063
C       -1.52655536       0.58071491       0.36011260
N        0.40555587       1.07434640       0.08373100
H        1.58081930      -1.89529098      -0.03212992
H       -1.62271110      -1.57227365      -0.27439844
H       -2.16442622       1.38425629       0.66192357
H        0.26701536       1.47716253      -0.83628894
10
Frame=10 idx=004798 GeodesicLength=0.8320680139860855 rxn_smarts="[O:1]=[c:2]1[n:3]([H:7])[c:4]([H:8])[c:5]([H:9])[n:6]1[H:10]>>[C:4](#[C:5][H:9])[H:8].[O:1]1/[C:2](=[N:3]\[H:7])[N:6]1[H:10]"
O        2.26267168       0.71762815      -0.19509887
C        1.29529284      -0.00177367       0.17360669
N        0.84437093      -1.20964216       0.16433957
C       -1.32560888      -0.57016832      -0.11360102
C       -1.51830317       0.57759021       0.33533677
N        0.42404793       1.08626653       0.11029154
H        1.53973603      -1.89869410      -0.08624288
H       -1.61846156      -1.59623296      -0.18205155
H       -2.19012932       1.37134643       0.58678342
H        0.28638352       1.52367989      -0.79336367
10
Frame=11 idx=004798 GeodesicLength=0.9138085087436532 rxn_smarts="[O:1]=[c:2]1[n:3]([H:7])[c:4]([H:8])[c:5]([H:9])[n:6]1[H:10]>>[C:4](#[C:5][H:9])[H:8].[O:1]1/[C:2](=[N:3]\[H:7])[N:6]1[H:10]"
O        2.27130394       0.71135584      -0.19175952
C        1.29752858      -0.00012086       0.17423828
N        0.82311304      -1.20138896       0.13546786
C       -1.30412978      -0.59005374      -0.10147181
C       -1.51040729       0.57452138       0.30744554
N        0.44167534       1.09671490       0.13728274
H        1.49910135      -1.90119662      -0.13581743
H       -1.61047349      -1.61507523      -0.09157223
H       -2.21263944       1.35539987       0.51395924
H        0.30492777       1.56984344      -0.74777267
10
Frame=12 idx=004798 GeodesicLength=0.995671273145288 rxn_smarts="[O:1]=[c:2]1[n:3]([H:7])[c:4]([H:8])[c:5]([H:9])[n:6]1[H:10]>>[C:4](#[C:5][H:9])[H:8].[O:1]1/[C:2](=[N:3]\[H:7])[N:6]1[H:10]"
O        2.27866572       0.70552173      -0.18672220
C        1.29889776       0.00040552       0.17420084
N        0.80216460      -1.19332283       0.10338341
C       -1.28453859      -0.61100152      -0.08690844
C       -1.50277702       0.57064222       0.27650203
N        0.45823305       1.10495829       0.16664248
H        1.45898832      -1.90172558      -0.19008410
H       -1.60070086      -1.62942839       0.00655689
H       -2.23207934       1.33865686       0.43359509
H        0.32314637       1.61529370      -0.69716600
10
Frame=13 idx=004798 GeodesicLength=1.0773725975223003 rxn_smarts="[O:1]=[c:2]1[n:3]([H:7])[c:4]([H:8])[c:5]([H:9])[n:6]1[H:10]>>[C:4](#[C:5][H:9])[H:8].[O:1]1/[C:2](=[N:3]\[H:7])[N:6]1[H:10]"
O        2.28470334       0.69976488      -0.18111923
C        1.29930341      -0.00028651       0.17319943
N        0.78112865      -1.18547546       0.06886491
C       -1.26709106      -0.63279272      -0.06932624
C       -1.49540328       0.56607865       0.24186204
N        0.47373894       1.11095604       0.19869887
H        1.41865926      -1.90039364      -0.24894781
H       -1.58726198      -1.63875995       0.11180167
H       -2.24865893       1.32072275       0.34567636
H        0.34088165       1.66018597      -0.64071001
10
Frame=14 idx=004798 GeodesicLength=1.1590491771785951 rxn_smarts="[O:1]=[c:2]1[n:3]([H:7])[c:4]([H:8])[c:5]([H:9])[n:6]1[H:10]>>[C:4](#[C:5][H:9])[H:8].[O:1]1/[C:2](=[N:3]\[H:7])[N:6]1[H:10]"
O        2.28870026       0.69348787      -0.17672609
C        1.29837183      -0.00234899       0.17074280
N        0.75923987      -1.17768229       0.03245581
C       -1.25189964      -0.65457493      -0.04885680
C       -1.48778449       0.56094703       0.20278591
N        0.48826160       1.11432537       0.23430588
H        1.37684641      -1.89721871      -0.31181834
H       -1.56733115      -1.64170770       0.22417225
H       -2.26218709       1.30013385       0.24947589
H        0.35778240       1.70463850      -0.57653732
10
Frame=15 idx=004798 GeodesicLength=1.2409344165310483 rxn_smarts="[O:1]=[c:2]1[n:3]([H:7])[c:4]([H:8])[c:5]([H:9])[n:6]1[H:10]>>[C:4](#[C:5][H:9])[H:8].[O:1]1/[C:2](=[N:3]\[H:7])[N:6]1[H:10]"
O        2.29029398       0.68764491      -0.17320954
C        1.29625275      -0.00567708       0.16729996
N        0.73652169      -1.16976086      -0.00629380
C       -1.23848635      -0.67735276      -0.02348855
C       -1.47946943       0.55358344       0.15986254
N        0.50148179       1.11445591       0.27458245
H        1.33278461      -1.89082705      -0.38224579
H       -1.54226633      -1.63684399       0.34623836
H       -2.27032996       1.27705694       0.14019875
H        0.37321724       1.74772055      -0.50294438
10
Frame=16 idx=004798 GeodesicLength=1.3234062760805108 rxn_smarts="[O:1]=[c:2]1[n:3]([H:7])[c:4]([H:8])[c:5]([H:9])[n:6]1[H:10]>>[C:4](#[C:5][H:9])[H:8].[O:1]1/[C:2](=[N:3]\[H:7])[N:6]1[H:10]"
O        2.28782446       0.68207818      -0.17974221
C        1.29310023      -0.00901496       0.16149985
N        0.71275833      -1.16170733      -0.03920287
C       -1.22639179      -0.69828416      -0.00275495
C       -1.46936960       0.54453222       0.11531035
N        0.51399833       1.11230575       0.31639329
H        1.28704641      -1.88486727      -0.44288337
H       -1.51125363      -1.62340734       0.45924211
H       -2.27296302       1.25002116       0.03556454
H        0.38525028       1.78834375      -0.42342673
