12
Frame=0 idx=003902 GeodesicLength=0.0 rxn_smarts="[C:1]([C:2]([N:3]([C:4](=[O:5])[H:12])[H:11])([H:9])[H:10])([H:6])([H:7])[H:8]>>[C:1](=[C:2]([H:9])[H:10])([H:6])[H:7].[N:3](=[C:4](/[O:5][H:8])[H:12])\[H:11]"
C       -1.27318944       0.53776793       0.51152114
C       -0.95984291      -0.70061641      -0.04575862
N        0.99562529      -0.84533263      -0.36492801
C        1.60208017       0.29151342      -0.24736622
O        1.23832695       1.15016962       0.62892915
H       -1.60663217       0.55700930       1.54387234
H       -1.67924808       1.30682409      -0.13579170
H        0.09403655       0.97039608       0.72335500
H       -1.15446155      -0.88918704      -1.09497987
H       -0.97447057      -1.58787625       0.57169546
H        1.29411156      -1.37393169      -1.17485760
H        2.42366424       0.58326358      -0.91569103
12
Frame=1 idx=003902 GeodesicLength=0.06757384432838573 rxn_smarts="[C:1]([C:2]([N:3]([C:4](=[O:5])[H:12])[H:11])([H:9])[H:10])([H:6])([H:7])[H:8]>>[C:1](=[C:2]([H:9])[H:10])([H:6])[H:7].[N:3](=[C:4](/[O:5][H:8])[H:12])\[H:11]"
C       -1.27824052       0.54062614       0.50470318
C       -0.95952296      -0.70982290      -0.02625203
N        0.99045761      -0.83139720      -0.40841747
C        1.61599690       0.29015641      -0.24480774
O        1.25895370       1.12316788       0.65803153
H       -1.65266865       0.57680546       1.52253076
H       -1.65881000       1.30024562      -0.16928131
H        0.09351661       0.96630584       0.73797505
H       -1.18630984      -0.93233247      -1.06237969
H       -0.95624778      -1.57802440       0.61869534
H        1.28057734      -1.33232987      -1.23847093
H        2.45229760       0.58659949      -0.89232669
12
Frame=2 idx=003902 GeodesicLength=0.1344830743971221 rxn_smarts="[C:1]([C:2]([N:3]([C:4](=[O:5])[H:12])[H:11])([H:9])[H:10])([H:6])([H:7])[H:8]>>[C:1](=[C:2]([H:9])[H:10])([H:6])[H:7].[N:3](=[C:4](/[O:5][H:8])[H:12])\[H:11]"
C       -1.28362217       0.54285329       0.49825103
C       -0.95885229      -0.71863881      -0.00695283
N        0.98403816      -0.81556535      -0.45116186
C        1.63035389       0.28725661      -0.24132686
O        1.27872102       1.09630311       0.68459347
H       -1.69689451       0.59484672       1.50033303
H       -1.64084613       1.29164144      -0.20074552
H        0.09214595       0.96448612       0.74982128
H       -1.21522322      -0.97415485      -1.02855418
H       -0.93669961      -1.56700669       0.66427640
H        1.26441288      -1.28696744      -1.30138189
H        2.48246603       0.58494584      -0.86715206
12
Frame=3 idx=003902 GeodesicLength=0.20072296072821297 rxn_smarts="[C:1]([C:2]([N:3]([C:4](=[O:5])[H:12])[H:11])([H:9])[H:10])([H:6])([H:7])[H:8]>>[C:1](=[C:2]([H:9])[H:10])([H:6])[H:7].[N:3](=[C:4](/[O:5][H:8])[H:12])\[H:11]"
C       -1.28926067       0.54450346       0.49229080
C       -0.95773438      -0.72692303       0.01196281
N        0.97668658      -0.79815540      -0.49246617
C        1.64517722       0.28252767      -0.23688683
O        1.29768082       1.07003452       0.70842563
H       -1.73950909       0.61074951       1.47755355
H       -1.62535951       1.28139066      -0.23001103
H        0.09015316       0.96478508       0.75925102
H       -1.24060883      -1.01406880      -0.99419338
H       -0.91646856      -1.55497104       0.70795798
H        1.24624599      -1.23835758      -1.36244873
H        2.51299727       0.57848495      -0.84143565
12
Frame=4 idx=003902 GeodesicLength=0.2664496101929081 rxn_smarts="[C:1]([C:2]([N:3]([C:4](=[O:5])[H:12])[H:11])([H:9])[H:10])([H:6])([H:7])[H:8]>>[C:1](=[C:2]([H:9])[H:10])([H:6])[H:7].[N:3](=[C:4](/[O:5][H:8])[H:12])\[H:11]"
C       -1.29517658       0.54558199       0.48701920
C       -0.95614358      -0.73461005       0.03034303
N        0.96873869      -0.77943248      -0.53180448
C        1.66037864       0.27599724      -0.23177702
O        1.31587148       1.04517398       0.72908416
H       -1.78060621       0.62419320       1.45461882
H       -1.61250134       1.26980830      -0.25682515
H        0.08766938       0.96705281       0.76657150
H       -1.26223531      -1.05161943      -0.95998647
H       -0.89626579      -1.54222353       0.74933369
H        1.22662981      -1.18707968      -1.42076705
H        2.54364081       0.56715765      -0.81581024
12
Frame=5 idx=003902 GeodesicLength=0.33171132413510923 rxn_smarts="[C:1]([C:2]([N:3]([C:4](=[O:5])[H:12])[H:11])([H:9])[H:10])([H:6])([H:7])[H:8]>>[C:1](=[C:2]([H:9])[H:10])([H:6])[H:7].[N:3](=[C:4](/[O:5][H:8])[H:12])\[H:11]"
C       -1.30130859       0.54616409       0.48247137
C       -0.95406275      -0.74166933       0.04812231
N        0.96047762      -0.75971322      -0.56885771
C        1.67591017       0.26757131      -0.22605194
O        1.33347714       1.02203133       0.74665560
H       -1.82040240       0.63512680       1.43164981
H       -1.60197611       1.25725242      -0.28126762
H        0.08485535       0.97096899       0.77221491
H       -1.28010035      -1.08665725      -0.92641411
H       -0.87664334      -1.52897706       0.78833596
H        1.20612293      -1.13362765      -1.47573390
H        2.57365034       0.55152957      -0.79112469
12
Frame=6 idx=003902 GeodesicLength=0.3965868607434121 rxn_smarts="[C:1]([C:2]([N:3]([C:4](=[O:5])[H:12])[H:11])([H:9])[H:10])([H:6])([H:7])[H:8]>>[C:1](=[C:2]([H:9])[H:10])([H:6])[H:7].[N:3](=[C:4](/[O:5][H:8])[H:12])\[H:11]"
C       -1.30762100       0.54632216       0.47867233
C       -0.95152566      -0.74809817       0.06525091
N        0.95215593      -0.73929075      -0.60342479
C        1.69165692       0.25730908      -0.21988657
O        1.35070564       1.00086147       0.76124637
H       -1.85907663       0.64358293       1.40874345
H       -1.59345018       1.24405079      -0.30343311
H        0.08182271       0.97618653       0.77664428
H       -1.29436958      -1.11912059      -0.89387935
H       -0.85811039      -1.51546083       0.82497764
H        1.18527001      -1.07858448      -1.52688167
H        2.60254222       0.53224185      -0.76802949
12
Frame=7 idx=003902 GeodesicLength=0.46100704811334847 rxn_smarts="[C:1]([C:2]([N:3]([C:4](=[O:5])[H:12])[H:11])([H:9])[H:10])([H:6])([H:7])[H:8]>>[C:1](=[C:2]([H:9])[H:10])([H:6])[H:7].[N:3](=[C:4](/[O:5][H:8])[H:12])\[H:11]"
C       -1.31404653       0.54613009       0.47565833
C       -0.94859281      -0.75386853       0.08162760
N        0.94403812      -0.71850777      -0.63522004
C        1.70742422       0.24545650      -0.21357039
O        1.36778716       0.98181837       0.77298423
H       -1.89671983       0.64961917       1.38596766
H       -1.58647270       1.23058772      -0.32334244
H        0.07867096       0.98224560       0.78045864
H       -1.30523477      -1.14879348      -0.86284810
H       -0.84130088      -1.50197276       0.85917368
H        1.16476199      -1.02301501      -1.57353393
H        2.62968507       0.51030010      -0.74735525
12
Frame=8 idx=003902 GeodesicLength=0.5250508530122604 rxn_smarts="[C:1]([C:2]([N:3]([C:4](=[O:5])[H:12])[H:11])([H:9])[H:10])([H:6])([H:7])[H:8]>>[C:1](=[C:2]([H:9])[H:10])([H:6])[H:7].[N:3](=[C:4](/[O:5][H:8])[H:12])\[H:11]"
C       -1.32049248       0.54573242       0.47346279
C       -0.94538743      -0.75896529       0.09723173
N        0.93633518      -0.69774667      -0.66414978
C        1.72296162       0.23242718      -0.20751333
O        1.38504879       0.96462843       0.78232558
H       -1.93375070       0.65340393       1.36314278
H       -1.58026947       1.21733100      -0.34108487
H        0.07554168       0.98861201       0.78452283
H       -1.31304022      -1.17559541      -0.83363511
H       -0.82676321      -1.48872482       0.89104221
H        1.14544003      -0.96829735      -1.61525476
H        2.65437620       0.48719456      -0.73009006
12
Frame=9 idx=003902 GeodesicLength=0.5887920213438586 rxn_smarts="[C:1]([C:2]([N:3]([C:4](=[O:5])[H:12])[H:11])([H:9])[H:10])([H:6])([H:7])[H:8]>>[C:1](=[C:2]([H:9])[H:10])([H:6])[H:7].[N:3](=[C:4](/[O:5][H:8])[H:12])\[H:11]"
C       -1.32698715       0.54517426       0.47203170
C       -0.94195799      -0.76346534       0.11218690
N        0.92905606      -0.67700775      -0.69053851
C        1.73814167       0.21859799      -0.20198624
O        1.40262715       0.94910086       0.78956960
H       -1.97029658       0.65518251       1.34014841
H       -1.57460278       1.20436788      -0.35688912
H        0.07239868       0.99513868       0.78906525
H       -1.31827697      -1.19985792      -0.80611799
H       -0.81447502      -1.47580235       0.92095167
H        1.12738965      -0.91470214      -1.65248364
H        2.67698328       0.46327332      -0.71593803
12
Frame=10 idx=003902 GeodesicLength=0.6522795585570682 rxn_smarts="[C:1]([C:2]([N:3]([C:4](=[O:5])[H:12])[H:11])([H:9])[H:10])([H:6])([H:7])[H:8]>>[C:1](=[C:2]([H:9])[H:10])([H:6])[H:7].[N:3](=[C:4](/[O:5][H:8])[H:12])\[H:11]"
C       -1.33353349       0.54451201       0.47129135
C       -0.93836301      -0.76742864       0.12658274
N        0.92220874      -0.65634182      -0.71462029
C        1.75290304       0.20425267      -0.19713051
O        1.42064858       0.93490569       0.79511291
H       -2.00639929       0.65520876       1.31686204
H       -1.56920206       1.19180159      -0.37097945
H        0.06923129       1.00169800       0.79429751
H       -1.32135165      -1.22184820      -0.78020495
H       -0.80446567      -1.46327306       0.94920195
H        1.11073287      -0.86261774      -1.68557489
H        2.69759064       0.43913076      -0.70483841
12
Frame=11 idx=003902 GeodesicLength=0.715499440896163 rxn_smarts="[C:1]([C:2]([N:3]([C:4](=[O:5])[H:12])[H:11])([H:9])[H:10])([H:6])([H:7])[H:8]>>[C:1](=[C:2]([H:9])[H:10])([H:6])[H:7].[N:3](=[C:4](/[O:5][H:8])[H:12])\[H:11]"
C       -1.34009008       0.54383098       0.47122653
C       -0.93463447      -0.77084770       0.14051505
N        0.91580152      -0.63582895      -0.73656812
C        1.76719150       0.18959713      -0.19307823
O        1.43923996       0.92157493       0.79936262
H       -2.04228562       0.65362718       1.29298255
H       -1.56369623       1.17980058      -0.38345067
H        0.06607413       1.00812514       0.80050134
H       -1.32259557      -1.24167534      -0.75577051
H       -0.79675456      -1.45113824       0.97602099
H        1.09571259      -0.81263658      -1.71475010
H        2.71603682       0.41557088      -0.69699145
12
Frame=12 idx=003902 GeodesicLength=0.7785363512094399 rxn_smarts="[C:1]([C:2]([N:3]([C:4](=[O:5])[H:12])[H:11])([H:9])[H:10])([H:6])([H:7])[H:8]>>[C:1](=[C:2]([H:9])[H:10])([H:6])[H:7].[N:3](=[C:4](/[O:5][H:8])[H:12])\[H:11]"
C       -1.34672935       0.54314447       0.47180505
C       -0.93083633      -0.77377659       0.15403457
N        0.90975716      -0.61533114      -0.75668298
C        1.78092241       0.17516488      -0.19010623
O        1.45841715       0.90891504       0.80259225
H       -2.07785381       0.65064513       1.26854216
H       -1.55804796       1.16840786      -0.39441739
H        0.06284636       1.01438131       0.80783028
H       -1.32235698      -1.25957850      -0.73272031
H       -0.79128053      -1.43945517       1.00158950
H        1.08239260      -0.76524717      -1.74046777
H        2.73276927       0.39272989      -0.69199913
12
Frame=13 idx=003902 GeodesicLength=0.8414493751404601 rxn_smarts="[C:1]([C:2]([N:3]([C:4](=[O:5])[H:12])[H:11])([H:9])[H:10])([H:6])([H:7])[H:8]>>[C:1](=[C:2]([H:9])[H:10])([H:6])[H:7].[N:3](=[C:4](/[O:5][H:8])[H:12])\[H:11]"
C       -1.35353586       0.54242152       0.47291966
C       -0.92689890      -0.77629869       0.16734382
N        0.90395044      -0.59462374      -0.77539032
C        1.79414049       0.16090878      -0.18810701
O        1.47811727       0.89688601       0.80484745
H       -2.11309734       0.64634229       1.24342097
H       -1.55245079       1.15740350      -0.40413853
H        0.05942624       1.02070128       0.81594462
H       -1.32080691      -1.27604503      -0.71063016
H       -0.78753381      -1.42805859       1.02632137
H        1.07022514      -0.71939464      -1.76359062
H        2.74846401       0.36975730      -0.68894125
12
Frame=14 idx=003902 GeodesicLength=0.9043073468087297 rxn_smarts="[C:1]([C:2]([N:3]([C:4](=[O:5])[H:12])[H:11])([H:9])[H:10])([H:6])([H:7])[H:8]>>[C:1](=[C:2]([H:9])[H:10])([H:6])[H:7].[N:3](=[C:4](/[O:5][H:8])[H:12])\[H:11]"
C       -1.36053536       0.54164116       0.47448826
C       -0.92275803      -0.77848082       0.18062661
N        0.89829859      -0.57357558      -0.79295640
C        1.80690864       0.14667226      -0.18692184
O        1.49834839       0.88542123       0.80617403
H       -2.14810807       0.64077744       1.21736546
H       -1.54692511       1.14662545      -0.41283111
H        0.05576456       1.02720685       0.82466211
H       -1.31802147      -1.29144489      -0.68915382
H       -0.78516638      -1.41681196       1.05056160
H        1.05875592      -0.67415009      -1.78469236
H        2.76343832       0.34611894      -0.68732255
12
Frame=15 idx=003902 GeodesicLength=0.9670489537173087 rxn_smarts="[C:1]([C:2]([N:3]([C:4](=[O:5])[H:12])[H:11])([H:9])[H:10])([H:6])([H:7])[H:8]>>[C:1](=[C:2]([H:9])[H:10])([H:6])[H:7].[N:3](=[C:4](/[O:5][H:8])[H:12])\[H:11]"
C       -1.36767659       0.54090504       0.47651440
C       -0.91855925      -0.78025950       0.19374394
N        0.89290950      -0.55244182      -0.80915755
C        1.81922916       0.13284314      -0.18671176
O        1.51920901       0.87390970       0.80715565
H       -2.18263689       0.63416960       1.19045299
H       -1.54110921       1.13642933      -0.42040254
H        0.05192490       1.03363479       0.83440893
H       -1.31423064      -1.30547986      -0.66859259
H       -0.78473186      -1.40592433       1.07407009
H        1.04868256      -0.63143770      -1.80341375
H        2.77698931       0.32365160      -0.68806781
12
Frame=16 idx=003902 GeodesicLength=1.029740795135736 rxn_smarts="[C:1]([C:2]([N:3]([C:4](=[O:5])[H:12])[H:11])([H:9])[H:10])([H:6])([H:7])[H:8]>>[C:1](=[C:2]([H:9])[H:10])([H:6])[H:7].[N:3](=[C:4](/[O:5][H:8])[H:12])\[H:11]"
C       -1.37501982       0.54017448       0.47894390
C       -0.91424357      -0.78168750       0.20684785
N        0.88767102      -0.53100042      -0.82427326
C        1.83115218       0.11929321      -0.18734991
O        1.54066635       0.86239610       0.80773447
H       -2.21671070       0.62654262       1.16254379
H       -1.53513598       1.12664940      -0.42699840
H        0.04782032       1.04013654       0.84497751
H       -1.30947814      -1.31846598      -0.64864391
H       -0.78586861      -1.39527170       1.09710586
H        1.03960308      -0.59042828      -1.82030940
H        2.78954387       0.30166153      -0.69057850
