17
Frame=0 idx=010465 GeodesicLength=0.0 rxn_smarts="[C:1]([C:2]([C@@:3]([C:4]([H:13])([H:14])[H:15])([O:5][H:16])[C:6]#[C:7][H:17])([H:11])[H:12])([H:8])([H:9])[H:10]>>[C:1]([C:2]([C:3](=[O:5])[C:6]#[C:7][H:17])([H:11])[H:12])([H:8])([H:9])[H:10].[C:4]([H:13])([H:14])([H:15])[H:16]"
C        2.19522853       0.13370718       0.25117321
C        0.94593292      -0.39606494      -0.44558664
C       -0.25898589      -0.13535468       0.44229731
C       -1.70989550      -0.98794842      -0.57503995
O       -0.29378746      -0.75742837       1.61389514
C       -0.73950528       1.25228044       0.40993843
C       -1.10476999       2.39229205       0.41326932
H        3.08141379      -0.10128644      -0.33886823
H        2.29808573      -0.32213187       1.23560594
H        2.14792961       1.21703179       0.37646809
H        1.02525514      -1.47605048      -0.58315272
H        0.81593602       0.07462967      -1.42216944
H       -2.71681242      -0.77993403      -0.20822230
H       -1.52414291      -0.39206450      -1.46160125
H       -1.55441569      -2.04510519      -0.80411668
H       -1.17567946      -1.08211944       0.66376222
H       -1.43178707       3.40554716       0.43234763
17
Frame=1 idx=010465 GeodesicLength=0.09425403164063059 rxn_smarts="[C:1]([C:2]([C@@:3]([C:4]([H:13])([H:14])[H:15])([O:5][H:16])[C:6]#[C:7][H:17])([H:11])[H:12])([H:8])([H:9])[H:10]>>[C:1]([C:2]([C:3](=[O:5])[C:6]#[C:7][H:17])([H:11])[H:12])([H:8])([H:9])[H:10].[C:4]([H:13])([H:14])([H:15])[H:16]"
C        2.19920945       0.14293106       0.24867804
C        0.95084807      -0.39981564      -0.43945548
C       -0.25838979      -0.13688450       0.44170808
C       -1.72020654      -0.99240202      -0.58014018
O       -0.29775064      -0.75892812       1.61227951
C       -0.72933428       1.25444273       0.41551336
C       -1.08576728       2.39731518       0.42087635
H        3.08519872      -0.09255534      -0.34149508
H        2.30774394      -0.30277340       1.23718217
H        2.14678969       1.22710606       0.36408243
H        1.03468617      -1.48071501      -0.56699800
H        0.81692240       0.06036172      -1.42062143
H       -2.73253378      -0.79350934      -0.22358285
H       -1.54005544      -0.39058856      -1.46456356
H       -1.55578240      -2.04546856      -0.82102087
H       -1.20213317      -1.09693552       0.67800569
H       -1.41944512       3.40841927       0.43955180
17
Frame=2 idx=010465 GeodesicLength=0.18842566915015543 rxn_smarts="[C:1]([C:2]([C@@:3]([C:4]([H:13])([H:14])[H:15])([O:5][H:16])[C:6]#[C:7][H:17])([H:11])[H:12])([H:8])([H:9])[H:10]>>[C:1]([C:2]([C:3](=[O:5])[C:6]#[C:7][H:17])([H:11])[H:12])([H:8])([H:9])[H:10].[C:4]([H:13])([H:14])([H:15])[H:16]"
C        2.20332302       0.15211120       0.24614428
C        0.95594277      -0.40329419      -0.43334857
C       -0.25753307      -0.13817987       0.44110060
C       -1.73056711      -0.99680777      -0.58501067
O       -0.30208220      -0.76098514       1.61018099
C       -0.71902161       1.25666288       0.42150779
C       -1.06695513       2.40222230       0.42930081
H        3.08910611      -0.08391884      -0.34415895
H        2.31738500      -0.28349765       1.23857025
H        2.14588770       1.23702090       0.35174589
H        1.04422828      -1.48498535      -0.55099980
H        0.81802851       0.04643357      -1.41890805
H       -2.74831573      -0.80767822      -0.23901169
H       -1.55632939      -0.38889452      -1.46717359
H       -1.55685139      -2.04547323      -0.83787828
H       -1.22934340      -1.11205083       0.69261907
H       -1.40690235       3.41131476       0.44531992
17
Frame=3 idx=010465 GeodesicLength=0.2825425039429997 rxn_smarts="[C:1]([C:2]([C@@:3]([C:4]([H:13])([H:14])[H:15])([O:5][H:16])[C:6]#[C:7][H:17])([H:11])[H:12])([H:8])([H:9])[H:10]>>[C:1]([C:2]([C:3](=[O:5])[C:6]#[C:7][H:17])([H:11])[H:12])([H:8])([H:9])[H:10].[C:4]([H:13])([H:14])([H:15])[H:16]"
C        2.20757908       0.16125656       0.24355778
C        0.96124611      -0.40655067      -0.42728313
C       -0.25640914      -0.13916344       0.44038196
C       -1.74097237      -1.00121574      -0.58965694
O       -0.30688608      -0.76341593       1.60754855
C       -0.70855280       1.25901316       0.42766876
C       -1.04833493       2.40708621       0.43815249
H        3.09316897      -0.07543838      -0.34680955
H        2.32696931      -0.26419822       1.23980900
H        2.14524261       1.24679986       0.33932847
H        1.05389641      -1.48893044      -0.53504937
H        0.81932528       0.03269056      -1.41710306
H       -2.76414705      -0.82245321      -0.25458933
H       -1.57292743      -0.38714430      -1.46949787
H       -1.55762914      -2.04517829      -0.85457698
H       -1.25737838      -1.12742757       0.70761666
H       -1.39419046       3.41426985       0.45050257
17
Frame=4 idx=010465 GeodesicLength=0.3766347788667353 rxn_smarts="[C:1]([C:2]([C@@:3]([C:4]([H:13])([H:14])[H:15])([O:5][H:16])[C:6]#[C:7][H:17])([H:11])[H:12])([H:8])([H:9])[H:10]>>[C:1]([C:2]([C:3](=[O:5])[C:6]#[C:7][H:17])([H:11])[H:12])([H:8])([H:9])[H:10].[C:4]([H:13])([H:14])([H:15])[H:16]"
C        2.21198791       0.17037721       0.24090754
C        0.96678236      -0.40961930      -0.42127366
C       -0.25500884      -0.13977117       0.43947614
C       -1.75142242      -1.00567194      -0.59407412
O       -0.31225907      -0.76608257       1.60432527
C       -0.69791825       1.26155287       0.43380066
C       -1.02993891       2.41195929       0.44711717
H        3.09741827      -0.06715488      -0.34940497
H        2.33646583      -0.24479070       1.24092461
H        2.14487222       1.25646115       0.32673131
H        1.06370283      -1.49259630      -0.51906206
H        0.82086990       0.01901753      -1.41526095
H       -2.78001393      -0.83786125      -0.27037062
H       -1.58982793      -0.38546790      -1.47157967
H       -1.55811878      -2.04462992      -0.87103909
H       -1.28630645      -1.14305529       0.72301791
H       -1.38128475       3.41733318       0.45576452
17
Frame=5 idx=010465 GeodesicLength=0.4707168593786609 rxn_smarts="[C:1]([C:2]([C@@:3]([C:4]([H:13])([H:14])[H:15])([O:5][H:16])[C:6]#[C:7][H:17])([H:11])[H:12])([H:8])([H:9])[H:10]>>[C:1]([C:2]([C:3](=[O:5])[C:6]#[C:7][H:17])([H:11])[H:12])([H:8])([H:9])[H:10].[C:4]([H:13])([H:14])([H:15])[H:16]"
C        2.21656804       0.17946757       0.23820048
C        0.97256559      -0.41248402      -0.41533299
C       -0.25330698      -0.13998606       0.43837517
C       -1.76193045      -1.01016916      -0.59823249
O       -0.31824280      -0.76901125       1.60045655
C       -0.68709749       1.26429507       0.43993484
C       -1.01177487       2.41685123       0.45624920
H        3.10187381      -0.05906116      -0.35194161
H        2.34588725      -0.22531141       1.24191466
H        2.14479911       1.26599652       0.31398897
H        1.07364964      -1.49596485      -0.50306679
H        0.82267551       0.00544881      -1.41338389
H       -2.79590164      -0.85392541      -0.28632603
H       -1.60705496      -0.38384780      -1.47337868
H       -1.55834009      -2.04380386      -0.88726750
H       -1.31615531      -1.15901458       0.73883517
H       -1.36821436       3.42052037       0.46097494
17
Frame=6 idx=010465 GeodesicLength=0.5648101572182544 rxn_smarts="[C:1]([C:2]([C@@:3]([C:4]([H:13])([H:14])[H:15])([O:5][H:16])[C:6]#[C:7][H:17])([H:11])[H:12])([H:8])([H:9])[H:10]>>[C:1]([C:2]([C:3](=[O:5])[C:6]#[C:7][H:17])([H:11])[H:12])([H:8])([H:9])[H:10].[C:4]([H:13])([H:14])([H:15])[H:16]"
C        2.22133159       0.18853764       0.23543043
C        0.97861703      -0.41516404      -0.40947299
C       -0.25129175      -0.13975737       0.43701918
C       -1.77250223      -1.01474611      -0.60212043
O       -0.32492792      -0.77210576       1.59587543
C       -0.67608184       1.26728658       0.44593509
C       -0.99388307       2.42180062       0.46532440
H        3.10656300      -0.05117974      -0.35438325
H        2.35521240      -0.20570074       1.24279556
H        2.14504227       1.27541784       0.30103505
H        1.08374641      -1.49906110      -0.48700313
H        0.82478799      -0.00809202      -1.41150910
H       -2.81179625      -0.87068482      -0.30248003
H       -1.62460675      -0.38237230      -1.47491254
H       -1.55830173      -2.04272753      -0.90321658
H       -1.34698106      -1.17533718       0.75508946
H       -1.35492810       3.42388603       0.46659343
17
Frame=7 idx=010465 GeodesicLength=0.6589224339805054 rxn_smarts="[C:1]([C:2]([C@@:3]([C:4]([H:13])([H:14])[H:15])([O:5][H:16])[C:6]#[C:7][H:17])([H:11])[H:12])([H:8])([H:9])[H:10]>>[C:1]([C:2]([C:3](=[O:5])[C:6]#[C:7][H:17])([H:11])[H:12])([H:8])([H:9])[H:10].[C:4]([H:13])([H:14])([H:15])[H:16]"
C        2.22629850       0.19758148       0.23261015
C        0.98494947      -0.41763550      -0.40370492
C       -0.24893415      -0.13907247       0.43540961
C       -1.78315602      -1.01939214      -0.60569815
O       -0.33236114      -0.77541360       1.59051365
C       -0.66484991       1.27053461       0.45186708
C       -0.97627164       2.42681245       0.47445820
H        3.11150571      -0.04349455      -0.35672781
H        2.36446100      -0.18600945       1.24356242
H        2.14562713       1.28471529       0.28792495
H        1.09399313      -1.50185841      -0.47091150
H        0.82721384      -0.02154797      -1.40963103
H       -2.82767976      -0.88816581      -0.31877450
H       -1.64252425      -0.38099525      -1.47611433
H       -1.55802881      -2.04135288      -0.91892083
H       -1.37879555      -1.19215235       0.77178688
H       -1.34144755       3.42744656       0.47235014
17
Frame=8 idx=010465 GeodesicLength=0.7530545338060755 rxn_smarts="[C:1]([C:2]([C@@:3]([C:4]([H:13])([H:14])[H:15])([O:5][H:16])[C:6]#[C:7][H:17])([H:11])[H:12])([H:8])([H:9])[H:10]>>[C:1]([C:2]([C:3](=[O:5])[C:6]#[C:7][H:17])([H:11])[H:12])([H:8])([H:9])[H:10].[C:4]([H:13])([H:14])([H:15])[H:16]"
C        2.23148530       0.20660324       0.22974262
C        0.99157827      -0.41989991      -0.39803668
C       -0.24621657      -0.13790182       0.43351777
C       -1.79391031      -1.02412396      -0.60894166
O       -0.34061669      -0.77890377       1.58429810
C       -0.65338585       1.27406621       0.45769241
C       -0.95894813       2.43191508       0.48360347
H        3.11672598      -0.03600849      -0.35895216
H        2.37363104      -0.16622204       1.24422433
H        2.14657657       1.29389174       0.27464458
H        1.10439296      -1.50435936      -0.45477251
H        0.82997871      -0.03493742      -1.40776372
H       -2.84353530      -0.90641263      -0.33519167
H       -1.66083768      -0.37972934      -1.47695228
H       -1.55753992      -2.03966111      -0.93439104
H       -1.41162160      -1.20955637       0.78894051
H       -1.32775678       3.43123994       0.47833792
17
Frame=9 idx=010465 GeodesicLength=0.8472103353335015 rxn_smarts="[C:1]([C:2]([C@@:3]([C:4]([H:13])([H:14])[H:15])([O:5][H:16])[C:6]#[C:7][H:17])([H:11])[H:12])([H:8])([H:9])[H:10]>>[C:1]([C:2]([C:3](=[O:5])[C:6]#[C:7][H:17])([H:11])[H:12])([H:8])([H:9])[H:10].[C:4]([H:13])([H:14])([H:15])[H:16]"
C        2.23690943       0.21559606       0.22683751
C        0.99852129      -0.42194371      -0.39247524
C       -0.24311113      -0.13621770       0.43133254
C       -1.80477970      -1.02893687      -0.61181840
O       -0.34976162      -0.78256505       1.57714713
C       -0.64166521       1.27790495       0.46341980
C       -0.94196564       2.43711054       0.49273877
H        3.12224456      -0.02872768      -0.36104608
H        2.38273106      -0.14636390       1.24478534
H        2.14791747       1.30294163       0.26122156
H        1.11494850      -1.50654803      -0.43859446
H        0.83310464      -0.04824134      -1.40591031
H       -2.85934531      -0.92544735      -0.35167580
H       -1.67958343      -0.37854781      -1.47737488
H       -1.55685400      -2.03762344      -0.94964416
H       -1.44546360      -1.22769424       0.80655174
H       -1.31384732       3.43530392       0.48450495
17
Frame=10 idx=010465 GeodesicLength=0.9413657982830328 rxn_smarts="[C:1]([C:2]([C@@:3]([C:4]([H:13])([H:14])[H:15])([O:5][H:16])[C:6]#[C:7][H:17])([H:11])[H:12])([H:8])([H:9])[H:10]>>[C:1]([C:2]([C:3](=[O:5])[C:6]#[C:7][H:17])([H:11])[H:12])([H:8])([H:9])[H:10].[C:4]([H:13])([H:14])([H:15])[H:16]"
C        2.24258905       0.22456507       0.22390002
C        1.00578889      -0.42377176      -0.38702066
C       -0.23960572      -0.13399372       0.42883121
C       -1.81579309      -1.03384628      -0.61430665
O       -0.35987313      -0.78635299       1.56898671
C       -0.62967003       1.28207729       0.46901995
C       -0.92531827       2.44243415       0.50183141
H        3.12808502      -0.02165605      -0.36298487
H        2.39176554      -0.12641630       1.24525801
H        2.14967432       1.31186656       0.24763788
H        1.12565472      -1.50843058      -0.42234108
H        0.83661347      -0.06148624      -1.40407615
H       -2.87508693      -0.94532502      -0.36819294
H       -1.69881090      -0.37743785      -1.47733304
H       -1.55599546      -2.03519544      -0.96472526
H       -1.48030741      -1.24670541       0.82461350
H       -1.29971007       3.43967458       0.49090194
17
Frame=11 idx=010465 GeodesicLength=1.0354912016103501 rxn_smarts="[C:1]([C:2]([C@@:3]([C:4]([H:13])([H:14])[H:15])([O:5][H:16])[C:6]#[C:7][H:17])([H:11])[H:12])([H:8])([H:9])[H:10]>>[C:1]([C:2]([C:3](=[O:5])[C:6]#[C:7][H:17])([H:11])[H:12])([H:8])([H:9])[H:10].[C:4]([H:13])([H:14])([H:15])[H:16]"
C        2.24854429       0.23350461       0.22094102
C        1.01339112      -0.42537564      -0.38166940
C       -0.23568078      -0.13121272       0.42601473
C       -1.82697747      -1.03884562      -0.61638358
O       -0.37101367      -0.79025216       1.55974152
C       -0.61737367       1.28660032       0.47451914
C       -0.90903024       2.44789785       0.51089863
H        3.13426610      -0.01479715      -0.36475641
H        2.40075340      -0.10640253       1.24565012
H        2.15187098       1.32066070       0.23392158
H        1.13650581      -1.50999720      -0.40600616
H        0.84051968      -0.07465778      -1.40225263
H       -2.89073651      -0.96607453      -0.38467140
H       -1.71858118      -0.37633636      -1.47675093
H       -1.55499431      -2.03231041      -0.97969595
H       -1.51610767      -1.26677353       0.84310989
H       -1.28535589       3.44437213       0.49738985
17
Frame=12 idx=010465 GeodesicLength=1.1295684170774478 rxn_smarts="[C:1]([C:2]([C@@:3]([C:4]([H:13])([H:14])[H:15])([O:5][H:16])[C:6]#[C:7][H:17])([H:11])[H:12])([H:8])([H:9])[H:10]>>[C:1]([C:2]([C:3](=[O:5])[C:6]#[C:7][H:17])([H:11])[H:12])([H:8])([H:9])[H:10].[C:4]([H:13])([H:14])([H:15])[H:16]"
C        2.25479536       0.24240955       0.21797752
C        1.02133593      -0.42674696      -0.37641245
C       -0.23131702      -0.12786066       0.42289236
C       -1.83836920      -1.04392400      -0.61801848
O       -0.38324565      -0.79425193       1.54933165
C       -0.60474681       1.29148696       0.47996726
C       -0.89312180       2.45351062       0.51998596
H        3.14080763      -0.00814833      -0.36634672
H        2.40971597      -0.08634447       1.24597139
H        2.15453907       1.32931779       0.22010204
H        1.14749238      -1.51123709      -0.38958040
H        0.84483183      -0.08773749      -1.40042428
H       -2.90627575      -0.98773299      -0.40103517
H       -1.73897795      -0.37515286      -1.47553193
H       -1.55388420      -2.02887536      -0.99463949
H       -1.55279116      -1.28813316       0.86200988
H       -1.27078865       3.44942037       0.50375085
17
Frame=13 idx=010465 GeodesicLength=1.2235667868126372 rxn_smarts="[C:1]([C:2]([C@@:3]([C:4]([H:13])([H:14])[H:15])([O:5][H:16])[C:6]#[C:7][H:17])([H:11])[H:12])([H:8])([H:9])[H:10]>>[C:1]([C:2]([C:3](=[O:5])[C:6]#[C:7][H:17])([H:11])[H:12])([H:8])([H:9])[H:10].[C:4]([H:13])([H:14])([H:15])[H:16]"
C        2.26136055       0.25127102       0.21502469
C        1.02962767      -0.42788149      -0.37123247
C       -0.22650100      -0.12392315       0.41947971
C       -1.85000079      -1.04906774      -0.61919602
O       -0.39662723      -0.79831003       1.53768946
C       -0.59175840       1.29675444       0.48540083
C       -0.87765356       2.45927263       0.52907063
H        3.14772266      -0.00172422      -0.36774389
H        2.41867524      -0.06626353       1.24623719
H        2.15770168       1.33782958       0.20620539
H        1.15860009      -1.51214235      -0.37303853
H        0.84955777      -0.10072214      -1.39857138
H       -2.92167677      -1.01032314      -0.41719324
H       -1.76008510      -0.37378763      -1.47357645
H       -1.55269919      -2.02478996      -1.00965565
H       -1.59024395      -1.31104015       0.88127250
H       -1.25599965       3.45484787       0.50982724
17
Frame=14 idx=010465 GeodesicLength=1.3174743162274272 rxn_smarts="[C:1]([C:2]([C@@:3]([C:4]([H:13])([H:14])[H:15])([O:5][H:16])[C:6]#[C:7][H:17])([H:11])[H:12])([H:8])([H:9])[H:10]>>[C:1]([C:2]([C:3](=[O:5])[C:6]#[C:7][H:17])([H:11])[H:12])([H:8])([H:9])[H:10].[C:4]([H:13])([H:14])([H:15])[H:16]"
C        2.26826485       0.26007800       0.21210968
C        1.03826655      -0.42876719      -0.36610455
C       -0.22121425      -0.11940247       0.41582377
C       -1.86192193      -1.05424176      -0.61988296
O       -0.41119444      -0.80243064       1.52474984
C       -0.57836928       1.30239963       0.49094238
C       -0.86271396       2.46516216       0.53820993
H        3.15502739       0.00448215      -0.36894067
H        2.42767686      -0.04620503       1.24646012
H        2.16139353       1.34618527       0.19229281
H        1.16981055      -1.51270090      -0.35637409
H        0.85468698      -0.11356866      -1.39665488
H       -2.93692310      -1.03386680      -0.43304135
H       -1.78202834      -0.37207076      -1.47072633
H       -1.55148303      -2.01988557      -1.02489537
H       -1.62830989      -1.33582521       0.90083758
H       -1.24096848       3.46065776       0.51519407
17
Frame=15 idx=010465 GeodesicLength=1.4112803970780128 rxn_smarts="[C:1]([C:2]([C@@:3]([C:4]([H:13])([H:14])[H:15])([O:5][H:16])[C:6]#[C:7][H:17])([H:11])[H:12])([H:8])([H:9])[H:10]>>[C:1]([C:2]([C:3](=[O:5])[C:6]#[C:7][H:17])([H:11])[H:12])([H:8])([H:9])[H:10].[C:4]([H:13])([H:14])([H:15])[H:16]"
C        2.27553714       0.26880704       0.20927121
C        1.04724742      -0.42937806      -0.36099582
C       -0.21543326      -0.11432273       0.41201404
C       -1.87418226      -1.05937689      -0.62004614
O       -0.42694370      -0.80666030       1.51047034
C       -0.56452655       1.30839515       0.49681788
C       -0.84844945       2.47111801       0.54753055
H        3.16272834       0.01048427      -0.36994846
H        2.43679225      -0.02627379       1.24665304
H        2.16564690       1.35436542       0.17849025
H        1.18110064      -1.51288455      -0.33962256
H        0.86018888      -0.12617899      -1.39461398
H       -2.95199477      -1.05834088      -0.44843314
H       -1.80495755      -0.36974565      -1.46676968
H       -1.55029458      -2.01393306      -1.04055469
H       -1.66676426      -1.36289694       0.92062510
H       -1.22569519       3.46682196       0.51911206
17
Frame=16 idx=010465 GeodesicLength=1.5050005355358196 rxn_smarts="[C:1]([C:2]([C@@:3]([C:4]([H:13])([H:14])[H:15])([O:5][H:16])[C:6]#[C:7][H:17])([H:11])[H:12])([H:8])([H:9])[H:10]>>[C:1]([C:2]([C:3](=[O:5])[C:6]#[C:7][H:17])([H:11])[H:12])([H:8])([H:9])[H:10].[C:4]([H:13])([H:14])([H:15])[H:16]"
C        2.28321514       0.27742496       0.20656479
C        1.05656004      -0.42967446      -0.35586369
C       -0.20912672      -0.10873090       0.40819332
C       -1.88684278      -1.06436399      -0.61963553
O       -0.44382523      -0.81110133       1.49483096
C       -0.55015993       1.31468462       0.50338159
C       -0.83511848       2.47702467       0.55719704
H        3.17082649       0.01631191      -0.37079367
H        2.44612570      -0.00663099       1.24683092
H        2.17050370       1.36234578       0.16499139
H        1.19244375      -1.51265748      -0.32286237
H        0.86600677      -0.13839069      -1.39236388
H       -2.96687690      -1.08369524      -0.46319768
H       -1.82906599      -0.36645433      -1.46141506
H       -1.54920690      -2.00660799      -1.05689200
H       -1.70530870      -1.39276433       0.94053570
H       -1.21014995       3.47327978       0.52049816
