6
Frame=0 idx=005433 GeodesicLength=0.0 rxn_smarts="[N:1]([C:2](=[O:3])[H:6])([H:4])[H:5]>>[H:5][H:6].[N:1](=[C:2]=[O:3])[H:4]"
N        0.82516513       0.21307267       0.11450766
C       -0.46718757       0.20513169       0.00019437
O       -1.49942098       0.75524498       0.02103249
H        1.29002903       1.09177392       0.33269991
H        0.40919957      -1.04451085      -0.17363845
H       -0.55778520      -1.22071240      -0.29479598
6
Frame=1 idx=005433 GeodesicLength=0.06572683800667004 rxn_smarts="[N:1]([C:2](=[O:3])[H:6])([H:4])[H:5]>>[H:5][H:6].[N:1](=[C:2]=[O:3])[H:4]"
N        0.82017142       0.21650775       0.12049293
C       -0.46702094       0.21783968      -0.03708804
O       -1.50052874       0.76062830       0.05034557
H        1.28819171       1.09541997       0.32747506
H        0.41484703      -1.06512633      -0.14308592
H       -0.55566049      -1.22526936      -0.31813960
6
Frame=2 idx=005433 GeodesicLength=0.13112566756105748 rxn_smarts="[N:1]([C:2](=[O:3])[H:6])([H:4])[H:5]>>[H:5][H:6].[N:1](=[C:2]=[O:3])[H:4]"
N        0.81463688       0.22027552       0.12527668
C       -0.46799505       0.22878204      -0.06202889
O       -1.50023884       0.76560118       0.07429666
H        1.28691718       1.09891373       0.31971427
H        0.41841577      -1.08479946      -0.11240428
H       -0.55173594      -1.22877301      -0.34485445
6
Frame=3 idx=005433 GeodesicLength=0.1968550990401574 rxn_smarts="[N:1]([C:2](=[O:3])[H:6])([H:4])[H:5]>>[H:5][H:6].[N:1](=[C:2]=[O:3])[H:4]"
N        0.80915783       0.22451881       0.12643502
C       -0.46965118       0.23952265      -0.08213349
O       -1.49969572       0.77039027       0.09576029
H        1.28589742       1.10152978       0.31320314
H        0.42051395      -1.10366931      -0.08207472
H       -0.54622229      -1.23229221      -0.37119025
6
Frame=4 idx=005433 GeodesicLength=0.26256044269760487 rxn_smarts="[N:1]([C:2](=[O:3])[H:6])([H:4])[H:5]>>[H:5][H:6].[N:1](=[C:2]=[O:3])[H:4]"
N        0.80355319       0.22877120       0.12637672
C       -0.47173178       0.25043981      -0.09980220
O       -1.49890948       0.77497392       0.11547836
H        1.28501349       1.10354240       0.30741777
H        0.42165926      -1.12175564      -0.05359232
H       -0.53958468      -1.23597169      -0.39587834
6
Frame=5 idx=005433 GeodesicLength=0.32831134583060423 rxn_smarts="[N:1]([C:2](=[O:3])[H:6])([H:4])[H:5]>>[H:5][H:6].[N:1](=[C:2]=[O:3])[H:4]"
N        0.79772919       0.23297647       0.12604027
C       -0.47421325       0.26144508      -0.11555780
O       -1.49800599       0.77985365       0.13334429
H        1.28415103       1.10511109       0.30234620
H        0.42272041      -1.13931076      -0.02825419
H       -0.53238141      -1.24007554      -0.41791877
6
Frame=6 idx=005433 GeodesicLength=0.39421789956772313 rxn_smarts="[N:1]([C:2](=[O:3])[H:6])([H:4])[H:5]>>[H:5][H:6].[N:1](=[C:2]=[O:3])[H:4]"
N        0.79173317       0.23718634       0.12513016
C       -0.47700291       0.27274490      -0.13019850
O       -1.49694660       0.78478835       0.15014614
H        1.28327211       1.10630004       0.29789196
H        0.42363545      -1.15658842      -0.00461257
H       -0.52469122      -1.24443121      -0.43835718
6
Frame=7 idx=005433 GeodesicLength=0.46006863407720744 rxn_smarts="[N:1]([C:2](=[O:3])[H:6])([H:4])[H:5]>>[H:5][H:6].[N:1](=[C:2]=[O:3])[H:4]"
N        0.78540646       0.24131498       0.12448386
C       -0.48011469       0.28426286      -0.14367675
O       -1.49585594       0.79002735       0.16580797
H        1.28239822       1.10717813       0.29358348
H        0.42479583      -1.17378950       0.01699207
H       -0.51662989      -1.24899381      -0.45719062
6
Frame=8 idx=005433 GeodesicLength=0.5260018441535206 rxn_smarts="[N:1]([C:2](=[O:3])[H:6])([H:4])[H:5]>>[H:5][H:6].[N:1](=[C:2]=[O:3])[H:4]"
N        0.77881878       0.24542710       0.12375242
C       -0.48353046       0.29608942      -0.15632230
O       -1.49477814       0.79554589       0.18060793
H        1.28151801       1.10776635       0.28958562
H        0.42626059      -1.19106262       0.03706939
H       -0.50828879      -1.25376614      -0.47469305
6
Frame=9 idx=005433 GeodesicLength=0.5919630928024735 rxn_smarts="[N:1]([C:2](=[O:3])[H:6])([H:4])[H:5]>>[H:5][H:6].[N:1](=[C:2]=[O:3])[H:4]"
N        0.77194017       0.24952014       0.12297862
C       -0.48723833       0.30827360      -0.16830970
O       -1.49372627       0.80132970       0.19472528
H        1.28061834       1.10806544       0.28579057
H        0.42806147      -1.20851982       0.05594281
H       -0.49965538      -1.25866906      -0.49112758
6
Frame=10 idx=005433 GeodesicLength=0.6579590102594961 rxn_smarts="[N:1]([C:2](=[O:3])[H:6])([H:4])[H:5]>>[H:5][H:6].[N:1](=[C:2]=[O:3])[H:4]"
N        0.76475079       0.25359660       0.12217268
C       -0.49122618       0.32088567      -0.17978265
O       -1.49273009       0.80734028       0.20830409
H        1.27971402       1.10806766       0.28212492
H        0.43020771      -1.22624229       0.07388345
H       -0.49071625      -1.26364793      -0.50670249
6
Frame=11 idx=005433 GeodesicLength=0.723989796473178 rxn_smarts="[N:1]([C:2](=[O:3])[H:6])([H:4])[H:5]>>[H:5][H:6].[N:1](=[C:2]=[O:3])[H:4]"
N        0.75723972       0.25766389       0.12128921
C       -0.49549666       0.33396240      -0.19084557
O       -1.49179624       0.81359979       0.22142086
H        1.27878292       1.10776600       0.27860322
H        0.43276276      -1.24430574       0.09101698
H       -0.48149249      -1.26868634      -0.52148470
6
Frame=12 idx=005433 GeodesicLength=0.7900638962890858 rxn_smarts="[N:1]([C:2](=[O:3])[H:6])([H:4])[H:5]>>[H:5][H:6].[N:1](=[C:2]=[O:3])[H:4]"
N        0.74939585       0.26172503       0.12027558
C       -0.50004234       0.34757190      -0.20161205
O       -1.49093083       0.82007759       0.23416767
H        1.27781848       1.10714320       0.27522721
H        0.43574136      -1.26276244       0.10750752
H       -0.47198253      -1.27375528      -0.53556592
6
Frame=13 idx=005433 GeodesicLength=0.8561699983496258 rxn_smarts="[N:1]([C:2](=[O:3])[H:6])([H:4])[H:5]>>[H:5][H:6].[N:1](=[C:2]=[O:3])[H:4]"
N        0.74117088       0.26577258       0.11928556
C       -0.50487499       0.36171873      -0.21204495
O       -1.49017992       0.82685955       0.24650271
H        1.27682516       1.10619015       0.27190265
H        0.43928284      -1.28169651       0.12331013
H       -0.46222396      -1.27884451      -0.54895611
6
Frame=14 idx=005433 GeodesicLength=0.9223151496303894 rxn_smarts="[N:1]([C:2](=[O:3])[H:6])([H:4])[H:5]>>[H:5][H:6].[N:1](=[C:2]=[O:3])[H:4]"
N        0.73258954       0.26982352       0.11808573
C       -0.50998168       0.37647650      -0.22228891
O       -1.48952192       0.83392283       0.25848290
H        1.27575500       1.10488373       0.26881377
H        0.44345723      -1.30113531       0.13849596
H       -0.45229817      -1.28397126      -0.56158945
6
Frame=15 idx=005433 GeodesicLength=0.9884846361305225 rxn_smarts="[N:1]([C:2](=[O:3])[H:6])([H:4])[H:5]>>[H:5][H:6].[N:1](=[C:2]=[O:3])[H:4]"
N        0.72365074       0.27388572       0.11658380
C       -0.51536176       0.39187594      -0.23240340
O       -1.48895572       0.84132931       0.27007002
H        1.27456147       1.10320771       0.26609682
H        0.44844797      -1.32112584       0.15298191
H       -0.44234270      -1.28917284      -0.57332916
6
Frame=16 idx=005433 GeodesicLength=1.0546654100323143 rxn_smarts="[N:1]([C:2](=[O:3])[H:6])([H:4])[H:5]>>[H:5][H:6].[N:1](=[C:2]=[O:3])[H:4]"
N        0.71433403       0.27795461       0.11481495
C       -0.52100404       0.40796430      -0.24240373
O       -1.48851496       0.84911435       0.28121944
H        1.27323540       1.10114258       0.26376687
H        0.45440837      -1.34172255       0.16672036
H       -0.43245880      -1.29445329      -0.58411789
