11
Frame=0 idx=001110 GeodesicLength=0.0 rxn_smarts="[C:1](/[C:2](=[N:3]/[H:10])[O:4][C:5](=[O:6])[H:11])([H:7])([H:8])[H:9]>>[C:1]([C:2]#[N:3])([H:7])([H:8])[H:9].[O:4]=[C:5]([O:6][H:10])[H:11]"
C       -1.44696032      -0.51854502       0.95126737
C       -0.69208548       0.37122622       0.06896697
N       -0.61530794       1.35119405      -0.58559712
O        0.93036208      -0.63345212       0.01182728
C        1.80482548      -0.09597202      -0.71789643
O        1.68033374       0.97947393      -1.35029072
H       -0.93031466      -0.61605332       1.90404848
H       -1.52714297      -1.50373325       0.49568499
H       -2.43746094      -0.09052382       1.10104681
H        0.46612016       1.38292836      -1.07603782
H        2.76763085      -0.62654296      -0.80301982
11
Frame=1 idx=001110 GeodesicLength=0.05696367087493941 rxn_smarts="[C:1](/[C:2](=[N:3]/[H:10])[O:4][C:5](=[O:6])[H:11])([H:7])([H:8])[H:9]>>[C:1]([C:2]#[N:3])([H:7])([H:8])[H:9].[O:4]=[C:5]([O:6][H:10])[H:11]"
C       -1.45111250      -0.52027971       0.95078497
C       -0.67919397       0.39095095       0.10517025
N       -0.61350025       1.37067016      -0.55323176
O        0.95118173      -0.60673872       0.04459854
C        1.80630012      -0.10837352      -0.73542692
O        1.66831013       0.94745631      -1.39787650
H       -0.96270752      -0.62472472       1.91776803
H       -1.50426583      -1.49894488       0.47717955
H       -2.45124566      -0.10751550       1.07659202
H        0.46143661       1.38757319      -1.08183514
H        2.77479714      -0.63007355      -0.80372303
11
Frame=2 idx=001110 GeodesicLength=0.11361938345939729 rxn_smarts="[C:1](/[C:2](=[N:3]/[H:10])[O:4][C:5](=[O:6])[H:11])([H:7])([H:8])[H:9]>>[C:1]([C:2]#[N:3])([H:7])([H:8])[H:9].[O:4]=[C:5]([O:6][H:10])[H:11]"
C       -1.45406552      -0.52160557       0.94946096
C       -0.66665182       0.41075124       0.14112967
N       -0.61156706       1.39009271      -0.52113908
O        0.97215703      -0.57935319       0.07642170
C        1.80670103      -0.12127145      -0.75050057
O        1.65325030       0.91306085      -1.44324635
H       -0.99424776      -0.63338212       1.92969099
H       -1.47973727      -1.49318861       0.45894108
H       -2.46293450      -0.12398323       1.05084341
H        0.45628977       1.39210427      -1.08660871
H        2.78080579      -0.63322491      -0.80499310
11
Frame=3 idx=001110 GeodesicLength=0.1702251878141003 rxn_smarts="[C:1](/[C:2](=[N:3]/[H:10])[O:4][C:5](=[O:6])[H:11])([H:7])([H:8])[H:9]>>[C:1]([C:2]#[N:3])([H:7])([H:8])[H:9].[O:4]=[C:5]([O:6][H:10])[H:11]"
C       -1.45585864      -0.52254069       0.94735265
C       -0.65452536       0.43051103       0.17670816
N       -0.60948745       1.40959890      -0.48909923
O        0.99333700      -0.55124607       0.10738240
C        1.80609892      -0.13457620      -0.76330246
O        1.63586040       0.87722585      -1.48535010
H       -1.02493873      -0.64186985       1.93987898
H       -1.45355897      -1.48654697       0.44112578
H       -2.47259421      -0.13999913       1.02379837
H        0.45019240       1.39601499      -1.09125935
H        2.78547464      -0.63657186      -0.80723520
11
Frame=4 idx=001110 GeodesicLength=0.22668981245102482 rxn_smarts="[C:1](/[C:2](=[N:3]/[H:10])[O:4][C:5](=[O:6])[H:11])([H:7])([H:8])[H:9]>>[C:1]([C:2]#[N:3])([H:7])([H:8])[H:9].[O:4]=[C:5]([O:6][H:10])[H:11]"
C       -1.45671222      -0.52303131       0.94499873
C       -0.64352425       0.44896076       0.21010868
N       -0.60839768       1.42775132      -0.45919535
O        1.01334992      -0.52450973       0.13461782
C        1.80519289      -0.14761960      -0.77389441
O        1.61868685       0.84293714      -1.52147319
H       -1.05366255      -0.64928756       1.94845139
H       -1.42728123      -1.47956502       0.42530867
H       -2.48013547      -0.15485343       0.99707001
H        0.44340908       1.39970891      -1.09554967
H        2.78907465      -0.64049149      -0.81044270
11
Frame=5 idx=001110 GeodesicLength=0.2832411011412027 rxn_smarts="[C:1](/[C:2](=[N:3]/[H:10])[O:4][C:5](=[O:6])[H:11])([H:7])([H:8])[H:9]>>[C:1]([C:2]#[N:3])([H:7])([H:8])[H:9].[O:4]=[C:5]([O:6][H:10])[H:11]"
C       -1.45669758      -0.52323292       0.94212568
C       -0.63311757       0.46691304       0.24259537
N       -0.60744991       1.44574566      -0.42959695
O        1.03320615      -0.49764505       0.16036742
C        1.80369748      -0.16074335      -0.78279658
O        1.60025459       0.80818017      -1.55450069
H       -1.08150206      -0.65628895       1.95558247
H       -1.40005413      -1.47208367       0.41042245
H       -2.48592416      -0.16920328       0.96957254
H        0.43589373       1.40319612      -1.09949219
H        2.79169347      -0.64483777      -0.81427952
11
Frame=6 idx=001110 GeodesicLength=0.33991804107287826 rxn_smarts="[C:1](/[C:2](=[N:3]/[H:10])[O:4][C:5](=[O:6])[H:11])([H:7])([H:8])[H:9]>>[C:1]([C:2]#[N:3])([H:7])([H:8])[H:9].[O:4]=[C:5]([O:6][H:10])[H:11]"
C       -1.45594313      -0.52312152       0.93883922
C       -0.62317351       0.48432115       0.27431092
N       -0.60645757       1.46363815      -0.40003228
O        1.05268116      -0.47116819       0.18415093
C        1.80167982      -0.17407904      -0.79041741
O        1.58066163       0.77286563      -1.58481724
H       -1.10839723      -0.66325266       1.96128796
H       -1.37249049      -1.46397936       0.39626147
H       -2.48998015      -0.18268189       0.94175238
H        0.42744156       1.40617008      -1.10344611
H        2.79397790      -0.64871235      -0.81788983
11
Frame=7 idx=001110 GeodesicLength=0.39687295378437987 rxn_smarts="[C:1](/[C:2](=[N:3]/[H:10])[O:4][C:5](=[O:6])[H:11])([H:7])([H:8])[H:9]>>[C:1]([C:2]#[N:3])([H:7])([H:8])[H:9].[O:4]=[C:5]([O:6][H:10])[H:11]"
C       -1.45438833      -0.52275754       0.93499869
C       -0.61354926       0.50152402       0.30570455
N       -0.60528526       1.48172206      -0.37014455
O        1.07225925      -0.44420851       0.20698306
C        1.79910056      -0.18753875      -0.79663625
O        1.55934298       0.73637550      -1.61301430
H       -1.13484957      -0.67013595       1.96565705
H       -1.34384820      -1.45527640       0.38264680
H       -2.49240314      -0.19577732       0.91282051
H        0.41812581       1.40886318      -1.10712130
H        2.79549515      -0.65279029      -0.82189425
11
Frame=8 idx=001110 GeodesicLength=0.454199098835132 rxn_smarts="[C:1](/[C:2](=[N:3]/[H:10])[O:4][C:5](=[O:6])[H:11])([H:7])([H:8])[H:9]>>[C:1]([C:2]#[N:3])([H:7])([H:8])[H:9].[O:4]=[C:5]([O:6][H:10])[H:11]"
C       -1.45191758      -0.52216406       0.93052104
C       -0.60417813       0.51875180       0.33703109
N       -0.60393820       1.50010742      -0.33986762
O        1.09220636      -0.41616333       0.22932782
C        1.79566621      -0.20136105      -0.80161293
O        1.53623680       0.69865434      -1.63900381
H       -1.16100353      -0.67701353       1.96865415
H       -1.31372067      -1.44593885       0.36946505
H       -2.49309530      -0.20869526       0.88243878
H        0.40784114       1.41128160      -1.11051107
H        2.79590289      -0.65745908      -0.82644251
11
Frame=9 idx=001110 GeodesicLength=0.5117162017487067 rxn_smarts="[C:1](/[C:2](=[N:3]/[H:10])[O:4][C:5](=[O:6])[H:11])([H:7])([H:8])[H:9]>>[C:1]([C:2]#[N:3])([H:7])([H:8])[H:9].[O:4]=[C:5]([O:6][H:10])[H:11]"
C       -1.44894346      -0.52130421       0.92583797
C       -0.59526940       0.53514630       0.36740566
N       -0.60275985       1.51803820      -0.30994219
O        1.11159632      -0.38891338       0.24937740
C        1.79209798      -0.21509946      -0.80561005
O        1.51263377       0.66097507      -1.66232046
H       -1.18636737      -0.68360972       1.97048059
H       -1.28370313      -1.43624881       0.35737754
H       -2.49227589      -0.22069134       0.85195407
H        0.39682127       1.41349400      -1.11364848
H        2.79616977      -0.66178665      -0.83091205
11
Frame=10 idx=001110 GeodesicLength=0.5695906168367738 rxn_smarts="[C:1](/[C:2](=[N:3]/[H:10])[O:4][C:5](=[O:6])[H:11])([H:7])([H:8])[H:9]>>[C:1]([C:2]#[N:3])([H:7])([H:8])[H:9].[O:4]=[C:5]([O:6][H:10])[H:11]"
C       -1.44536432      -0.52022804       0.92082269
C       -0.58669842       0.55105778       0.39725874
N       -0.60166299       1.53579692      -0.28005581
O        1.13084217      -0.36163454       0.26794964
C        1.78819379      -0.22886070      -0.80864667
O        1.48817319       0.62293363      -1.68330981
H       -1.21133210      -0.68997583       1.97116795
H       -1.25313245      -1.42620002       0.34620690
H       -2.48992854      -0.23215464       0.82073203
H        0.38502717       1.41559668      -1.11644675
H        2.79588250      -0.66633123      -0.83567890
11
Frame=11 idx=001110 GeodesicLength=0.6280067373412469 rxn_smarts="[C:1](/[C:2](=[N:3]/[H:10])[O:4][C:5](=[O:6])[H:11])([H:7])([H:8])[H:9]>>[C:1]([C:2]#[N:3])([H:7])([H:8])[H:9].[O:4]=[C:5]([O:6][H:10])[H:11]"
C       -1.44097676      -0.51896667       0.91531106
C       -0.57837571       0.56685660       0.42699664
N       -0.60063120       1.55363455      -0.24997130
O        1.15034857      -0.33341500       0.28574386
C        1.78363012      -0.24278165      -0.81065455
O        1.46244448       0.58416152      -1.70210482
H       -1.23613746      -0.69620617       1.97061411
H       -1.22126432      -1.41568641       0.33575843
H       -2.48587174      -0.24348329       0.78813862
H        0.37236750       1.41768305      -1.11881718
H        2.79446652      -0.67179654      -0.84101488
11
Frame=12 idx=001110 GeodesicLength=0.6870724277257212 rxn_smarts="[C:1](/[C:2](=[N:3]/[H:10])[O:4][C:5](=[O:6])[H:11])([H:7])([H:8])[H:9]>>[C:1]([C:2]#[N:3])([H:7])([H:8])[H:9].[O:4]=[C:5]([O:6][H:10])[H:11]"
C       -1.43575560      -0.51751989       0.90930862
C       -0.57026271       0.58255131       0.45669665
N       -0.59966276       1.57157395      -0.21960845
O        1.17009877      -0.30424916       0.30264662
C        1.77842390      -0.25680477      -0.81164810
O        1.43546448       0.54469292      -1.71871832
H       -1.26085479      -0.70233657       1.96879935
H       -1.18807618      -1.40471723       0.32608658
H       -2.47999235      -0.25465257       0.75408526
H        0.35873130       1.41972972      -1.12080198
H        2.79188593      -0.67826771      -0.84684624
11
Frame=13 idx=001110 GeodesicLength=0.7465874502138184 rxn_smarts="[C:1](/[C:2](=[N:3]/[H:10])[O:4][C:5](=[O:6])[H:11])([H:7])([H:8])[H:9]>>[C:1]([C:2]#[N:3])([H:7])([H:8])[H:9].[O:4]=[C:5]([O:6][H:10])[H:11]"
C       -1.42999663      -0.51587940       0.90305019
C       -0.56242481       0.59769242       0.48592868
N       -0.59886963       1.58923406      -0.18926871
O        1.18964471      -0.27509977       0.31786478
C        1.77299163      -0.27074041      -0.81186413
O        1.40789022       0.50503623      -1.73315918
H       -1.28525868      -0.70829521       1.96583292
H       -1.15455878      -1.39344483       0.31741467
H       -2.47250635      -0.26521529       0.71942407
H        0.34428521       1.42173555      -1.12245418
H        2.78880311      -0.68502334      -0.85276909
11
Frame=14 idx=001110 GeodesicLength=0.8064677245982683 rxn_smarts="[C:1](/[C:2](=[N:3]/[H:10])[O:4][C:5](=[O:6])[H:11])([H:7])([H:8])[H:9]>>[C:1]([C:2]#[N:3])([H:7])([H:8])[H:9].[O:4]=[C:5]([O:6][H:10])[H:11]"
C       -1.42382626      -0.51411648       0.89669305
C       -0.55495339       0.61208137       0.51441987
N       -0.59850149       1.60642777      -0.15920184
O        1.20884033      -0.24614310       0.33117058
C        1.76744736      -0.28451756      -0.81152955
O        1.38044712       0.46591699      -1.74541256
H       -1.30941300      -0.71382237       1.96192755
H       -1.12093185      -1.38217149       0.31013815
H       -2.46353620      -0.27525485       0.68436099
H        0.32924588       1.42398118      -1.12369965
H        2.78518151      -0.69238145      -0.85886658
11
Frame=15 idx=001110 GeodesicLength=0.8666021479880359 rxn_smarts="[C:1](/[C:2](=[N:3]/[H:10])[O:4][C:5](=[O:6])[H:11])([H:7])([H:8])[H:9]>>[C:1]([C:2]#[N:3])([H:7])([H:8])[H:9].[O:4]=[C:5]([O:6][H:10])[H:11]"
C       -1.41740835      -0.51222244       0.89030998
C       -0.54778148       0.62561004       0.54215244
N       -0.59846840       1.62307718      -0.12936003
O        1.22757333      -0.21770376       0.34244890
C        1.76196763      -0.29813520      -0.81077919
O        1.35318192       0.42717452      -1.75578405
H       -1.33330466      -0.71902500       1.95711205
H       -1.08767225      -1.37091452       0.30414731
H       -2.45323978      -0.28452729       0.64926604
H        0.31368602       1.42638454      -1.12460879
H        2.78146602      -0.69971807      -0.86490466
11
Frame=16 idx=001110 GeodesicLength=0.9269216083619914 rxn_smarts="[C:1](/[C:2](=[N:3]/[H:10])[O:4][C:5](=[O:6])[H:11])([H:7])([H:8])[H:9]>>[C:1]([C:2]#[N:3])([H:7])([H:8])[H:9].[O:4]=[C:5]([O:6][H:10])[H:11]"
C       -1.41084319      -0.51022690       0.88397352
C       -0.54088269       0.63822033       0.56910675
N       -0.59879089       1.63914151      -0.09972110
O        1.24580070      -0.18987600       0.35169229
C        1.75665327      -0.31155664      -0.80974474
O        1.32630032       0.38893438      -1.76446726
H       -1.35707274      -0.72380043       1.95150010
H       -1.05491043      -1.35981839       0.29956788
H       -2.44172218      -0.29306105       0.61419238
H        0.29770505       1.42903158      -1.12517252
H        2.77776277      -0.70698839      -0.87092730
