15
Frame=0 idx=009605 GeodesicLength=0.0 rxn_smarts="[O:1]([C@@:2]1([H:9])[C:3]([H:10])([H:11])[C@@:4]2([O:5][H:12])[C:6]([H:13])([H:14])[C@@:7]12[H:15])[H:8]>>[H:8][H:15].[O:1]=[C:2]([C:7]12[C:3]([H:10])([H:11])[C:4]1([O:5][H:12])[C:6]2([H:13])[H:14])[H:9]"
O        2.29139728       0.06777989      -0.11459630
C        1.22916310       0.43517428       0.51721000
C       -0.09367412       1.34073047      -0.11283369
C       -1.09069567       0.24749270       0.02977952
O       -2.32854485       0.47383173       0.54178782
C       -0.57998399      -0.83662046      -0.86793546
C        0.15371313      -0.54720140       0.39901252
H        1.99354598      -1.31446406       0.21771313
H        1.34114698       0.86028693       1.52392865
H       -0.24699435       2.18737686       0.54788566
H        0.16909167       1.59642238      -1.13570350
H       -2.83768524      -0.33957951       0.52870822
H       -1.11843005      -1.77733846      -0.78814911
H       -0.17089931      -0.62477816      -1.85373773
H        1.28884938      -1.76911325       0.56693029
15
Frame=1 idx=009605 GeodesicLength=0.08317721786246775 rxn_smarts="[O:1]([C@@:2]1([H:9])[C:3]([H:10])([H:11])[C@@:4]2([O:5][H:12])[C:6]([H:13])([H:14])[C@@:7]12[H:15])[H:8]>>[H:8][H:15].[O:1]=[C:2]([C:7]12[C:3]([H:10])([H:11])[C:4]1([O:5][H:12])[C:6]2([H:13])[H:14])[H:9]"
O        2.30406714       0.04996176      -0.09836275
C        1.23725781       0.43970624       0.51523599
C       -0.09850936       1.34670425      -0.12096817
C       -1.09472152       0.25239618       0.01984934
O       -2.32028922       0.45867393       0.56920922
C       -0.58442480      -0.82998320      -0.87846335
C        0.15456342      -0.53115345       0.38245315
H        2.00304689      -1.33147098       0.23737415
H        1.34667771       0.86919553       1.52045188
H       -0.25344544       2.19077296       0.54298221
H        0.15858283       1.61371730      -1.14266809
H       -2.83228088      -0.35235842       0.53353846
H       -1.11100283      -1.77664560      -0.79277478
H       -0.17702729      -0.61853334      -1.86485945
H        1.26750554      -1.78098316       0.57700220
15
Frame=2 idx=009605 GeodesicLength=0.16621321655349322 rxn_smarts="[O:1]([C@@:2]1([H:9])[C:3]([H:10])([H:11])[C@@:4]2([O:5][H:12])[C:6]([H:13])([H:14])[C@@:7]12[H:15])[H:8]>>[H:8][H:15].[O:1]=[C:2]([C:7]12[C:3]([H:10])([H:11])[C:4]1([O:5][H:12])[C:6]2([H:13])[H:14])[H:9]"
O        2.31652921       0.03156972      -0.08151272
C        1.24554408       0.44431597       0.51279595
C       -0.10355751       1.35281623      -0.12924506
C       -1.09867547       0.25714414       0.01012897
O       -2.31092312       0.44274509       0.59619971
C       -0.58885225      -0.82317636      -0.88928929
C        0.15586461      -0.51497814       0.36523284
H        2.01222127      -1.34887286       0.25821295
H        1.35237392       0.87819071       1.51649838
H       -0.26000760       2.19407663       0.53822836
H        0.14719168       1.63147463      -1.14969341
H       -2.82631134      -0.36501994       0.53914484
H       -1.10313504      -1.77581018      -0.79781081
H       -0.18354875      -0.61185963      -1.87639240
H        1.24528630      -1.79261599       0.58750169
15
Frame=3 idx=009605 GeodesicLength=0.24925149964323678 rxn_smarts="[O:1]([C@@:2]1([H:9])[C:3]([H:10])([H:11])[C@@:4]2([O:5][H:12])[C:6]([H:13])([H:14])[C@@:7]12[H:15])[H:8]>>[H:8][H:15].[O:1]=[C:2]([C:7]12[C:3]([H:10])([H:11])[C:4]1([O:5][H:12])[C:6]2([H:13])[H:14])[H:9]"
O        2.32874636       0.01258626      -0.06403238
C        1.25405425       0.44899770       0.50984968
C       -0.10881749       1.35907158      -0.13765592
C       -1.10252983       0.26172306       0.00065260
O       -2.30042499       0.42607341       0.62265114
C       -0.59326062      -0.81618615      -0.90041782
C        0.15764943      -0.49866998       0.34732392
H        2.02102243      -1.36667081       0.28023973
H        1.35827369       0.88727196       1.51202550
H       -0.26666060       2.19727677       0.53365063
H        0.13487032       1.64971189      -1.15675623
H       -2.81966130      -0.37769137       0.54557441
H       -1.09480380      -1.77481359      -0.80328575
H       -0.19049642      -0.60472363      -1.88834987
H        1.22203857      -1.80395708       0.59853036
15
Frame=4 idx=009605 GeodesicLength=0.33235662386600573 rxn_smarts="[O:1]([C@@:2]1([H:9])[C:3]([H:10])([H:11])[C@@:4]2([O:5][H:12])[C:6]([H:13])([H:14])[C@@:7]12[H:15])[H:8]>>[H:8][H:15].[O:1]=[C:2]([C:7]12[C:3]([H:10])([H:11])[C:4]1([O:5][H:12])[C:6]2([H:13])[H:14])[H:9]"
O        2.34067324      -0.00701140      -0.04589897
C        1.26282018       0.45374168       0.50635647
C       -0.11428672       1.36547411      -0.14619358
C       -1.10625551       0.26611818      -0.00855264
O       -2.28876678       0.40869085       0.64847938
C       -0.59764377      -0.80900186      -0.91185681
C        0.15994553      -0.48222550       0.32869832
H        2.02938828      -1.38486847       0.30347147
H        1.36441496       0.89643851       1.50698934
H       -0.27338140       2.20035997       0.52927300
H        0.12156994       1.66844358      -1.16383137
H       -2.81218255      -0.39051175       0.55286675
H       -1.08598605      -1.77364092      -0.80923667
H       -0.19790217      -0.59709419      -1.90074726
H        1.19759282      -1.81491280       0.61018257
15
Frame=5 idx=009605 GeodesicLength=0.41561010997295045 rxn_smarts="[O:1]([C@@:2]1([H:9])[C:3]([H:10])([H:11])[C@@:4]2([O:5][H:12])[C:6]([H:13])([H:14])[C@@:7]12[H:15])[H:8]>>[H:8][H:15].[O:1]=[C:2]([C:7]12[C:3]([H:10])([H:11])[C:4]1([O:5][H:12])[C:6]2([H:13])[H:14])[H:9]"
O        2.35226358      -0.02725006      -0.02708012
C        1.27187737       0.45853692       0.50227124
C       -0.11995763       1.37202826      -0.15485769
C       -1.10980639       0.27030746      -0.01747812
O       -2.27592235       0.39062120       0.67365620
C       -0.60198420      -0.80161385      -0.92362927
C        0.16278447      -0.46563462       0.30931482
H        2.03725795      -1.40347989       0.32792722
H        1.37082907       0.90568894       1.50134346
H       -0.28014300       2.20331141       0.52511269
H        0.10724813       1.68768558      -1.17089644
H       -2.80375200      -0.40363282       0.56107881
H       -1.07664781      -1.77227878      -0.81571961
H       -0.20578920      -0.58893664      -1.91361359
H        1.17174201      -1.82535312       0.62257040
15
Frame=6 idx=009605 GeodesicLength=0.49895971583750126 rxn_smarts="[O:1]([C@@:2]1([H:9])[C:3]([H:10])([H:11])[C@@:4]2([O:5][H:12])[C:6]([H:13])([H:14])[C@@:7]12[H:15])[H:8]>>[H:8][H:15].[O:1]=[C:2]([C:7]12[C:3]([H:10])([H:11])[C:4]1([O:5][H:12])[C:6]2([H:13])[H:14])[H:9]"
O        2.36345098      -0.04814309      -0.00755131
C        1.28126204       0.46336226       0.49755474
C       -0.12582458       1.37872925      -0.16363787
C       -1.11315053       0.27427106      -0.02610189
O       -2.26185692       0.37189295       0.69814469
C       -0.60627851      -0.79402138      -0.93573675
C        0.16618396      -0.44889881       0.28915155
H        2.04455483      -1.42249459       0.35363384
H        1.37755890       0.91502288       1.49503920
H       -0.28691362       2.20611156       0.52119533
H        0.09185637       1.70743929      -1.17791590
H       -2.79421756      -0.41717614       0.57018768
H       -1.06677420      -1.77071412      -0.82276522
H       -0.21419201      -0.58023266      -1.92695431
H        1.14434085      -1.83514848       0.63575621
15
Frame=7 idx=009605 GeodesicLength=0.5824804006244453 rxn_smarts="[O:1]([C@@:2]1([H:9])[C:3]([H:10])([H:11])[C@@:4]2([O:5][H:12])[C:6]([H:13])([H:14])[C@@:7]12[H:15])[H:8]>>[H:8][H:15].[O:1]=[C:2]([C:7]12[C:3]([H:10])([H:11])[C:4]1([O:5][H:12])[C:6]2([H:13])[H:14])[H:9]"
O        2.37416645      -0.06968662       0.01269440
C        1.29100835       0.46819171       0.49217740
C       -0.13187723       1.38557088      -0.17252331
C       -1.11624875       0.27798859      -0.03441162
O       -2.24653755       0.35253084       0.72194233
C       -0.61051466      -0.78622638      -0.94818167
C        0.17015882      -0.43201403       0.26818992
H        2.05124575      -1.44190900       0.38057129
H        1.38464139       0.92443686       1.48803628
H       -0.29365707       2.20874037       0.51753936
H        0.07535766       1.72770051      -1.18485042
H       -2.78349403      -0.43125290       0.58016177
H       -1.05633828      -1.76894146      -0.83040993
H       -0.22313038      -0.57096901      -1.94077198
H        1.11521952      -1.84416034       0.64983618
15
Frame=8 idx=009605 GeodesicLength=0.6660688466367504 rxn_smarts="[O:1]([C@@:2]1([H:9])[C:3]([H:10])([H:11])[C@@:4]2([O:5][H:12])[C:6]([H:13])([H:14])[C@@:7]12[H:15])[H:8]>>[H:8][H:15].[O:1]=[C:2]([C:7]12[C:3]([H:10])([H:11])[C:4]1([O:5][H:12])[C:6]2([H:13])[H:14])[H:9]"
O        2.38432423      -0.09187727       0.03368367
C        1.30114688       0.47298823       0.48611356
C       -0.13810079       1.39254181      -0.18150365
C       -1.11905881       0.28143426      -0.04240571
O       -2.22995101       0.33256617       0.74503246
C       -0.61468311      -0.77823787      -0.96096721
C        0.17471335      -0.41498458       0.24641440
H        2.05725824      -1.46170916       0.40873983
H        1.39211061       0.93392474       1.48029534
H       -0.30033341       2.21117102       0.51416313
H        0.05772073       1.74845623      -1.19165203
H       -2.77144373      -0.44596555       0.59099049
H       -1.04532621      -1.76695701      -0.83869045
H       -0.23262154      -0.56114205      -1.95506570
H        1.08424458      -1.85220898       0.66485187
15
Frame=9 idx=009605 GeodesicLength=0.749194445589799 rxn_smarts="[O:1]([C@@:2]1([H:9])[C:3]([H:10])([H:11])[C@@:4]2([O:5][H:12])[C:6]([H:13])([H:14])[C@@:7]12[H:15])[H:8]>>[H:8][H:15].[O:1]=[C:2]([C:7]12[C:3]([H:10])([H:11])[C:4]1([O:5][H:12])[C:6]2([H:13])[H:14])[H:9]"
O        2.39387674      -0.11463064       0.05542919
C        1.31168689       0.47770046       0.47940166
C       -0.14447143       1.39961471      -0.19057745
C       -1.12154030       0.28459996      -0.05015893
O       -2.21229626       0.31214578       0.76744148
C       -0.61875596      -0.77010296      -0.97409511
C        0.17980100      -0.39781768       0.22383921
H        2.06247988      -1.48178540       0.43819557
H        1.39993625       0.94346677       1.47183707
H       -0.30691151       2.21338118       0.51104613
H        0.03895144       1.76963625      -1.19826316
H       -2.75818760      -0.46119324       0.60274922
H       -1.03374201      -1.76476908      -0.84761874
H       -0.24261132      -0.55082315      -1.96980274
H        1.05178417      -1.85942297       0.68057660
15
Frame=10 idx=009605 GeodesicLength=0.8323480701380992 rxn_smarts="[O:1]([C@@:2]1([H:9])[C:3]([H:10])([H:11])[C@@:4]2([O:5][H:12])[C:6]([H:13])([H:14])[C@@:7]12[H:15])[H:8]>>[H:8][H:15].[O:1]=[C:2]([C:7]12[C:3]([H:10])([H:11])[C:4]1([O:5][H:12])[C:6]2([H:13])[H:14])[H:9]"
O        2.40268284      -0.13798138       0.07792055
C        1.32266340       0.48229871       0.47198782
C       -0.15098513       1.40678564      -0.19971669
C       -1.12365511       0.28745035      -0.05757040
O       -2.19332422       0.29118072       0.78912639
C       -0.62273443      -0.76180025      -0.98753018
C        0.18546176      -0.38051112       0.20047060
H        2.06694121      -1.50220247       0.46880975
H        1.40822733       0.95308316       1.46257731
H       -0.31334289       2.21534934       0.50823546
H        0.01899166       1.79125289      -1.20463218
H       -2.74344139      -0.47720758       0.61523165
H       -1.02154384      -1.76236972      -0.85721267
H       -0.25316655      -0.53996230      -1.98497013
H        1.01722536      -1.86536599       0.69727270
15
Frame=11 idx=009605 GeodesicLength=0.9155634815451427 rxn_smarts="[O:1]([C@@:2]1([H:9])[C:3]([H:10])([H:11])[C@@:4]2([O:5][H:12])[C:6]([H:13])([H:14])[C@@:7]12[H:15])[H:8]>>[H:8][H:15].[O:1]=[C:2]([C:7]12[C:3]([H:10])([H:11])[C:4]1([O:5][H:12])[C:6]2([H:13])[H:14])[H:9]"
O        2.41063802      -0.16187919       0.10113180
C        1.33407847       0.48673496       0.46389949
C       -0.15762641       1.41403463      -0.20890632
C       -1.12536649       0.28996826      -0.06463981
O       -2.17303317       0.26971930       0.81007350
C       -0.62659303      -0.75335298      -1.00124215
C        0.19167537      -0.36306834       0.17635141
H        2.07065154      -1.52294453       0.50049063
H        1.41701003       0.96277526       1.45251349
H       -0.31959451       2.21705445       0.50573384
H       -0.00216477       1.81325813      -1.21070230
H       -2.72714485      -0.49405471       0.62838056
H       -1.00870748      -1.75976607      -0.86747157
H       -0.26426215      -0.52859650      -2.00052508
H        0.98043944      -1.86988267       0.71491250
15
Frame=12 idx=009605 GeodesicLength=0.9987926021951731 rxn_smarts="[O:1]([C@@:2]1([H:9])[C:3]([H:10])([H:11])[C@@:4]2([O:5][H:12])[C:6]([H:13])([H:14])[C@@:7]12[H:15])[H:8]>>[H:8][H:15].[O:1]=[C:2]([C:7]12[C:3]([H:10])([H:11])[C:4]1([O:5][H:12])[C:6]2([H:13])[H:14])[H:9]"
O        2.41762663      -0.18625220       0.12501698
C        1.34592181       0.49094886       0.45518824
C       -0.16437722       1.42133573      -0.21812491
C       -1.12664988       0.29213916      -0.07136509
O       -2.15146630       0.24783958       0.83024621
C       -0.63031569      -0.74479691      -1.01517895
C        0.19839725      -0.34550261       0.15155501
H        2.07365391      -1.54398319       0.53311400
H        1.42630921       0.97253519       1.44166124
H       -0.32562966       2.21847844       0.50354180
H       -0.02450783       1.83558690      -1.21640687
H       -2.70927074      -0.51173301       0.64209699
H       -0.99523213      -1.75697222      -0.87836475
H       -0.27586225      -0.51678774      -2.01639644
H        0.94140289      -1.87283599       0.73341654
15
Frame=13 idx=009605 GeodesicLength=1.0820087447145161 rxn_smarts="[O:1]([C@@:2]1([H:9])[C:3]([H:10])([H:11])[C@@:4]2([O:5][H:12])[C:6]([H:13])([H:14])[C@@:7]12[H:15])[H:8]>>[H:8][H:15].[O:1]=[C:2]([C:7]12[C:3]([H:10])([H:11])[C:4]1([O:5][H:12])[C:6]2([H:13])[H:14])[H:9]"
O        2.42354343      -0.21100600       0.14951518
C        1.35816428       0.49487805       0.44593554
C       -0.17121650       1.42866370      -0.22735610
C       -1.12748843       0.29396204      -0.07775977
O       -2.12870821       0.22565722       0.84959985
C       -0.63388081      -0.73617207      -1.02927658
C        0.20556617      -0.32782104       0.12618250
H        2.07604817      -1.56530291       0.56651774
H        1.43613235       0.98235559       1.43006496
H       -0.33141533       2.21961657       0.50164156
H       -0.04800738       1.85816084      -1.22168460
H       -2.68986702      -0.53022341       0.65630133
H       -0.98112678      -1.75400065      -0.88984042
H       -0.28790381      -0.50461887      -2.03249657
H        0.90015988      -1.87414906       0.75265538
15
Frame=14 idx=009605 GeodesicLength=1.1652496637810352 rxn_smarts="[O:1]([C@@:2]1([H:9])[C:3]([H:10])([H:11])[C@@:4]2([O:5][H:12])[C:6]([H:13])([H:14])[C@@:7]12[H:15])[H:8]>>[H:8][H:15].[O:1]=[C:2]([C:7]12[C:3]([H:10])([H:11])[C:4]1([O:5][H:12])[C:6]2([H:13])[H:14])[H:9]"
O        2.42827924      -0.23602080       0.17452932
C        1.37076535       0.49845529       0.43623927
C       -0.17812914       1.43599140      -0.23657547
C       -1.12788400       0.29544033      -0.08383070
O       -2.10487567       0.20329667       0.86807184
C       -0.63727583      -0.72752544      -1.04345645
C        0.21310887      -0.31004413       0.10035498
H        2.07800474      -1.58688184       0.60047992
H        1.44649245       0.99221315       1.41778311
H       -0.33692176       2.22046208       0.50001878
H       -0.07262195       1.88089320      -1.22646782
H       -2.66896278      -0.54946624       0.67086120
H       -0.96641093      -1.75086960      -0.90182789
H       -0.30031715      -0.49218512      -2.04872001
H        0.85674856      -1.87375896       0.77253990
15
Frame=15 idx=009605 GeodesicLength=1.2484878270330686 rxn_smarts="[O:1]([C@@:2]1([H:9])[C:3]([H:10])([H:11])[C@@:4]2([O:5][H:12])[C:6]([H:13])([H:14])[C@@:7]12[H:15])[H:8]>>[H:8][H:15].[O:1]=[C:2]([C:7]12[C:3]([H:10])([H:11])[C:4]1([O:5][H:12])[C:6]2([H:13])[H:14])[H:9]"
O        2.43174241      -0.26117032       0.19996360
C        1.38367027       0.50161830       0.42621222
C       -0.18510023       1.44329633      -0.24576962
C       -1.12784850       0.29659161      -0.08959601
O       -2.08011684       0.18090792       0.88561009
C       -0.64048878      -0.71890201      -1.05763359
C        0.22093880      -0.29218368       0.07421138
H        2.07972101      -1.60870435       0.63479965
H        1.45738311       1.00208448       1.40489346
H       -0.34212600       2.22102715       0.49863940
H       -0.09829602       1.90369085      -1.23070363
H       -2.64665123      -0.56937830       0.68566445
H       -0.95111743      -1.74759370      -0.91423850
H       -0.31301623      -0.47959434      -2.06495552
H        0.81130568      -1.87168995       0.79290260
15
Frame=16 idx=009605 GeodesicLength=1.3317244715240528 rxn_smarts="[O:1]([C@@:2]1([H:9])[C:3]([H:10])([H:11])[C@@:4]2([O:5][H:12])[C:6]([H:13])([H:14])[C@@:7]12[H:15])[H:8]>>[H:8][H:15].[O:1]=[C:2]([C:7]12[C:3]([H:10])([H:11])[C:4]1([O:5][H:12])[C:6]2([H:13])[H:14])[H:9]"
O        2.43385169      -0.28633219       0.22570749
C        1.39681093       0.50430893       0.41597723
C       -0.19212004       1.45056119      -0.25492666
C       -1.12740767       0.29744247      -0.09507801
O       -2.05460107       0.15865520       0.90215588
C       -0.64351056      -0.71034680      -1.07172013
C        0.22895716      -0.27425084       0.04790303
H        2.08145700      -1.63077279       0.66924792
H        1.46879543       1.01193467       1.39148700
H       -0.34701096       2.22133141       0.49746391
H       -0.12496514       1.92645973      -1.23434364
H       -2.62304740      -0.58986652       0.70059030
H       -0.93528674      -1.74418715      -0.92697170
H       -0.32590513      -0.46695835      -2.08108832
H        0.76398252      -1.86797896       0.81359570
