13
Frame=0 idx=008568 GeodesicLength=0.0 rxn_smarts="[N:1](=[C:2](/[O:3][C:4]([C:5]([C:6]#[N:7])([H:12])[H:13])([H:10])[H:11])[H:9])\[H:8]>>[N:1](=[C:2]1/[O:3][C:4]([H:10])([H:11])[C:5]([H:12])([H:13])[C-:6]=[N+:7]1[H:9])\[H:8]"
N       -2.60398064       0.43463120      -0.52272848
C       -1.35443616       0.29941597      -0.54320096
O       -0.86435363      -0.91169685      -0.14185475
C        0.52318058      -1.11091557      -0.29476148
C        1.30363132      -0.45436165       0.83874040
C        1.14915056       1.02272128       0.70033504
N        0.33437287       1.65730291       0.12620142
H       -2.89003487       1.36117115      -0.81736799
H       -0.39638604       2.06496374      -0.43531332
H        0.86382984      -0.71310356      -1.25695298
H        0.68643829      -2.18892896      -0.29896836
H        0.88925008      -0.73568753       1.81001718
H        2.35933774      -0.72551212       0.83585431
13
Frame=1 idx=008568 GeodesicLength=0.14559444046779285 rxn_smarts="[N:1](=[C:2](/[O:3][C:4]([C:5]([C:6]#[N:7])([H:12])[H:13])([H:10])[H:11])[H:9])\[H:8]>>[N:1](=[C:2]1/[O:3][C:4]([H:10])([H:11])[C:5]([H:12])([H:13])[C-:6]=[N+:7]1[H:9])\[H:8]"
N       -2.59843285       0.42388372      -0.57935217
C       -1.34928945       0.30748608      -0.51315905
O       -0.86507983      -0.90964774      -0.12914755
C        0.52176153      -1.11100022      -0.29455822
C        1.30936417      -0.45336285       0.83280090
C        1.18865093       1.02439145       0.67691074
N        0.36090605       1.66468383       0.12194720
H       -2.88284311       1.36563131      -0.82270061
H       -0.46329153       2.05347339      -0.38123484
H        0.84970019      -0.72138917      -1.26429150
H        0.68514096      -2.18885293      -0.29862441
H        0.88513087      -0.70635964       1.80799855
H        2.35828207      -0.74893723       0.84341095
13
Frame=2 idx=008568 GeodesicLength=0.29084618688624336 rxn_smarts="[N:1](=[C:2](/[O:3][C:4]([C:5]([C:6]#[N:7])([H:12])[H:13])([H:10])[H:11])[H:9])\[H:8]>>[N:1](=[C:2]1/[O:3][C:4]([H:10])([H:11])[C:5]([H:12])([H:13])[C-:6]=[N+:7]1[H:9])\[H:8]"
N       -2.58669642       0.41410460      -0.64607389
C       -1.34647110       0.31597410      -0.47668899
O       -0.86737218      -0.90686569      -0.11116948
C        0.51803109      -1.11087557      -0.29308059
C        1.31631683      -0.45160879       0.82516192
C        1.22783199       1.02569434       0.65160041
N        0.38719630       1.67235066       0.11730201
H       -2.87596795       1.36625354      -0.83681467
H       -0.52819295       2.04005777      -0.31337969
H        0.82987962      -0.72990753      -1.27131411
H        0.68108360      -2.18855431      -0.29689003
H        0.88638977      -0.67607596       1.80521900
H        2.35797142      -0.77054714       0.84612810
13
Frame=3 idx=008568 GeodesicLength=0.4364690169178153 rxn_smarts="[N:1](=[C:2](/[O:3][C:4]([C:5]([C:6]#[N:7])([H:12])[H:13])([H:10])[H:11])[H:9])\[H:8]>>[N:1](=[C:2]1/[O:3][C:4]([H:10])([H:11])[C:5]([H:12])([H:13])[C-:6]=[N+:7]1[H:9])\[H:8]"
N       -2.56659896       0.40697215      -0.71873168
C       -1.34658003       0.32359084      -0.43575247
O       -0.87102945      -0.90460505      -0.09010539
C        0.51267120      -1.11076458      -0.29094651
C        1.32339922      -0.44897383       0.81630351
C        1.26501047       1.02703688       0.62462594
N        0.41140428       1.68029671       0.11214904
H       -2.86851987       1.36447892      -0.85544254
H       -0.58983338       2.02337473      -0.23712806
H        0.80579323      -0.73822031      -1.27800916
H        0.67587589      -2.18829963      -0.29459450
H        0.89065935      -0.64503440       1.80161951
H        2.35774807      -0.78985242       0.84601230
13
Frame=4 idx=008568 GeodesicLength=0.5812218645800888 rxn_smarts="[N:1](=[C:2](/[O:3][C:4]([C:5]([C:6]#[N:7])([H:12])[H:13])([H:10])[H:11])[H:9])\[H:8]>>[N:1](=[C:2]1/[O:3][C:4]([H:10])([H:11])[C:5]([H:12])([H:13])[C-:6]=[N+:7]1[H:9])\[H:8]"
N       -2.53797705       0.40458218      -0.78797692
C       -1.34865768       0.32863864      -0.39506345
O       -0.87514041      -0.90389822      -0.06952560
C        0.50666544      -1.11077150      -0.28905832
C        1.32892544      -0.44521914       0.80675710
C        1.29842575       1.02824343       0.59558102
N        0.43223229       1.68742772       0.10476275
H       -2.85795330       1.36188398      -0.87530798
H       -0.64827291       2.00219088      -0.15602792
H        0.77998877      -0.74651553      -1.28467232
H        0.67148405      -2.18776698      -0.29234040
H        0.89446811      -0.61259328       1.79695554
H        2.35581149      -0.80620219       0.84591649
13
Frame=5 idx=008568 GeodesicLength=0.7267135750795369 rxn_smarts="[N:1](=[C:2](/[O:3][C:4]([C:5]([C:6]#[N:7])([H:12])[H:13])([H:10])[H:11])[H:9])\[H:8]>>[N:1](=[C:2]1/[O:3][C:4]([H:10])([H:11])[C:5]([H:12])([H:13])[C-:6]=[N+:7]1[H:9])\[H:8]"
N       -2.50091619       0.40712016      -0.85628896
C       -1.35184532       0.33183610      -0.35762501
O       -0.87965552      -0.90429182      -0.05081046
C        0.50056062      -1.11128974      -0.28745191
C        1.33282015      -0.44044608       0.79703679
C        1.32833459       1.02964975       0.56506703
N        0.45052512       1.69463243       0.09488707
H       -2.84797406       1.35843676      -0.88938837
H       -0.70292410       1.97661515      -0.07323645
H        0.75440881      -0.75563063      -1.29113429
H        0.66768074      -2.18773981      -0.28945262
H        0.89661097      -0.57899371       1.79129177
H        2.35237420      -0.81989854       0.84710542
13
Frame=6 idx=008568 GeodesicLength=0.8727865074231431 rxn_smarts="[N:1](=[C:2](/[O:3][C:4]([C:5]([C:6]#[N:7])([H:12])[H:13])([H:10])[H:11])[H:9])\[H:8]>>[N:1](=[C:2]1/[O:3][C:4]([H:10])([H:11])[C:5]([H:12])([H:13])[C-:6]=[N+:7]1[H:9])\[H:8]"
N       -2.45696551       0.41369896      -0.91866723
C       -1.35650433       0.33356268      -0.32061605
O       -0.88458971      -0.90537781      -0.03198165
C        0.49385401      -1.11170159      -0.28607149
C        1.33560175      -0.43496205       0.78679584
C        1.35480687       1.03101834       0.53414039
N        0.46601416       1.70203704       0.08504163
H       -2.83587062       1.35332853      -0.90660116
H       -0.75413429       1.94678511       0.00996681
H        0.72733123      -0.76425500      -1.29739537
H        0.66383754      -2.18745421      -0.28696134
H        0.89869430      -0.54546790       1.78463363
H        2.34792460      -0.83121208       0.84771600
13
Frame=7 idx=008568 GeodesicLength=1.019195813319438 rxn_smarts="[N:1](=[C:2](/[O:3][C:4]([C:5]([C:6]#[N:7])([H:12])[H:13])([H:10])[H:11])[H:9])\[H:8]>>[N:1](=[C:2]1/[O:3][C:4]([H:10])([H:11])[C:5]([H:12])([H:13])[C-:6]=[N+:7]1[H:9])\[H:8]"
N       -2.41163184       0.42475251      -0.97011890
C       -1.36051952       0.33328952      -0.29000627
O       -0.88909500      -0.90787035      -0.01764326
C        0.48819547      -1.11261527      -0.28569413
C        1.33631590      -0.42875838       0.77705195
C        1.37789801       1.03232023       0.50287084
N        0.47976720       1.70914184       0.07235206
H       -2.82263603       1.34954379      -0.91942979
H       -0.80217032       1.91275549       0.09032706
H        0.70330955      -0.77374645      -1.30383938
H        0.66205845      -2.18749862      -0.28455493
H        0.89709083      -0.51115483       1.77697260
H        2.34141729      -0.84015948       0.85171215
13
Frame=8 idx=008568 GeodesicLength=1.1660415924574683 rxn_smarts="[N:1](=[C:2](/[O:3][C:4]([C:5]([C:6]#[N:7])([H:12])[H:13])([H:10])[H:11])[H:9])\[H:8]>>[N:1](=[C:2]1/[O:3][C:4]([H:10])([H:11])[C:5]([H:12])([H:13])[C-:6]=[N+:7]1[H:9])\[H:8]"
N       -2.36556813       0.43822376      -1.01261028
C       -1.36460889       0.33171396      -0.26206950
O       -0.89344550      -0.91126410      -0.00516868
C        0.48296353      -1.11362813      -0.28592013
C        1.33585915      -0.42214954       0.76751981
C        1.39823013       1.03353933       0.47230672
N        0.49220546       1.71625503       0.05842088
H       -2.80713370       1.34683231      -0.93258965
H       -0.84797183       1.87552143       0.16758375
H        0.68033286      -0.78316329      -1.31026974
H        0.66139956      -2.18751799      -0.28277849
H        0.89391999      -0.47713442       1.76851615
H        2.33381739      -0.84722836       0.85705916
13
Frame=9 idx=008568 GeodesicLength=1.313021544274162 rxn_smarts="[N:1](=[C:2](/[O:3][C:4]([C:5]([C:6]#[N:7])([H:12])[H:13])([H:10])[H:11])[H:9])\[H:8]>>[N:1](=[C:2]1/[O:3][C:4]([H:10])([H:11])[C:5]([H:12])([H:13])[C-:6]=[N+:7]1[H:9])\[H:8]"
N       -2.32091610       0.45381202      -1.04652592
C       -1.36797139       0.32892353      -0.23799200
O       -0.89738212      -0.91564266       0.00423169
C        0.47863814      -1.11487861      -0.28687502
C        1.33410175      -0.41517967       0.75854457
C        1.41631844       1.03461386       0.44258440
N        0.50425890       1.72315521       0.04192290
H       -2.79009622       1.34618207      -0.94310400
H       -0.89214886       1.83534588       0.24113032
H        0.65973996      -0.79296160      -1.31680984
H        0.66233942      -2.18763499      -0.28133741
H        0.88828441      -0.44312624       1.75933461
H        2.32483368      -0.85260880       0.86489569
13
Frame=10 idx=008568 GeodesicLength=1.4601801274193897 rxn_smarts="[N:1](=[C:2](/[O:3][C:4]([C:5]([C:6]#[N:7])([H:12])[H:13])([H:10])[H:11])[H:9])\[H:8]>>[N:1](=[C:2]1/[O:3][C:4]([H:10])([H:11])[C:5]([H:12])([H:13])[C-:6]=[N+:7]1[H:9])\[H:8]"
N       -2.27676054       0.47099356      -1.07440233
C       -1.37077066       0.32548550      -0.21634626
O       -0.90104628      -0.92053084       0.01169710
C        0.47489143      -1.11620487      -0.28831984
C        1.33142180      -0.40799904       0.75000723
C        1.43278785       1.03548132       0.41394942
N        0.51654171       1.72990727       0.02295470
H       -2.77220157       1.34668544      -0.95164331
H       -0.93556423       1.79288046       0.31174297
H        0.64068801      -0.80292128      -1.32335807
H        0.66426389      -2.18772020      -0.28027287
H        0.88099463      -0.40933385       1.74951897
H        2.31475395      -0.85672349       0.87447231
13
Frame=11 idx=008568 GeodesicLength=1.6074202648165086 rxn_smarts="[N:1](=[C:2](/[O:3][C:4]([C:5]([C:6]#[N:7])([H:12])[H:13])([H:10])[H:11])[H:9])\[H:8]>>[N:1](=[C:2]1/[O:3][C:4]([H:10])([H:11])[C:5]([H:12])([H:13])[C-:6]=[N+:7]1[H:9])\[H:8]"
N       -2.23397209       0.48958236      -1.09665570
C       -1.37283052       0.32138166      -0.19712514
O       -0.90439926      -0.92603231       0.01698884
C        0.47184079      -1.11769217      -0.29022875
C        1.32787808      -0.40054968       0.74191499
C        1.44799325       1.03617403       0.38620492
N        0.52940359       1.73638049       0.00073483
H       -2.75302629       1.34920325      -0.95802079
H       -0.97918709       1.74779151       0.38046339
H        0.62344433      -0.81334050      -1.32997810
H        0.66732016      -2.18785186      -0.27930566
H        0.87199186      -0.37546835       1.73903744
H        2.30354321      -0.85957842       0.88596973
13
Frame=12 idx=008568 GeodesicLength=1.754691168925429 rxn_smarts="[N:1](=[C:2](/[O:3][C:4]([C:5]([C:6]#[N:7])([H:12])[H:13])([H:10])[H:11])[H:9])\[H:8]>>[N:1](=[C:2]1/[O:3][C:4]([H:10])([H:11])[C:5]([H:12])([H:13])[C-:6]=[N+:7]1[H:9])\[H:8]"
N       -2.19281417       0.50929568      -1.11394520
C       -1.37411121       0.31670261      -0.17997741
O       -0.90745123      -0.93210117       0.02028362
C        0.46946838      -1.11933281      -0.29251599
C        1.32357503      -0.39279069       0.73422648
C        1.46221005       1.03673511       0.35932247
N        0.54315581       1.74245348      -0.02533585
H       -2.73210549       1.35429581      -0.96243320
H       -1.02400553       1.69967807       0.44821727
H        0.60793846      -0.82433110      -1.33666637
H        0.67144700      -2.18801771      -0.27827434
H        0.86145676      -0.34140017       1.72787120
H        2.29123614      -0.86118712       0.89922730
13
Frame=13 idx=008568 GeodesicLength=1.9019864893467286 rxn_smarts="[N:1](=[C:2](/[O:3][C:4]([C:5]([C:6]#[N:7])([H:12])[H:13])([H:10])[H:11])[H:9])\[H:8]>>[N:1](=[C:2]1/[O:3][C:4]([H:10])([H:11])[C:5]([H:12])([H:13])[C-:6]=[N+:7]1[H:9])\[H:8]"
N       -2.15254124       0.53058450      -1.12747667
C       -1.37428859       0.31203990      -0.16480412
O       -0.91020142      -0.93829560       0.02154746
C        0.46775822      -1.12103844      -0.29515193
C        1.31858645      -0.38480962       0.72700628
C        1.47605904       1.03703220       0.33340345
N        0.55874355       1.74800994      -0.05591362
H       -2.71102837       1.36087484      -0.96387753
H       -1.07073842       1.64854661       0.51532234
H        0.59427614      -0.83590328      -1.34343663
H        0.67637322      -2.18816291      -0.27711824
H        0.84933613      -0.30697851       1.71598811
H        2.27766530      -0.86189964       0.91451110
13
Frame=14 idx=008568 GeodesicLength=2.0492613784113036 rxn_smarts="[N:1](=[C:2](/[O:3][C:4]([C:5]([C:6]#[N:7])([H:12])[H:13])([H:10])[H:11])[H:9])\[H:8]>>[N:1](=[C:2]1/[O:3][C:4]([H:10])([H:11])[C:5]([H:12])([H:13])[C-:6]=[N+:7]1[H:9])\[H:8]"
N       -2.11348069       0.55356407      -1.13737265
C       -1.37327674       0.30740167      -0.15146721
O       -0.91266123      -0.94466317       0.02063353
C        0.46675637      -1.12285151      -0.29806192
C        1.31293905      -0.37645371       0.72020109
C        1.48970860       1.03715822       0.30826897
N        0.57650210       1.75279771      -0.09193904
H       -2.68899376       1.36994865      -0.96246667
H       -1.12071029       1.59317266       0.58291770
H        0.58258546      -0.84833953      -1.35029751
H        0.68215366      -2.18832030      -0.27547155
H        0.83570145      -0.27189199       1.70329124
H        2.26277602      -0.86152277       0.93176401
13
Frame=15 idx=008568 GeodesicLength=2.1964788504168156 rxn_smarts="[N:1](=[C:2](/[O:3][C:4]([C:5]([C:6]#[N:7])([H:12])[H:13])([H:10])[H:11])[H:9])\[H:8]>>[N:1](=[C:2]1/[O:3][C:4]([H:10])([H:11])[C:5]([H:12])([H:13])[C-:6]=[N+:7]1[H:9])\[H:8]"
N       -2.07536578       0.57873842      -1.14401573
C       -1.37074195       0.30323916      -0.13991286
O       -0.91482317      -0.95089131       0.01734930
C        0.46649664      -1.12471740      -0.30119498
C        1.30667347      -0.36765752       0.71382377
C        1.50358711       1.03709247       0.28390379
N        0.59734613       1.75648707      -0.13445717
H       -2.66647565       1.38147101      -0.95762133
H       -1.17533543       1.53242132       0.65162815
H        0.57307489      -0.86180148      -1.35725202
H        0.68863743      -2.18845525      -0.27308084
H        0.82053264      -0.23583484       1.68966272
H        2.24639366      -0.86009164       0.95116721
13
Frame=16 idx=008568 GeodesicLength=2.3436196381677155 rxn_smarts="[N:1](=[C:2](/[O:3][C:4]([C:5]([C:6]#[N:7])([H:12])[H:13])([H:10])[H:11])[H:9])\[H:8]>>[N:1](=[C:2]1/[O:3][C:4]([H:10])([H:11])[C:5]([H:12])([H:13])[C-:6]=[N+:7]1[H:9])\[H:8]"
N       -2.03794235       0.60680743      -1.14750745
C       -1.36633801       0.30000027      -0.13002183
O       -0.91669733      -0.95668110       0.01140777
C        0.46701597      -1.12659548      -0.30446437
C        1.29981617      -0.35824333       0.70783583
C        1.51805719       1.03687628       0.26013891
N        0.62227973       1.75858410      -0.18478061
H       -2.64343661       1.39590854      -0.94882439
H       -1.23658439       1.46423954       0.72223846
H        0.56597591      -0.87657532      -1.36427956
H        0.69568755      -2.18853894      -0.26950888
H        0.80384261      -0.19832770       1.67490511
H        2.22832358      -0.85745429       0.97286101
