14
Frame=0 idx=009493 GeodesicLength=0.0 rxn_smarts="[C:1]([N:2]([c:3]1[n:4][n:5]([H:12])[c:6]([H:13])[c:7]1[H:14])[H:11])([H:8])([H:9])[H:10]>>[C:1]([N:2]([C:3]1=[C+:7][C:6]([H:13])([H:14])[N:5]([H:12])[N-:4]1)[H:11])([H:8])([H:9])[H:10]"
C        2.32227010       0.26665351       0.23128480
N        1.27893247       0.15638332      -0.76569635
C       -0.03053953       0.04337608      -0.34800997
N       -1.01388471       0.35845675      -1.17872814
N       -2.15159803       0.14502768      -0.53552520
C       -1.88983461      -0.42767467       0.71921823
C       -0.45793659      -0.39106973       0.95922310
H        2.26618107      -0.58270917       0.90986700
H        3.28876723       0.24826560      -0.27187322
H        2.25184960       1.18098993       0.83348550
H        1.38652666       0.75369970      -1.56863744
H       -3.00798978       0.14154420      -1.06016627
H       -2.65344076      -0.36306183       1.48541299
H       -1.58930313      -1.52988140       0.59014499
14
Frame=1 idx=009493 GeodesicLength=0.06343093580372561 rxn_smarts="[C:1]([N:2]([c:3]1[n:4][n:5]([H:12])[c:6]([H:13])[c:7]1[H:14])[H:11])([H:8])([H:9])[H:10]>>[C:1]([N:2]([C:3]1=[C+:7][C:6]([H:13])([H:14])[N:5]([H:12])[N-:4]1)[H:11])([H:8])([H:9])[H:10]"
C        2.32172986       0.25698599       0.22964452
N        1.27526175       0.16902893      -0.76604003
C       -0.03413560       0.06545713      -0.34467082
N       -1.01769761       0.36549870      -1.18160580
N       -2.15473912       0.12962827      -0.54600911
C       -1.89349051      -0.42330405       0.71669695
C       -0.46471178      -0.37345148       0.95776024
H        2.26263046      -0.60282301       0.89488303
H        3.28685571       0.24074560      -0.27619139
H        2.25890581       1.16201214       0.84666629
H        1.38492170       0.77677284      -1.56083691
H       -3.00918788       0.11644865      -1.07348296
H       -2.65781214      -0.34730553       1.48112271
H       -1.55853064      -1.53569417       0.62206325
14
Frame=2 idx=009493 GeodesicLength=0.12685734833451234 rxn_smarts="[C:1]([N:2]([c:3]1[n:4][n:5]([H:12])[c:6]([H:13])[c:7]1[H:14])[H:11])([H:8])([H:9])[H:10]>>[C:1]([N:2]([C:3]1=[C+:7][C:6]([H:13])([H:14])[N:5]([H:12])[N-:4]1)[H:11])([H:8])([H:9])[H:10]"
C        2.32071153       0.24767974       0.22796374
N        1.27165804       0.18096160      -0.76641258
C       -0.03768020       0.08637600      -0.34167569
N       -1.02132520       0.37294278      -1.18415677
N       -2.15714990       0.11464066      -0.55604602
C       -1.89697751      -0.41973232       0.71389032
C       -0.47139916      -0.35691944       0.95598561
H        2.25871659      -0.62205875       0.88009981
H        3.28467119       0.23389948      -0.28013941
H        2.26472955       1.14339932       0.85915353
H        1.38352188       0.79852822      -1.55329043
H       -3.00978573       0.09326583      -1.08598813
H       -2.66203856      -0.33215505       1.47633931
H       -1.52765253      -1.54082809       0.65427672
14
Frame=3 idx=009493 GeodesicLength=0.1900823193516103 rxn_smarts="[C:1]([N:2]([c:3]1[n:4][n:5]([H:12])[c:6]([H:13])[c:7]1[H:14])[H:11])([H:8])([H:9])[H:10]>>[C:1]([N:2]([C:3]1=[C+:7][C:6]([H:13])([H:14])[N:5]([H:12])[N-:4]1)[H:11])([H:8])([H:9])[H:10]"
C        2.31924518       0.23909107       0.22635453
N        1.26826771       0.19166829      -0.76685850
C       -0.04104487       0.10532414      -0.33918704
N       -1.02469626       0.38063819      -1.18637177
N       -2.15883071       0.10054872      -0.56545265
C       -1.90027590      -0.41713835       0.71078203
C       -0.47788687      -0.34247432       0.95365899
H        2.25478984      -0.63982180       0.86603030
H        3.28231332       0.22823348      -0.28347597
H        2.26892844       1.12582009       0.87066060
H        1.38236608       0.81812462      -1.54635171
H       -3.01000076       0.07333467      -1.09729482
H       -2.66588669      -0.31770527       1.47124034
H       -1.49728852      -1.54564354       0.68626567
14
Frame=4 idx=009493 GeodesicLength=0.25343394465472036 rxn_smarts="[C:1]([N:2]([c:3]1[n:4][n:5]([H:12])[c:6]([H:13])[c:7]1[H:14])[H:11])([H:8])([H:9])[H:10]>>[C:1]([N:2]([C:3]1=[C+:7][C:6]([H:13])([H:14])[N:5]([H:12])[N-:4]1)[H:11])([H:8])([H:9])[H:10]"
C        2.31743932       0.23073143       0.22470720
N        1.26493027       0.20187301      -0.76736618
C       -0.04436287       0.12320466      -0.33701670
N       -1.02799439       0.38859967      -1.18838472
N       -2.15996587       0.08667109      -0.57464628
C       -1.90344097      -0.41521956       0.70741994
C       -0.48431436      -0.32878398       0.95112649
H        2.25066367      -0.65704587       0.85198680
H        3.27978459       0.22313401      -0.28651867
H        2.27215040       1.10839382       0.88176062
H        1.38129837       0.83692313      -1.53953427
H       -3.00988200       0.05497304      -1.10806923
H       -2.66964521      -0.30371556       1.46564726
H       -1.46666094      -1.54973889       0.71888773
14
Frame=5 idx=009493 GeodesicLength=0.3166981010721443 rxn_smarts="[C:1]([N:2]([c:3]1[n:4][n:5]([H:12])[c:6]([H:13])[c:7]1[H:14])[H:11])([H:8])([H:9])[H:10]>>[C:1]([N:2]([C:3]1=[C+:7][C:6]([H:13])([H:14])[N:5]([H:12])[N-:4]1)[H:11])([H:8])([H:9])[H:10]"
C        2.31532258       0.22307961       0.22316837
N        1.26181625       0.21087290      -0.76796754
C       -0.04749286       0.13914459      -0.33531876
N       -1.03110825       0.39672009      -1.19012357
N       -2.16055533       0.07365906      -0.58335079
C       -1.90646528      -0.41426066       0.70374810
C       -0.49056012      -0.31712596       0.94807534
H        2.24673377      -0.67285504       0.83875003
H        3.27719291       0.21913472      -0.28896371
H        2.27396534       1.09209342       0.89195526
H        1.38039631       0.85367757      -1.53335066
H       -3.00967921       0.03996199      -1.11774365
H       -2.67304537      -0.29044559       1.45974753
H       -1.43652072      -1.55365669       0.75137405
14
Frame=6 idx=009493 GeodesicLength=0.37998211331033915 rxn_smarts="[C:1]([N:2]([c:3]1[n:4][n:5]([H:12])[c:6]([H:13])[c:7]1[H:14])[H:11])([H:8])([H:9])[H:10]>>[C:1]([N:2]([C:3]1=[C+:7][C:6]([H:13])([H:14])[N:5]([H:12])[N-:4]1)[H:11])([H:8])([H:9])[H:10]"
C        2.31296597       0.21568653       0.22162504
N        1.25877268       0.21934343      -0.76863046
C       -0.05056092       0.15403619      -0.33389224
N       -1.03418227       0.40498849      -1.19169673
N       -2.16071949       0.06088006      -0.59191806
C       -1.90939305      -0.41401799       0.69979619
C       -0.49676642      -0.30629420       0.94481059
H        2.24275904      -0.68807904       0.82567683
H        3.27450964       0.21565424      -0.29111187
H        2.27496675       1.07609349       0.90172650
H        1.37954588       0.86960086      -1.52734429
H       -3.00937083       0.02675854      -1.12687905
H       -2.67635825      -0.27775542       1.45335199
H       -1.40616873      -1.55689518       0.78448557
14
Frame=7 idx=009493 GeodesicLength=0.44329882107393914 rxn_smarts="[C:1]([N:2]([c:3]1[n:4][n:5]([H:12])[c:6]([H:13])[c:7]1[H:14])[H:11])([H:8])([H:9])[H:10]>>[C:1]([N:2]([C:3]1=[C+:7][C:6]([H:13])([H:14])[N:5]([H:12])[N-:4]1)[H:11])([H:8])([H:9])[H:10]"
C        2.31038292       0.20814406       0.21995785
N        1.25567313       0.22788897      -0.76933742
C       -0.05366493       0.16859395      -0.33260513
N       -1.03732389       0.41346918      -1.19317610
N       -2.16049844       0.04781101      -0.60060177
C       -1.91222961      -0.41427366       0.69560058
C       -0.50302799      -0.29526932       0.94156819
H        2.23846778      -0.70346297       0.81212408
H        3.27166886       0.21222074      -0.29321918
H        2.27558085       1.05958944       0.91149726
H        1.37866274       0.88580257      -1.52106466
H       -3.00881853       0.01386694      -1.13596434
H       -2.67980257      -0.26550289       1.44628367
H       -1.37507033      -1.55887801       0.81893697
14
Frame=8 idx=009493 GeodesicLength=0.5066138378231934 rxn_smarts="[C:1]([N:2]([c:3]1[n:4][n:5]([H:12])[c:6]([H:13])[c:7]1[H:14])[H:11])([H:8])([H:9])[H:10]>>[C:1]([N:2]([C:3]1=[C+:7][C:6]([H:13])([H:14])[N:5]([H:12])[N-:4]1)[H:11])([H:8])([H:9])[H:10]"
C        2.30760075       0.20095325       0.21832692
N        1.25266712       0.23576494      -0.77010614
C       -0.05669069       0.18202899      -0.33158012
N       -1.04042746       0.42199118      -1.19451242
N       -2.15988918       0.03510039      -0.60915237
C       -1.91496892      -0.41534570       0.69108053
C       -0.50925397      -0.28533031       0.93804860
H        2.23424561      -0.71807223       0.79895475
H        3.26877820       0.20932873      -0.29497395
H        2.27539617       1.04363613       0.92072240
H        1.37782194       0.90091383      -1.51507770
H       -3.00830040       0.00327912      -1.14437248
H       -2.68312454      -0.25406140       1.43871701
H       -1.34385463      -1.56018693       0.85392497
14
Frame=9 idx=009493 GeodesicLength=0.5700624045437903 rxn_smarts="[C:1]([N:2]([c:3]1[n:4][n:5]([H:12])[c:6]([H:13])[c:7]1[H:14])[H:11])([H:8])([H:9])[H:10]>>[C:1]([N:2]([C:3]1=[C+:7][C:6]([H:13])([H:14])[N:5]([H:12])[N-:4]1)[H:11])([H:8])([H:9])[H:10]"
C        2.30462314       0.19357026       0.21656293
N        1.24960539       0.24380568      -0.77090734
C       -0.05975932       0.19524547      -0.33065587
N       -1.04363642       0.43053958      -1.19586876
N       -2.15894058       0.02210124      -0.61790628
C       -1.91760217      -0.41691887       0.68630914
C       -0.51552868      -0.27516945       0.93460743
H        2.22972497      -0.73293523       0.78521557
H        3.26575245       0.20643267      -0.29671557
H        2.27489636       1.02707736       0.93001882
H        1.37693276       0.91646066      -1.50874260
H       -3.00764458      -0.00701357      -1.15280491
H       -2.68660031      -0.24315847       1.43045804
H       -1.31182299      -1.56003734       0.89042941
14
Frame=10 idx=009493 GeodesicLength=0.6334166569270624 rxn_smarts="[C:1]([N:2]([c:3]1[n:4][n:5]([H:12])[c:6]([H:13])[c:7]1[H:14])[H:11])([H:8])([H:9])[H:10]>>[C:1]([N:2]([C:3]1=[C+:7][C:6]([H:13])([H:14])[N:5]([H:12])[N-:4]1)[H:11])([H:8])([H:9])[H:10]"
C        2.30140441       0.18582020       0.21458859
N        1.24641875       0.25224119      -0.77172628
C       -0.06292963       0.20859252      -0.32978039
N       -1.04695143       0.43931989      -1.19711290
N       -2.15754196       0.00862005      -0.62685308
C       -1.92012096      -0.41896573       0.68125273
C       -0.52198890      -0.26440711       0.93119331
H        2.22467234      -0.74828807       0.77063274
H        3.26252747       0.20327393      -0.29853317
H        2.27423825       1.00957392       0.93944562
H        1.37600245       0.93279940      -1.50187550
H       -3.00654753      -0.01775141      -1.16129095
H       -2.69034015      -0.23295292       1.42134658
H       -1.27884311      -1.55787587       0.92871271
14
Frame=11 idx=009493 GeodesicLength=0.6968502151457022 rxn_smarts="[C:1]([N:2]([c:3]1[n:4][n:5]([H:12])[c:6]([H:13])[c:7]1[H:14])[H:11])([H:8])([H:9])[H:10]>>[C:1]([N:2]([C:3]1=[C+:7][C:6]([H:13])([H:14])[N:5]([H:12])[N-:4]1)[H:11])([H:8])([H:9])[H:10]"
C        2.29798256       0.17798955       0.21250738
N        1.24320461       0.26064175      -0.77257424
C       -0.06612388       0.22156169      -0.32901670
N       -1.05034399       0.44816948      -1.19829705
N       -2.15579387      -0.00475829      -0.63584731
C       -1.92250964      -0.42160203       0.67590845
C       -0.52849804      -0.25388615       0.92769830
H        2.21940567      -0.76363886       0.75568752
H        3.25918127       0.20019222      -0.30025982
H        2.27315852       0.99171507       0.94875874
H        1.37504178       0.94918474      -1.49478569
H       -3.00524440      -0.02793691      -1.16965608
H       -2.69415630      -0.22356509       1.41160782
H       -1.24530430      -1.55406716       0.96826868
14
Frame=12 idx=009493 GeodesicLength=0.7603188383597089 rxn_smarts="[C:1]([N:2]([c:3]1[n:4][n:5]([H:12])[c:6]([H:13])[c:7]1[H:14])[H:11])([H:8])([H:9])[H:10]>>[C:1]([N:2]([C:3]1=[C+:7][C:6]([H:13])([H:14])[N:5]([H:12])[N-:4]1)[H:11])([H:8])([H:9])[H:10]"
C        2.29438409       0.17013565       0.21033338
N        1.23998740       0.26892040      -0.77344844
C       -0.06932081       0.23409406      -0.32835951
N       -1.05379288       0.45712421      -1.19939504
N       -2.15376262      -0.01776721      -0.64482063
C       -1.92478232      -0.42485575       0.67026261
C       -0.53503615      -0.24383216       0.92406606
H        2.21398814      -0.77887624       0.74047629
H        3.25574185       0.19724229      -0.30186996
H        2.27166082       0.97362143       0.95788543
H        1.37408162       0.96543947      -1.48754931
H       -3.00374935      -0.03752639      -1.17789545
H       -2.69800245      -0.21512616       1.40130513
H       -1.21139735      -1.54859359       1.00900943
14
Frame=13 idx=009493 GeodesicLength=0.8238247886197178 rxn_smarts="[C:1]([N:2]([c:3]1[n:4][n:5]([H:12])[c:6]([H:13])[c:7]1[H:14])[H:11])([H:8])([H:9])[H:10]>>[C:1]([N:2]([C:3]1=[C+:7][C:6]([H:13])([H:14])[N:5]([H:12])[N-:4]1)[H:11])([H:8])([H:9])[H:10]"
C        2.29060312       0.16217311       0.20803211
N        1.23673584       0.27718168      -0.77433139
C       -0.07254522       0.24635702      -0.32775457
N       -1.05731089       0.46627281      -1.20037716
N       -2.15148334      -0.03026009      -0.65373725
C       -1.92693233      -0.42867822       0.66432474
C       -0.54162952      -0.23414611       0.92031990
H        2.20835911      -0.79412973       0.72486558
H        3.25218834       0.19430869      -0.30342486
H        2.26982445       0.95512977       0.96687165
H        1.37311310       0.98172823      -1.48007583
H       -3.00192932      -0.04703149      -1.18619233
H       -2.70190044      -0.20771522       1.39047180
H       -1.17709290      -1.54119047       1.05100761
14
Frame=14 idx=009493 GeodesicLength=0.8873570915795181 rxn_smarts="[C:1]([N:2]([c:3]1[n:4][n:5]([H:12])[c:6]([H:13])[c:7]1[H:14])[H:11])([H:8])([H:9])[H:10]>>[C:1]([N:2]([C:3]1=[C+:7][C:6]([H:13])([H:14])[N:5]([H:12])[N-:4]1)[H:11])([H:8])([H:9])[H:10]"
C        2.28666283       0.15419180       0.20563765
N        1.23347769       0.28526852      -0.77522312
C       -0.07577275       0.25822532      -0.32720495
N       -1.06087299       0.47564165      -1.20121354
N       -2.14903478      -0.04196766      -0.66253018
C       -1.92896416      -0.43313213       0.65806744
C       -0.54824988      -0.22511368       0.91639198
H        2.20262574      -0.80922914       0.70903704
H        3.24855025       0.19147365      -0.30487394
H        2.26760290       0.93645180       0.97561501
H        1.37215480       0.99775606      -1.47249634
H       -2.99984705      -0.05618504      -1.19451308
H       -2.70578655      -0.20149496       1.37920033
H       -1.14254605      -1.53188619       1.09410570
14
Frame=15 idx=009493 GeodesicLength=0.9509107218630939 rxn_smarts="[C:1]([N:2]([c:3]1[n:4][n:5]([H:12])[c:6]([H:13])[c:7]1[H:14])[H:11])([H:8])([H:9])[H:10]>>[C:1]([N:2]([C:3]1=[C+:7][C:6]([H:13])([H:14])[N:5]([H:12])[N-:4]1)[H:11])([H:8])([H:9])[H:10]"
C        2.28257599       0.14618658       0.20314916
N        1.23021152       0.29316688      -0.77611791
C       -0.07900263       0.26971744      -0.32668993
N       -1.06447697       0.48528318      -1.20188052
N       -2.14646970      -0.05278741      -0.67119209
C       -1.93087363      -0.43824678       0.65146909
C       -0.55489365      -0.21679705       0.91226743
H        2.19681232      -0.82417390       0.69300032
H        3.24483461       0.18872175      -0.30622470
H        2.26502040       0.91759365       0.98410450
H        1.37120933       1.01348872      -1.46482364
H       -2.99750704      -0.06502399      -1.20292336
H       -2.70964781      -0.19659097       1.36753214
H       -1.10779273      -1.52053811       1.13832950
14
Frame=16 idx=009493 GeodesicLength=1.014491900305567 rxn_smarts="[C:1]([N:2]([c:3]1[n:4][n:5]([H:12])[c:6]([H:13])[c:7]1[H:14])[H:11])([H:8])([H:9])[H:10]>>[C:1]([N:2]([C:3]1=[C+:7][C:6]([H:13])([H:14])[N:5]([H:12])[N-:4]1)[H:11])([H:8])([H:9])[H:10]"
C        2.27834114       0.13807665       0.20053293
N        1.22691542       0.30098112      -0.77700262
C       -0.08225121       0.28095913      -0.32617123
N       -1.06813773       0.49525362      -1.20236332
N       -2.14380407      -0.06276134      -0.67976114
C       -1.93264226      -0.44403423       0.64451211
C       -0.56157315      -0.20909332       0.90797256
H        2.19086931      -0.83909532       0.67660846
H        3.24102795       0.18596885      -0.30752932
H        2.26214257       0.89838158       0.99239847
H        1.37026993       1.02910537      -1.45696116
H       -2.99486177      -0.07380587      -1.21155785
H       -2.71350972      -0.19310611       1.35545882
H       -1.07278641      -1.50683012       1.18386329
