17
Frame=0 idx=010117 GeodesicLength=0.0 rxn_smarts="[C:1]([C@@:2]1([H:11])[C:3]([H:12])([H:13])[C@:4]1([C:5]([C:6](=[O:7])[H:17])([H:15])[H:16])[H:14])([H:8])([H:9])[H:10]>>[C:1]([C:2]([C:3]([C:4][C:5]([C:6](=[O:7])[H:17])([H:15])[H:16])([H:12])[H:13])([H:11])[H:14])([H:8])([H:9])[H:10]"
C       -2.09196795      -0.16582993       0.11853910
C       -1.09899181       0.81758530      -0.45916683
C        0.06964671       1.25905427       0.42464679
C        0.77708621       0.59329030      -0.68196527
C        1.13180666      -0.84309864      -0.36865869
C        2.47446162      -0.88750374       0.32431854
O        2.99180065       0.03533589       0.88757323
H       -2.65882515       0.30628505       0.92277365
H       -1.60004782      -1.04247028       0.54190397
H       -2.79691207      -0.50757119      -0.64046433
H       -1.55021812       1.67366123      -0.95551520
H        0.19538015       2.33358027       0.51202018
H        0.06239720       0.76993509       1.40118483
H       -0.54179852       0.38106637      -1.39403166
H        1.20774306      -1.46227208      -1.26678298
H        0.46333585      -1.37799117       0.32952918
H        2.96510334      -1.88305675       0.30409549
17
Frame=1 idx=010117 GeodesicLength=0.07055013693636443 rxn_smarts="[C:1]([C@@:2]1([H:11])[C:3]([H:12])([H:13])[C@:4]1([C:5]([C:6](=[O:7])[H:17])([H:15])[H:16])[H:14])([H:8])([H:9])[H:10]>>[C:1]([C:2]([C:3]([C:4][C:5]([C:6](=[O:7])[H:17])([H:15])[H:16])([H:12])[H:13])([H:11])[H:14])([H:8])([H:9])[H:10]"
C       -2.10179926      -0.15965783       0.11764598
C       -1.10675065       0.82210317      -0.45976697
C        0.06643512       1.25044771       0.42200499
C        0.76343756       0.57110502      -0.68239266
C        1.13982794      -0.85566170      -0.36283773
C        2.48308055      -0.88253242       0.32898258
O        2.98029633       0.03788400       0.91423404
H       -2.66219354       0.30887224       0.92867961
H       -1.61330240      -1.04239384       0.53232628
H       -2.81412965      -0.49267738      -0.63852219
H       -1.56102327       1.68577161      -0.94029449
H        0.21889985       2.32326752       0.49440824
H        0.06032500       0.76972824       1.40236889
H       -0.54645990       0.39681041      -1.41689836
H        1.21823588      -1.47877693      -1.25819754
H        0.47338126      -1.39118309       0.33612652
H        3.00173919      -1.86310674       0.28213280
17
Frame=2 idx=010117 GeodesicLength=0.14111697792445116 rxn_smarts="[C:1]([C@@:2]1([H:11])[C:3]([H:12])([H:13])[C@:4]1([C:5]([C:6](=[O:7])[H:17])([H:15])[H:16])[H:14])([H:8])([H:9])[H:10]>>[C:1]([C:2]([C:3]([C:4][C:5]([C:6](=[O:7])[H:17])([H:15])[H:16])([H:12])[H:13])([H:11])[H:14])([H:8])([H:9])[H:10]"
C       -2.11185616      -0.15336452       0.11654888
C       -1.11460180       0.82679039      -0.46023546
C        0.06329895       1.24148548       0.41933791
C        0.74906620       0.54782373      -0.68267441
C        1.14780503      -0.86870345      -0.35658373
C        2.49173341      -0.87721728       0.33348301
O        2.96883382       0.04027037       0.94002121
H       -2.66573188       0.31136799       0.93441647
H       -1.62704339      -1.04229251       0.52234417
H       -2.83143275      -0.47733218      -0.63687465
H       -1.57146823       1.69809891      -0.92461377
H        0.24291654       2.31167376       0.47654748
H        0.05822093       0.76934520       1.40353509
H       -0.55060341       0.41384847      -1.43981968
H        1.22861942      -1.49605962      -1.24894159
H        0.48372212      -1.40477155       0.34354517
H        3.03852120      -1.84096319       0.25996390
17
Frame=3 idx=010117 GeodesicLength=0.21170586996566843 rxn_smarts="[C:1]([C@@:2]1([H:11])[C:3]([H:12])([H:13])[C@:4]1([C:5]([C:6](=[O:7])[H:17])([H:15])[H:16])[H:14])([H:8])([H:9])[H:10]>>[C:1]([C:2]([C:3]([C:4][C:5]([C:6](=[O:7])[H:17])([H:15])[H:16])([H:12])[H:13])([H:11])[H:14])([H:8])([H:9])[H:10]"
C       -2.12215559      -0.14694174       0.11524446
C       -1.12253820       0.83163673      -0.46056467
C        0.06023910       1.23213338       0.41664687
C        0.73390337       0.52337342      -0.68278001
C        1.15573843      -0.88223719      -0.34988351
C        2.50041273      -0.87152067       0.33777729
O        2.95745664       0.04256119       0.96487902
H       -2.66946139       0.31378579       0.93996971
H       -1.64130765      -1.04215558       0.51196014
H       -2.84882434      -0.46151852      -0.63553512
H       -1.58151617       1.71062673      -0.90847590
H        0.26742946       2.29871692       0.45841348
H        0.05608692       0.76876841       1.40468791
H       -0.55409085       0.43224236      -1.46272168
H        1.23891516      -1.51414337      -1.23898719
H        0.49439042      -1.41877796       0.35181802
H        3.07532195      -1.81654989       0.23755118
17
Frame=4 idx=010117 GeodesicLength=0.28232557231406996 rxn_smarts="[C:1]([C@@:2]1([H:11])[C:3]([H:12])([H:13])[C@:4]1([C:5]([C:6](=[O:7])[H:17])([H:15])[H:16])[H:14])([H:8])([H:9])[H:10]>>[C:1]([C:2]([C:3]([C:4][C:5]([C:6](=[O:7])[H:17])([H:15])[H:16])([H:12])[H:13])([H:11])[H:14])([H:8])([H:9])[H:10]"
C       -2.13271748      -0.14037948       0.11373188
C       -1.13055131       0.83662723      -0.46074735
C        0.05725446       1.22235253       0.41393573
C        0.71787458       0.49768065      -0.68267371
C        1.16363203      -0.89626998      -0.34273169
C        2.50911086      -0.86539566       0.34181126
O        2.94621053       0.04483633       0.98873776
H       -2.67340446       0.31614455       0.94532698
H       -1.65613805      -1.04197154       0.50118001
H       -2.86631185      -0.44521473      -0.63451393
H       -1.59112599       1.72333306      -0.89188972
H        0.29243313       2.28430547       0.43998368
H        0.05392511       0.76797459       1.40583300
H       -0.55675902       0.45204309      -1.48551359
H        1.24915459      -1.53303921      -1.22831659
H        0.50542604      -1.43322407       0.36096739
H        3.11198683      -1.78980283       0.21487888
17
Frame=5 idx=010117 GeodesicLength=0.35298560814425456 rxn_smarts="[C:1]([C@@:2]1([H:11])[C:3]([H:12])([H:13])[C@:4]1([C:5]([C:6](=[O:7])[H:17])([H:15])[H:16])[H:14])([H:8])([H:9])[H:10]>>[C:1]([C:2]([C:3]([C:4][C:5]([C:6](=[O:7])[H:17])([H:15])[H:16])([H:12])[H:13])([H:11])[H:14])([H:8])([H:9])[H:10]"
C       -2.14356744      -0.13366222       0.11201216
C       -1.13862945       0.84174053      -0.46077847
C        0.05433922       1.21210032       0.41121276
C        0.70090224       0.47067124      -0.68230760
C        1.17149116      -0.91080266      -0.33512265
C        2.51781799      -0.85878860       0.34552445
O        2.93513808       0.04717700       1.01153437
H       -2.67759528       0.31848136       0.95046731
H       -1.67158850      -1.04171955       0.49002603
H       -2.88390237      -0.42840015      -0.63382229
H       -1.60024624       1.73618516      -0.87488343
H        0.31791475       2.26833941       0.42124171
H        0.05173202       0.76693810       1.40698032
H       -0.55841233       0.47327509      -1.50808085
H        1.25937215      -1.55274729      -1.21691392
H        0.51687560      -1.44813028       0.37101495
H        3.14835840      -1.76065747       0.19189516
17
Frame=6 idx=010117 GeodesicLength=0.4237020941261627 rxn_smarts="[C:1]([C@@:2]1([H:11])[C:3]([H:12])([H:13])[C@:4]1([C:5]([C:6](=[O:7])[H:17])([H:15])[H:16])[H:14])([H:8])([H:9])[H:10]>>[C:1]([C:2]([C:3]([C:4][C:5]([C:6](=[O:7])[H:17])([H:15])[H:16])([H:12])[H:13])([H:11])[H:14])([H:8])([H:9])[H:10]"
C       -2.15473629      -0.12676905       0.11009041
C       -1.14675802       0.84694788      -0.46065594
C        0.05148317       1.20132902       0.40849136
C        0.68290624       0.44227301      -0.68162350
C        1.17932492      -0.92582780      -0.32705904
C        2.52652048      -0.85163871       0.34884947
O        2.92428011       0.04967429       1.03319851
H       -2.68207250       0.32084876       0.95537056
H       -1.68772386      -1.04137381       0.47853158
H       -2.90160879      -0.41104757      -0.63346696
H       -1.60881744       1.74914191      -0.85750211
H        0.34385233       2.25070881       0.40217860
H        0.04950075       0.76562648       1.40814344
H       -0.55882223       0.49593054      -1.53028707
H        1.26961429      -1.57324968      -1.20477709
H        0.52879350      -1.46351807       0.38196804
H        3.18426333      -1.72905602       0.16854973
17
Frame=7 idx=010117 GeodesicLength=0.4944905404603933 rxn_smarts="[C:1]([C@@:2]1([H:11])[C:3]([H:12])([H:13])[C@:4]1([C:5]([C:6](=[O:7])[H:17])([H:15])[H:16])[H:14])([H:8])([H:9])[H:10]>>[C:1]([C:2]([C:3]([C:4][C:5]([C:6](=[O:7])[H:17])([H:15])[H:16])([H:12])[H:13])([H:11])[H:14])([H:8])([H:9])[H:10]"
C       -2.16626166      -0.11967022       0.10797523
C       -1.15491657       0.85221078      -0.46038161
C        0.04866926       1.18998737       0.40579312
C        0.66380899       0.41241931      -0.68054527
C        1.18714406      -0.94132686      -0.31854577
C        2.53520108      -0.84387920       0.35171107
O        2.91367152       0.05241010       1.05367547
H       -2.68689199       0.32332942       0.96000360
H       -1.70462314      -1.04089342       0.46675825
H       -2.91944153      -0.39313354      -0.63345575
H       -1.61676502       1.76214688      -0.83982282
H        0.37020965       2.23129687       0.38280144
H        0.04721627       0.76400355       1.40934301
H       -0.55772114       0.51994720      -1.55196612
H        1.27992897      -1.59450847      -1.19191171
H        0.54124221      -1.47940581       0.39382841
H        3.21952905      -1.69493395       0.14473945
17
Frame=8 idx=010117 GeodesicLength=0.5653754231826588 rxn_smarts="[C:1]([C@@:2]1([H:11])[C:3]([H:12])([H:13])[C@:4]1([C:5]([C:6](=[O:7])[H:17])([H:15])[H:16])[H:14])([H:8])([H:9])[H:10]>>[C:1]([C:2]([C:3]([C:4][C:5]([C:6](=[O:7])[H:17])([H:15])[H:16])([H:12])[H:13])([H:11])[H:14])([H:8])([H:9])[H:10]"
C       -2.17818601      -0.11232830       0.10568299
C       -1.16307999       0.85748065      -0.45996289
C        0.04587355       1.17802046       0.40314799
C        0.64353780       0.38105609      -0.67898425
C        1.19496582      -0.95726586      -0.30960461
C        2.54383834      -0.83543641       0.35402438
O        2.90334474       0.05546970       1.07290670
H       -2.69211342       0.32602956       0.96433737
H       -1.72237646      -1.04023042       0.45478680
H       -2.93741775      -0.37462739      -0.63378718
H       -1.62400477       1.77513288      -0.82195199
H        0.39693212       2.20998138       0.36313702
H        0.04485915       0.76202366       1.41060525
H       -0.55480740       0.54519884      -1.57292940
H        1.29038053      -1.61645323      -1.17835209
H        0.55429491      -1.49581185       0.40656985
H        3.25395884      -1.65823976       0.12037406
17
Frame=9 idx=010117 GeodesicLength=0.6363823984820015 rxn_smarts="[C:1]([C@@:2]1([H:11])[C:3]([H:12])([H:13])[C@:4]1([C:5]([C:6](=[O:7])[H:17])([H:15])[H:16])[H:14])([H:8])([H:9])[H:10]>>[C:1]([C:2]([C:3]([C:4][C:5]([C:6](=[O:7])[H:17])([H:15])[H:16])([H:12])[H:13])([H:11])[H:14])([H:8])([H:9])[H:10]"
C       -2.19056089      -0.10468754       0.10323282
C       -1.17121176       0.86269470      -0.45941607
C        0.04306347       1.16536881       0.40060046
C        0.62203403       0.34813365      -0.67682146
C        1.20280399      -0.97360612      -0.30024884
C        2.55239138      -0.82625197       0.35573140
O        2.89331484       0.05890534       1.09087960
H       -2.69781840       0.32910812       0.96832266
H       -1.74109742      -1.03931202       0.44273812
H       -2.95555232      -0.35549508      -0.63446444
H       -1.63042644       1.78801364      -0.80405012
H        0.42395049       2.18663510       0.34324041
H        0.04239384       0.75963714       1.41197031
H       -0.54973907       0.57145811      -1.59295925
H        1.30103166      -1.63899567      -1.16413382
H        0.56801995      -1.51275851       0.42016244
H        3.28740263      -1.61884770       0.09521579
17
Frame=10 idx=010117 GeodesicLength=0.7075408757080588 rxn_smarts="[C:1]([C@@:2]1([H:11])[C:3]([H:12])([H:13])[C@:4]1([C:5]([C:6](=[O:7])[H:17])([H:15])[H:16])[H:14])([H:8])([H:9])[H:10]>>[C:1]([C:2]([C:3]([C:4][C:5]([C:6](=[O:7])[H:17])([H:15])[H:16])([H:12])[H:13])([H:11])[H:14])([H:8])([H:9])[H:10]"
C       -2.20342756      -0.09670259       0.10066003
C       -1.17927612       0.86778381      -0.45875684
C        0.04019612       1.15198260       0.39820502
C        0.59925308       0.31366128      -0.67394439
C        1.21069350      -0.99025384      -0.29055948
C        2.56084484      -0.81621946       0.35668593
O        2.88363289       0.06280390       1.10750578
H       -2.70407680       0.33271497       0.97193388
H       -1.76087858      -1.03807438       0.43074862
H       -2.97385503      -0.33571978      -0.63546855
H       -1.63593481       1.80069626      -0.78628887
H        0.45114739       2.16115329       0.32320861
H        0.03979766       0.75677965       1.41347867
H       -0.54216802       0.59843087      -1.61182816
H        1.31196927      -1.66196104      -1.14938536
H        0.58252932      -1.53024322       0.43450192
H        3.31955285      -1.57683232       0.06930319
17
Frame=11 idx=010117 GeodesicLength=0.7788850144922582 rxn_smarts="[C:1]([C@@:2]1([H:11])[C:3]([H:12])([H:13])[C@:4]1([C:5]([C:6](=[O:7])[H:17])([H:15])[H:16])[H:14])([H:8])([H:9])[H:10]>>[C:1]([C:2]([C:3]([C:4][C:5]([C:6](=[O:7])[H:17])([H:15])[H:16])([H:12])[H:13])([H:11])[H:14])([H:8])([H:9])[H:10]"
C       -2.21683285      -0.08830860       0.09800205
C       -1.18722446       0.87266474      -0.45801245
C        0.03722024       1.13781232       0.39603308
C        0.57517881       0.27766115      -0.67020969
C        1.21866416      -1.00711010      -0.28060940
C        2.56915895      -0.80526012       0.35678626
O        2.87432870       0.06720588       1.12275816
H       -2.71097241       0.33705240       0.97512992
H       -1.78183274      -1.03643047       0.41898970
H       -2.99233566      -0.31527526      -0.63678324
H       -1.64041128       1.81307183      -0.76889798
H        0.47839064       2.13343971       0.30317588
H        0.03702948       0.75338500       1.41518710
H       -0.53172935       0.62569270      -1.62929626
H        1.32327392      -1.68515222      -1.13424249
H        0.59792407      -1.54826657       0.44947477
H        3.35016980      -1.53218239       0.04251459
17
Frame=12 idx=010117 GeodesicLength=0.8504446141645534 rxn_smarts="[C:1]([C@@:2]1([H:11])[C:3]([H:12])([H:13])[C@:4]1([C:5]([C:6](=[O:7])[H:17])([H:15])[H:16])[H:14])([H:8])([H:9])[H:10]>>[C:1]([C:2]([C:3]([C:4][C:5]([C:6](=[O:7])[H:17])([H:15])[H:16])([H:12])[H:13])([H:11])[H:14])([H:8])([H:9])[H:10]"
C       -2.23081372      -0.07943438       0.09530013
C       -1.19499791       0.87724758      -0.45721437
C        0.03407401       1.12282673       0.39417245
C        0.54982636       0.24019270      -0.66545333
C        1.22674222      -1.02405492      -0.27048134
C        2.57728068      -0.79329928       0.35593459
O        2.86541811       0.07209168       1.13667301
H       -2.71860246       0.34236249       0.97785041
H       -1.80406185      -1.03427620       0.40768036
H       -3.01097505      -0.29416483      -0.63840220
H       -1.64373116       1.82502087      -0.75215305
H        0.50551668       2.10343770       0.28331828
H        0.03403826       0.74939784       1.41716825
H       -0.51806913       0.65270570      -1.64512218
H        1.33501036      -1.70833727      -1.11886927
H        0.61430831      -1.56681990       0.46494831
H        3.37903631      -1.48489649       0.01464996
17
Frame=13 idx=010117 GeodesicLength=0.9222600450916059 rxn_smarts="[C:1]([C@@:2]1([H:11])[C:3]([H:12])([H:13])[C@:4]1([C:5]([C:6](=[O:7])[H:17])([H:15])[H:16])[H:14])([H:8])([H:9])[H:10]>>[C:1]([C:2]([C:3]([C:4][C:5]([C:6](=[O:7])[H:17])([H:15])[H:16])([H:12])[H:13])([H:11])[H:14])([H:8])([H:9])[H:10]"
C       -2.24539494      -0.07000619       0.09260763
C       -1.20252982       0.88143156      -0.45640275
C        0.03070232       1.10699650       0.39271200
C        0.52324816       0.20134693      -0.65951546
C        1.23495828      -1.04094915      -0.26029558
C        2.58514530      -0.78028664       0.35405457
O        2.85691196       0.07743167       1.14927755
H       -2.72702060       0.34887987       0.98007194
H       -1.82766043      -1.03151267       0.39702419
H       -3.02977388      -0.27236031      -0.64028217
H       -1.64577160       1.83641884      -0.73633973
H        0.53235860       2.07110547       0.26383628
H        0.03078159       0.74475146       1.41948798
H       -0.50087346       0.67882793      -1.65909489
H        1.34726006      -1.73122531      -1.10349522
H        0.63177566      -1.58589311       0.48071777
H        3.40588281      -1.43495684      -0.01436412
17
Frame=14 idx=010117 GeodesicLength=0.9943780439271526 rxn_smarts="[C:1]([C@@:2]1([H:11])[C:3]([H:12])([H:13])[C@:4]1([C:5]([C:6](=[O:7])[H:17])([H:15])[H:16])[H:14])([H:8])([H:9])[H:10]>>[C:1]([C:2]([C:3]([C:4][C:5]([C:6](=[O:7])[H:17])([H:15])[H:16])([H:12])[H:13])([H:11])[H:14])([H:8])([H:9])[H:10]"
C       -2.26058629      -0.05994409       0.08996459
C       -1.20974203       0.88511844      -0.45562266
C        0.02704744       1.09031649       0.39175673
C        0.49553158       0.16122850      -0.65221407
C        1.24332544      -1.05766873      -0.25014144
C        2.59266745      -0.76621923       0.35113352
O        2.84880480       0.08310284       1.16070803
H       -2.73628972       0.35687094       0.98174076
H       -1.85270717      -1.02803024       0.38724775
H       -3.04869727      -0.24985678      -0.64241688
H       -1.64640503       1.84714674      -0.72177597
H        0.55874533       2.03645079       0.24496347
H        0.02720339       0.73940758       1.42223847
H       -0.47987306       0.70333157      -1.67103061
H        1.36006226      -1.75355027      -1.08832896
H        0.65039947      -1.60548196       0.49661037
H        3.43051343      -1.38222259      -0.04483310
17
Frame=15 idx=010117 GeodesicLength=1.0668196070987952 rxn_smarts="[C:1]([C@@:2]1([H:11])[C:3]([H:12])([H:13])[C@:4]1([C:5]([C:6](=[O:7])[H:17])([H:15])[H:16])[H:14])([H:8])([H:9])[H:10]>>[C:1]([C:2]([C:3]([C:4][C:5]([C:6](=[O:7])[H:17])([H:15])[H:16])([H:12])[H:13])([H:11])[H:14])([H:8])([H:9])[H:10]"
C       -2.27635406      -0.04919900       0.08741272
C       -1.21655447       0.88821516      -0.45490605
C        0.02305889       1.07281751       0.39140569
C        0.46679480       0.12000097      -0.64338674
C        1.25184613      -1.07404880      -0.24014760
C        2.59975388      -0.75107144       0.34713033
O        2.84110953       0.08897510       1.17107445
H       -2.74643303       0.36655032       0.98280843
H       -1.87921245      -1.02373744       0.37856906
H       -3.06766139      -0.22670527      -0.64479694
H       -1.64553745       1.85708375      -0.70874316
H        0.58449116       1.99955109       0.22694283
H        0.02327163       0.73335359       1.42549856
H       -0.45488818       0.72548926      -1.68077821
H        1.37342430      -1.77499040      -1.07363222
H        0.67024821      -1.62554646       0.51240240
H        3.45264250      -1.32673795      -0.07685356
17
Frame=16 idx=010117 GeodesicLength=1.1396304777904036 rxn_smarts="[C:1]([C@@:2]1([H:11])[C:3]([H:12])([H:13])[C@:4]1([C:5]([C:6](=[O:7])[H:17])([H:15])[H:16])[H:14])([H:8])([H:9])[H:10]>>[C:1]([C:2]([C:3]([C:4][C:5]([C:6](=[O:7])[H:17])([H:15])[H:16])([H:12])[H:13])([H:11])[H:14])([H:8])([H:9])[H:10]"
C       -2.29264550      -0.03771375       0.08498817
C       -1.22287532       0.89062632      -0.45429866
C        0.01871418       1.05453568       0.39174295
C        0.43719387       0.07780884      -0.63287941
C        1.26050433      -1.08997784      -0.23041374
C        2.60628908      -0.73494223       0.34213658
O        2.83380157       0.09482099       1.18058954
H       -2.75741573       0.37812474       0.98325267
H       -1.90717403      -1.01854730       0.37116374
H       -3.08660168      -0.20290696      -0.64739743
H       -1.64306959       1.86611659      -0.69751769
H        0.60945122       1.96050062       0.20999143
H        0.01896572       0.72659798       1.42934299
H       -0.42581343       0.74452890      -1.68825054
H        1.38734070      -1.79526676      -1.05965401
H        0.69132654      -1.64608574       0.52786696
H        3.47200806      -1.26822008      -0.11066355
