14
Frame=0 idx=000821 GeodesicLength=0.0 rxn_smarts="[C:1]1([H:7])([H:8])[C@@:2]2([H:9])[C:3]([H:10])([H:11])[C:4]([H:12])=[C:5]([H:13])[C@@:6]12[H:14]>>[C:1]([C:2]1([H:9])[C:3]([H:11])=[C:4]([H:12])[C:5]([H:13])=[C:6]1[H:14])([H:7])([H:8])[H:10]"
C       -1.32414600       0.96254546      -0.04238874
C       -0.29639668       0.27220100      -0.88879689
C        0.92977213       0.68945100      -0.09203450
C        1.47651449      -0.46296795       0.53157184
C        0.53682946      -1.48264746       0.47768294
C       -0.54844618      -1.05007636      -0.25696895
H       -1.24127955       2.03533952       0.09306810
H       -2.34704511       0.59924775      -0.05018381
H       -0.26730528       0.33594405      -1.98124333
H        0.09181768       1.00977487       0.80306032
H        1.51431161       1.55972765      -0.36989273
H        2.35326497      -0.45735896       1.16591750
H        0.58546129      -2.40887632       1.03365426
H       -1.46335281      -1.60230419      -0.42344599
14
Frame=1 idx=000821 GeodesicLength=0.06265100861826767 rxn_smarts="[C:1]1([H:7])([H:8])[C@@:2]2([H:9])[C:3]([H:10])([H:11])[C:4]([H:12])=[C:5]([H:13])[C@@:6]12[H:14]>>[C:1]([C:2]1([H:9])[C:3]([H:11])=[C:4]([H:12])[C:5]([H:13])=[C:6]1[H:14])([H:7])([H:8])[H:10]"
C       -1.32662400       0.95208182      -0.03477489
C       -0.29113893       0.27559500      -0.88343705
C        0.93692611       0.69146567      -0.08932259
C        1.47944857      -0.46504039       0.53064675
C        0.53368020      -1.48024579       0.48241164
C       -0.55456691      -1.04407318      -0.24925038
H       -1.25909500       2.02568960       0.10314038
H       -2.35248445       0.59790953      -0.06901562
H       -0.27015471       0.34212988      -1.97507695
H        0.08878332       1.03414709       0.81126482
H        1.53067592       1.54942287      -0.38531522
H        2.36317338      -0.46683854       1.15530013
H        0.57973599      -2.40499499       1.04122925
H       -1.45835949      -1.60724857      -0.43780026
14
Frame=2 idx=000821 GeodesicLength=0.1252709233823337 rxn_smarts="[C:1]1([H:7])([H:8])[C@@:2]2([H:9])[C:3]([H:10])([H:11])[C:4]([H:12])=[C:5]([H:13])[C@@:6]12[H:14]>>[C:1]([C:2]1([H:9])[C:3]([H:11])=[C:4]([H:12])[C:5]([H:13])=[C:6]1[H:14])([H:7])([H:8])[H:10]"
C       -1.32905039       0.94169492      -0.02721763
C       -0.28598927       0.27894983      -0.87802010
C        0.94406050       0.69342303      -0.08663078
C        1.48222472      -0.46710869       0.52986128
C        0.53047206      -1.47782200       0.48715698
C       -0.56063329      -1.03820700      -0.24176717
H       -1.27691535       2.01595588       0.11273759
H       -2.35719131       0.59667387      -0.08690488
H       -0.27301905       0.34841717      -1.96879065
H        0.08527129       1.05911546       0.81898426
H        1.54686015       1.53852001      -0.40076413
H        2.37247905      -0.47624200       1.14514361
H        0.57433043      -2.40144495       1.04815844
H       -1.45289954      -1.61192554      -0.45194682
14
Frame=3 idx=000821 GeodesicLength=0.1878337797906287 rxn_smarts="[C:1]1([H:7])([H:8])[C@@:2]2([H:9])[C:3]([H:10])([H:11])[C:4]([H:12])=[C:5]([H:13])[C@@:6]12[H:14]>>[C:1]([C:2]1([H:9])[C:3]([H:11])=[C:4]([H:12])[C:5]([H:13])=[C:6]1[H:14])([H:7])([H:8])[H:10]"
C       -1.33140751       0.93135738      -0.01970550
C       -0.28092659       0.28230581      -0.87256183
C        0.95118354       0.69533334      -0.08397880
C        1.48489066      -0.46921734       0.52910485
C        0.52724966      -1.47542325       0.49182873
C       -0.56658932      -1.03250391      -0.23461716
H       -1.29475730       2.00610900       0.12193748
H       -2.36119155       0.59543635      -0.10380638
H       -0.27588748       0.35492300      -1.96238151
H        0.08126999       1.08462934       0.82618655
H        1.56285377       1.52705509      -0.41620136
H        2.38122755      -0.48562206       1.13536218
H        0.56902898      -2.39803783       1.05479425
H       -1.44694438      -1.61634492      -0.46596150
14
Frame=4 idx=000821 GeodesicLength=0.25041592757739767 rxn_smarts="[C:1]1([H:7])([H:8])[C@@:2]2([H:9])[C:3]([H:10])([H:11])[C:4]([H:12])=[C:5]([H:13])[C@@:6]12[H:14]>>[C:1]([C:2]1([H:9])[C:3]([H:11])=[C:4]([H:12])[C:5]([H:13])=[C:6]1[H:14])([H:7])([H:8])[H:10]"
C       -1.33370379       0.92106026      -0.01222902
C       -0.27593892       0.28567029      -0.86708339
C        0.95833000       0.69719174      -0.08136051
C        1.48749230      -0.47137837       0.52836006
C        0.52402591      -1.47305120       0.49641855
C       -0.57243177      -1.02696637      -0.22783711
H       -1.31262679       1.99613118       0.13078823
H       -2.36457865       0.59416210      -0.11976199
H       -0.27874615       0.36166651      -1.95589152
H        0.07677123       1.11068491       0.83287320
H        1.57866320       1.51505418      -0.43157796
H        2.38952526      -0.49500352       1.12591204
H        0.56378047      -2.39471916       1.06123204
H       -1.44056232      -1.62050255      -0.47984261
14
Frame=5 idx=000821 GeodesicLength=0.31299190253219905 rxn_smarts="[C:1]1([H:7])([H:8])[C@@:2]2([H:9])[C:3]([H:10])([H:11])[C:4]([H:12])=[C:5]([H:13])[C@@:6]12[H:14]>>[C:1]([C:2]1([H:9])[C:3]([H:11])=[C:4]([H:12])[C:5]([H:13])=[C:6]1[H:14])([H:7])([H:8])[H:10]"
C       -1.33591634       0.91080515      -0.00478733
C       -0.27101067       0.28904858      -0.86158275
C        0.96550626       0.69899455      -0.07877750
C        1.49003907      -0.47360493       0.52759694
C        0.52080627      -1.47071156       0.50091189
C       -0.57814491      -1.02159680      -0.22144124
H       -1.33050467       1.98601966       0.13930486
H       -2.36737980       0.59281713      -0.13477906
H       -0.28158108       0.36865787      -1.94930926
H        0.07176000       1.13728757       0.83901123
H        1.59426529       1.50253790      -0.44685707
H        2.39738224      -0.50439249       1.11677559
H        0.55855957      -2.39146901       1.06749864
H       -1.43378122      -1.62439362      -0.49356493
14
Frame=6 idx=000821 GeodesicLength=0.37556152006387494 rxn_smarts="[C:1]1([H:7])([H:8])[C@@:2]2([H:9])[C:3]([H:10])([H:11])[C:4]([H:12])=[C:5]([H:13])[C@@:6]12[H:14]>>[C:1]([C:2]1([H:9])[C:3]([H:11])=[C:4]([H:12])[C:5]([H:13])=[C:6]1[H:14])([H:7])([H:8])[H:10]"
C       -1.33803071       0.90060005       0.00262107
C       -0.26613093       0.29244301      -0.85605956
C        0.97272527       0.70073612      -0.07623218
C        1.49254751      -0.47590934       0.52679662
C        0.51759566      -1.46840767       0.50530770
C       -0.58372492      -1.01639299      -0.21542738
H       -1.34837475       1.97577890       0.14749322
H       -2.36963632       0.59138261      -0.14887278
H       -0.28438358       0.37589536      -1.94263306
H        0.06622310       1.16444928       0.84457018
H        1.60964858       1.48952686      -0.46200967
H        2.40481140      -0.51378626       1.10796709
H        0.55337746      -2.38830311       1.07357323
H       -1.42664777      -1.62801281      -0.50709447
14
Frame=7 idx=000821 GeodesicLength=0.43812590496889514 rxn_smarts="[C:1]1([H:7])([H:8])[C@@:2]2([H:9])[C:3]([H:10])([H:11])[C:4]([H:12])=[C:5]([H:13])[C@@:6]12[H:14]>>[C:1]([C:2]1([H:9])[C:3]([H:11])=[C:4]([H:12])[C:5]([H:13])=[C:6]1[H:14])([H:7])([H:8])[H:10]"
C       -1.34003359       0.89045013       0.01000077
C       -0.26128886       0.29585667      -0.85051301
C        0.98000023       0.70241026      -0.07372568
C        1.49503589      -0.47830609       0.52593605
C        0.51440149      -1.46614554       0.50959929
C       -0.58916741      -1.01135257      -0.20979456
H       -1.36622312       1.96540982       0.15536485
H       -2.37138700       0.58983889      -0.16206093
H       -0.28714560       0.38338075      -1.93586071
H        0.06014574       1.19217796       0.84952144
H        1.62480116       1.47604798      -0.47700275
H        2.41183557      -0.52318936       1.09948497
H        0.54822928      -2.38521963       1.07946373
H       -1.41920378      -1.63135926      -0.52041345
14
Frame=8 idx=000821 GeodesicLength=0.5006862103885693 rxn_smarts="[C:1]1([H:7])([H:8])[C@@:2]2([H:9])[C:3]([H:10])([H:11])[C:4]([H:12])=[C:5]([H:13])[C@@:6]12[H:14]>>[C:1]([C:2]1([H:9])[C:3]([H:11])=[C:4]([H:12])[C:5]([H:13])=[C:6]1[H:14])([H:7])([H:8])[H:10]"
C       -1.34191259       0.88036257       0.01735701
C       -0.25647463       0.29929130      -0.84493989
C        0.98734360       0.70401018      -0.07125764
C        1.49752092      -0.48080954       0.52499520
C        0.51123005      -1.46393075       0.51378335
C       -0.59447098      -1.00647115      -0.20453409
H       -1.38403580       1.95491590       0.16292696
H       -2.37266801       0.58817145      -0.17436377
H       -0.28985965       0.39111111      -1.92898771
H        0.05351071       1.22048351       0.85383545
H        1.63971166       1.46213054      -0.49180440
H        2.41847748      -0.53260670       1.09132810
H        0.54311755      -2.38222477       1.08516690
H       -1.41149032      -1.63443365      -0.53350544
14
Frame=9 idx=000821 GeodesicLength=0.5632436370911315 rxn_smarts="[C:1]1([H:7])([H:8])[C@@:2]2([H:9])[C:3]([H:10])([H:11])[C:4]([H:12])=[C:5]([H:13])[C@@:6]12[H:14]>>[C:1]([C:2]1([H:9])[C:3]([H:11])=[C:4]([H:12])[C:5]([H:13])=[C:6]1[H:14])([H:7])([H:8])[H:10]"
C       -1.34365629       0.87034343       0.02469650
C       -0.25167847       0.30274892      -0.83933596
C        0.99476742       0.70552868      -0.06882603
C        1.50001934      -0.48343538       0.52395245
C        0.50808839      -1.46177038       0.51785415
C       -0.59963433      -1.00174390      -0.19963671
H       -1.40180043       1.94429912       0.17018894
H       -2.37351253       0.58636571      -0.18580199
H       -0.29251813       0.39908504      -1.92200829
H        0.04629789       1.24937344       0.85748338
H        1.65436910       1.44780798      -0.50638163
H        2.42476515      -0.54204873       1.08348424
H        0.53803607      -2.37931512       1.09069542
H       -1.40354317      -1.63723882      -0.54636446
14
Frame=10 idx=000821 GeodesicLength=0.6258062252342806 rxn_smarts="[C:1]1([H:7])([H:8])[C@@:2]2([H:9])[C:3]([H:10])([H:11])[C:4]([H:12])=[C:5]([H:13])[C@@:6]12[H:14]>>[C:1]([C:2]1([H:9])[C:3]([H:11])=[C:4]([H:12])[C:5]([H:13])=[C:6]1[H:14])([H:7])([H:8])[H:10]"
C       -1.34525731       0.86040765       0.03202502
C       -0.24689373       0.30622813      -0.83369417
C        1.00228372       0.70695777      -0.06642661
C        1.50254738      -0.48619823       0.52279742
C        0.50498161      -1.45966933       0.52181811
C       -0.60466274      -0.99716298      -0.19507936
H       -1.41950684       1.93357408       0.17714662
H       -2.37395616       0.58441897      -0.19639907
H       -0.29511703       0.40728837      -1.91491623
H        0.03848459       1.27886570       0.86043453
H        1.66876650       1.43310990      -0.52070788
H        2.43072314      -0.55152099       1.07596097
H        0.53301002      -2.37652152       1.09601456
H       -1.39540317      -1.63977751      -0.55897391
14
Frame=11 idx=000821 GeodesicLength=0.6883509206770931 rxn_smarts="[C:1]1([H:7])([H:8])[C@@:2]2([H:9])[C:3]([H:10])([H:11])[C:4]([H:12])=[C:5]([H:13])[C@@:6]12[H:14]>>[C:1]([C:2]1([H:9])[C:3]([H:11])=[C:4]([H:12])[C:5]([H:13])=[C:6]1[H:14])([H:7])([H:8])[H:10]"
C       -1.34669561       0.85055540       0.03935089
C       -0.24210820       0.30973102      -0.82800543
C        1.00990060       0.70828863      -0.06406131
C        1.50510987      -0.48911087       0.52150404
C        0.50191062      -1.45763151       0.52566741
C       -0.60955402      -0.99272016      -0.19084414
H       -1.43713060       1.92273068       0.18380930
H       -2.37401337       0.58231269      -0.20616397
H       -0.29764493       0.41572250      -1.90769556
H        0.03004750       1.30896001       0.86264600
H        1.68289217       1.41807409      -0.53475758
H        2.43635421      -0.56102523       1.06875000
H        0.52802784      -2.37384009       1.10112832
H       -1.38709607      -1.64204715      -0.57132797
14
Frame=12 idx=000821 GeodesicLength=0.7509159739674572 rxn_smarts="[C:1]1([H:7])([H:8])[C@@:2]2([H:9])[C:3]([H:10])([H:11])[C:4]([H:12])=[C:5]([H:13])[C@@:6]12[H:14]>>[C:1]([C:2]1([H:9])[C:3]([H:11])=[C:4]([H:12])[C:5]([H:13])=[C:6]1[H:14])([H:7])([H:8])[H:10]"
C       -1.34797560       0.84074886       0.04670718
C       -0.23730653       0.31328439      -0.82227391
C        1.01763676       0.70951650      -0.06170746
C        1.50775311      -0.49221741       0.51999905
C        0.49891390      -1.45569766       0.52932074
C       -0.61427654      -0.98842851      -0.18700892
H       -1.45470971       1.91172049       0.19027420
H       -2.37371675       0.57998625      -0.21513648
H       -0.30009379       0.42447416      -1.90034731
H        0.02094674       1.33961513       0.86413721
H        1.69674273       1.40275861      -0.54847031
H        2.44180521      -0.57067964       1.06163096
H        0.52286315      -2.37100272       1.10646158
H       -1.37858269      -1.64407844      -0.58358653
14
Frame=13 idx=000821 GeodesicLength=0.8134737404303327 rxn_smarts="[C:1]1([H:7])([H:8])[C@@:2]2([H:9])[C:3]([H:10])([H:11])[C:4]([H:12])=[C:5]([H:13])[C@@:6]12[H:14]>>[C:1]([C:2]1([H:9])[C:3]([H:11])=[C:4]([H:12])[C:5]([H:13])=[C:6]1[H:14])([H:7])([H:8])[H:10]"
C       -1.34907929       0.83105232       0.05407551
C       -0.23249005       0.31686098      -0.81647414
C        1.02549375       0.71062943      -0.05937047
C        1.51045925      -0.49550742       0.51832881
C        0.49596216      -1.45384070       0.53286493
C       -0.61887337      -0.98425700      -0.18344726
H       -1.47219009       1.90061574       0.19643521
H       -2.37308618       0.57749238      -0.22332197
H       -0.30245872       0.43343465      -1.89284761
H        0.01115692       1.37089426       0.86483028
H        1.71031135       1.38717795      -0.56185440
H        2.44698651      -0.58039873       1.05479501
H        0.51776598      -2.36830721       1.11156681
H       -1.36995824      -1.64584664      -0.59558071
14
Frame=14 idx=000821 GeodesicLength=0.8760344691258807 rxn_smarts="[C:1]1([H:7])([H:8])[C@@:2]2([H:9])[C:3]([H:10])([H:11])[C:4]([H:12])=[C:5]([H:13])[C@@:6]12[H:14]>>[C:1]([C:2]1([H:9])[C:3]([H:11])=[C:4]([H:12])[C:5]([H:13])=[C:6]1[H:14])([H:7])([H:8])[H:10]"
C       -1.35000419       0.82147696       0.06146572
C       -0.22765082       0.32046143      -0.81059754
C        1.03348465       0.71161637      -0.05704138
C        1.51324608      -0.49900044       0.51647642
C        0.49306283      -1.45206777       0.53629984
C       -0.62334784      -0.98019582      -0.18013900
H       -1.48956873       1.88942341       0.20229971
H       -2.37214962       0.57482694      -0.23074413
H       -0.30473180       0.44259663      -1.88518990
H        0.00063999       1.40280173       0.86469537
H        1.72359689       1.37137119      -0.57488507
H        2.45193509      -0.59020470       1.04821913
H        0.51273463      -2.36575369       1.11645671
H       -1.36124717      -1.64735225      -0.60731587
14
Frame=15 idx=000821 GeodesicLength=0.9385950857949285 rxn_smarts="[C:1]1([H:7])([H:8])[C@@:2]2([H:9])[C:3]([H:10])([H:11])[C:4]([H:12])=[C:5]([H:13])[C@@:6]12[H:14]>>[C:1]([C:2]1([H:9])[C:3]([H:11])=[C:4]([H:12])[C:5]([H:13])=[C:6]1[H:14])([H:7])([H:8])[H:10]"
C       -1.35074327       0.81203137       0.06888648
C       -0.22277885       0.32408878      -0.80463052
C        1.04161806       0.71246935      -0.05470771
C        1.51612378      -0.50271351       0.51442504
C        0.49021911      -1.45038468       0.53962539
C       -0.62770172      -0.97623456      -0.17706310
H       -1.50683936       1.87814746       0.20786733
H       -2.37092331       0.57197933      -0.23742418
H       -0.30690025       0.45195776      -1.87735827
H       -0.01064873       1.43533635       0.86370157
H        1.73659677       1.35538008      -0.58753601
H        2.45668517      -0.60012630       1.04185852
H        0.50775806      -2.36333577       1.12115170
H       -1.35246544      -1.64859567      -0.61879625
14
Frame=16 idx=000821 GeodesicLength=1.001155828875148 rxn_smarts="[C:1]1([H:7])([H:8])[C@@:2]2([H:9])[C:3]([H:10])([H:11])[C:4]([H:12])=[C:5]([H:13])[C@@:6]12[H:14]>>[C:1]([C:2]1([H:9])[C:3]([H:11])=[C:4]([H:12])[C:5]([H:13])=[C:6]1[H:14])([H:7])([H:8])[H:10]"
C       -1.35129208       0.80272492       0.07634656
C       -0.21786414       0.32774685      -0.79855902
C        1.04990378       0.71317986      -0.05235514
C        1.51910371      -0.50666469       0.51215858
C        0.48743469      -1.44879706       0.54284279
C       -0.63193669      -0.97236228      -0.17419912
H       -1.52399933       1.86679216       0.21313795
H       -2.36942429       0.56894013      -0.24338404
H       -0.30895041       0.46151622      -1.86933769
H       -0.02275941       1.46849441       0.86181977
H        1.74931171       1.33924679      -0.59978185
H        2.46127551      -0.61019779       1.03566125
H        0.50282368      -2.36104341       1.12567887
H       -1.34362673      -1.64957610      -0.63002890
