14
Frame=0 idx=011725 GeodesicLength=0.0 rxn_smarts="[C:1]([c:2]1[c:3]([H:11])[o:4][c:5]([H:12])[c:6]1[N:7]([H:13])[H:14])([H:8])([H:9])[H:10]>>[C:1]([C:2]1=[C:3]([H:11])[O+:4]=[C-:5][C@@:6]1([N:7]([H:13])[H:14])[H:12])([H:8])([H:9])[H:10]"
C       -1.66393340       0.26401466       0.52644736
C       -0.42528106      -0.40903046       0.04947925
C       -0.20836174      -1.68666320      -0.26266098
O        1.08903313      -1.91326234      -0.64177245
C        1.85025745      -0.79057232      -0.54244500
C        0.88459025       0.22828994      -0.17105474
N        1.24523217       1.46590142       0.38585761
H       -2.46641270      -0.45506919       0.68865401
H       -2.01742611       1.00535250      -0.19457288
H       -1.47486214       0.78594751       1.46705730
H       -0.86146558      -2.54614653      -0.28025662
H        1.08349187       0.17183742      -1.36666085
H        0.72566387       2.25153024       0.02632220
H        2.23947396       1.62787041       0.31560575
14
Frame=1 idx=011725 GeodesicLength=0.05262116390598043 rxn_smarts="[C:1]([c:2]1[c:3]([H:11])[o:4][c:5]([H:12])[c:6]1[N:7]([H:13])[H:14])([H:8])([H:9])[H:10]>>[C:1]([C:2]1=[C:3]([H:11])[O+:4]=[C-:5][C@@:6]1([N:7]([H:13])[H:14])[H:12])([H:8])([H:9])[H:10]"
C       -1.66506805       0.26253882       0.52832868
C       -0.42654972      -0.40814465       0.04740854
C       -0.20876960      -1.68766691      -0.25702866
O        1.08844944      -1.91345666      -0.64034153
C        1.84264443      -0.78734087      -0.55088851
C        0.88000805       0.23267490      -0.18097117
N        1.23887204       1.46650846       0.38772391
H       -2.46599302      -0.45770710       0.69318554
H       -2.02177737       1.00313407      -0.19187293
H       -1.47464415       0.78492146       1.46840305
H       -0.86068041      -2.54800637      -0.27222666
H        1.09909042       0.17592640      -1.38739402
H        0.73848561       2.25676445       0.01141905
H        2.23593233       1.61985401       0.34425473
14
Frame=2 idx=011725 GeodesicLength=0.10525702475811287 rxn_smarts="[C:1]([c:2]1[c:3]([H:11])[o:4][c:5]([H:12])[c:6]1[N:7]([H:13])[H:14])([H:8])([H:9])[H:10]>>[C:1]([C:2]1=[C:3]([H:11])[O+:4]=[C-:5][C@@:6]1([N:7]([H:13])[H:14])[H:12])([H:8])([H:9])[H:10]"
C       -1.66625662       0.26108632       0.53017197
C       -0.42784743      -0.40726048       0.04544124
C       -0.20914464      -1.68859840      -0.25135907
O        1.08779850      -1.91348078      -0.63923011
C        1.83490386      -0.78404069      -0.55949176
C        0.87528456       0.23711993      -0.19101756
N        1.23246564       1.46705094       0.38946123
H       -2.46559204      -0.46033019       0.69774671
H       -2.02619517       1.00083126      -0.18929908
H       -1.47452034       0.78404344       1.46964724
H       -0.85969921      -2.54991600      -0.26366355
H        1.11536459       0.18012593      -1.40817109
H        0.75186041       2.26184967      -0.00281005
H        2.23157790       1.61151903       0.37257387
14
Frame=3 idx=011725 GeodesicLength=0.15790511009735433 rxn_smarts="[C:1]([c:2]1[c:3]([H:11])[o:4][c:5]([H:12])[c:6]1[N:7]([H:13])[H:14])([H:8])([H:9])[H:10]>>[C:1]([C:2]1=[C:3]([H:11])[O+:4]=[C-:5][C@@:6]1([N:7]([H:13])[H:14])[H:12])([H:8])([H:9])[H:10]"
C       -1.66749414       0.25965243       0.53200910
C       -0.42916605      -0.40638359       0.04361532
C       -0.20946790      -1.68947171      -0.24557399
O        1.08709257      -1.91335267      -0.63836687
C        1.82703950      -0.78067848      -0.56821675
C        0.87041676       0.24162233      -0.20118333
N        1.22600767       1.46754673       0.39103935
H       -2.46519828      -0.46294534       0.70238656
H       -2.03068363       0.99842251      -0.18683198
H       -1.47448397       0.78332879       1.47081009
H       -0.85858504      -2.55181826      -0.25481253
H        1.13236019       0.18440053      -1.42895679
H        0.76574455       2.26677770      -0.01641330
H        2.22641777       1.60289903       0.40049511
14
Frame=4 idx=011725 GeodesicLength=0.21056188949371393 rxn_smarts="[C:1]([c:2]1[c:3]([H:11])[o:4][c:5]([H:12])[c:6]1[N:7]([H:13])[H:14])([H:8])([H:9])[H:10]>>[C:1]([C:2]1=[C:3]([H:11])[O+:4]=[C-:5][C@@:6]1([N:7]([H:13])[H:14])[H:12])([H:8])([H:9])[H:10]"
C       -1.66877102       0.25823015       0.53388730
C       -0.43049117      -0.40552370       0.04199065
C       -0.20970974      -1.69030760      -0.23955495
O        1.08635523      -1.91309801      -0.63763629
C        1.81906069      -0.77726547      -0.57700345
C        0.86540325       0.24617617      -0.21145037
N        1.21949028       1.46802417       0.39241428
H       -2.46479081      -0.46556285       0.70718452
H       -2.03524873       0.99586980      -0.18444767
H       -1.47452333       0.78280729       1.47191747
H       -0.85743976      -2.55362979      -0.24606075
H        1.15012525       0.18869125      -1.44970479
H        0.78008272       2.27153878      -0.02946472
H        2.22045714       1.59404982       0.42792878
14
Frame=5 idx=011725 GeodesicLength=0.26322766600784037 rxn_smarts="[C:1]([c:2]1[c:3]([H:11])[o:4][c:5]([H:12])[c:6]1[N:7]([H:13])[H:14])([H:8])([H:9])[H:10]>>[C:1]([C:2]1=[C:3]([H:11])[O+:4]=[C-:5][C@@:6]1([N:7]([H:13])[H:14])[H:12])([H:8])([H:9])[H:10]"
C       -1.67009679       0.25682340       0.53578559
C       -0.43183634      -0.40467126       0.04052522
C       -0.20989011      -1.69109009      -0.23337511
O        1.08555644      -1.91270321      -0.63712770
C        1.81094775      -0.77379576      -0.58590084
C        0.86023236       0.25078431      -0.22183713
N        1.21291641       1.46846567       0.39360666
H       -2.46438571      -0.46817621       0.71209362
H       -2.03989219       0.99320392      -0.18214270
H       -1.47464581       0.78244949       1.47296606
H       -0.85620179      -2.55540053      -0.23715679
H        1.16871219       0.19303944      -1.47040371
H        0.79486620       2.27612121      -0.04192767
H        2.21371741       1.58494961       0.45489451
14
Frame=6 idx=011725 GeodesicLength=0.3159023313434618 rxn_smarts="[C:1]([c:2]1[c:3]([H:11])[o:4][c:5]([H:12])[c:6]1[N:7]([H:13])[H:14])([H:8])([H:9])[H:10]>>[C:1]([C:2]1=[C:3]([H:11])[O+:4]=[C-:5][C@@:6]1([N:7]([H:13])[H:14])[H:12])([H:8])([H:9])[H:10]"
C       -1.67147673       0.25543303       0.53769974
C       -0.43320870      -0.40382114       0.03920192
C       -0.21001532      -1.69181284      -0.22705589
O        1.08467790      -1.91216381      -0.63688255
C        1.80268645      -0.77026612      -0.59493554
C        0.85489400       0.25544837      -0.23235394
N        1.20628606       1.46886489       0.39462034
H       -2.46398838      -0.47078448       0.71710306
H       -2.04462032       0.99043433      -0.17991104
H       -1.47485391       0.78224457       1.47395701
H       -0.85484874      -2.55714555      -0.22800806
H        1.18817383       0.19746343      -1.49102971
H        0.81007889       2.28051397      -0.05379553
H        2.20621497       1.57559135       0.48139019
14
Frame=7 idx=011725 GeodesicLength=0.368585024404096 rxn_smarts="[C:1]([c:2]1[c:3]([H:11])[o:4][c:5]([H:12])[c:6]1[N:7]([H:13])[H:14])([H:8])([H:9])[H:10]>>[C:1]([C:2]1=[C:3]([H:11])[O+:4]=[C-:5][C@@:6]1([N:7]([H:13])[H:14])[H:12])([H:8])([H:9])[H:10]"
C       -1.67291441       0.25405905       0.53963124
C       -0.43461247      -0.40297041       0.03801433
C       -0.21008602      -1.69247327      -0.22059810
O        1.08370526      -1.91147903      -0.63692433
C        1.79426393      -0.76667450      -0.60412784
C        0.84937884       0.26016898      -0.24300740
N        1.19959980       1.46921851       0.39545392
H       -2.46360017      -0.47338826       0.72221558
H       -2.04944071       0.98756146      -0.17774764
H       -1.47514885       0.78219058       1.47489188
H       -0.85337339      -2.55886647      -0.21858270
H        1.20856399       0.20197293      -1.51155104
H        0.82569827       2.28470454      -0.06506667
H        2.19796592       1.56597588       0.50739877
14
Frame=8 idx=011725 GeodesicLength=0.4212743041871502 rxn_smarts="[C:1]([c:2]1[c:3]([H:11])[o:4][c:5]([H:12])[c:6]1[N:7]([H:13])[H:14])([H:8])([H:9])[H:10]>>[C:1]([C:2]1=[C:3]([H:11])[O+:4]=[C-:5][C@@:6]1([N:7]([H:13])[H:14])[H:12])([H:8])([H:9])[H:10]"
C       -1.67440855       0.25269900       0.54159998
C       -0.43604509      -0.40212101       0.03697962
C       -0.21008987      -1.69307813      -0.21395615
O        1.08263872      -1.91065936      -0.63722257
C        1.78567423      -0.76302435      -0.61347198
C        0.84367944       0.26494380      -0.25379593
N        1.19285508       1.46953610       0.39608890
H       -2.46321177      -0.47599258       0.72746959
H       -2.05436503       0.98456820      -0.17564106
H       -1.47552537       0.78230186       1.47578065
H       -0.85181307      -2.56053275      -0.20901598
H        1.22993969       0.20655022      -1.53192254
H        0.84168833       2.28868133      -0.07577011
H        2.18898328       1.55612769       0.53287758
14
Frame=9 idx=011725 GeodesicLength=0.4739707974294148 rxn_smarts="[C:1]([c:2]1[c:3]([H:11])[o:4][c:5]([H:12])[c:6]1[N:7]([H:13])[H:14])([H:8])([H:9])[H:10]>>[C:1]([C:2]1=[C:3]([H:11])[O+:4]=[C-:5][C@@:6]1([N:7]([H:13])[H:14])[H:12])([H:8])([H:9])[H:10]"
C       -1.67595501       0.25134605       0.54363483
C       -0.43750807      -0.40127078       0.03610789
C       -0.21001989      -1.69362616      -0.20709377
O        1.08147993      -1.90971017      -0.63773183
C        1.77691216      -0.75931672      -0.62294966
C        0.83778591       0.26977189      -0.26472050
N        1.18603671       1.46983618       0.39649134
H       -2.46281233      -0.47860583       0.73290673
H       -2.05940003       0.98144277      -0.17355554
H       -1.47597008       0.78257216       1.47664516
H       -0.85021263      -2.56210841      -0.19946695
H        1.25237122       0.21116730      -1.55209196
H        0.85802927       2.29243123      -0.08598688
H        2.17926285       1.54607048       0.55781116
14
Frame=10 idx=011725 GeodesicLength=0.5266745600927204 rxn_smarts="[C:1]([c:2]1[c:3]([H:11])[o:4][c:5]([H:12])[c:6]1[N:7]([H:13])[H:14])([H:8])([H:9])[H:10]>>[C:1]([C:2]1=[C:3]([H:11])[O+:4]=[C-:5][C@@:6]1([N:7]([H:13])[H:14])[H:12])([H:8])([H:9])[H:10]"
C       -1.67757203       0.25001091       0.54568646
C       -0.43902113      -0.40040788       0.03533480
C       -0.20989844      -1.69410044      -0.20010788
O        1.08017510      -1.90861112      -0.63861912
C        1.76794090      -0.75553917      -0.63266960
C        0.83168326       0.27465961      -0.27580781
N        1.17916499       1.47007665       0.39671236
H       -2.46242553      -0.48121583       0.73845436
H       -2.06455819       0.97821804      -0.17152372
H       -1.47650277       0.78298685       1.47745365
H       -0.84845365      -2.56367402      -0.18949448
H        1.27591188       0.21590516      -1.57203600
H        0.87471115       2.29593846      -0.09559557
H        2.16884445       1.53575278       0.58221255
14
Frame=11 idx=011725 GeodesicLength=0.5793851963015709 rxn_smarts="[C:1]([c:2]1[c:3]([H:11])[o:4][c:5]([H:12])[c:6]1[N:7]([H:13])[H:14])([H:8])([H:9])[H:10]>>[C:1]([C:2]1=[C:3]([H:11])[O+:4]=[C-:5][C@@:6]1([N:7]([H:13])[H:14])[H:12])([H:8])([H:9])[H:10]"
C       -1.67925991       0.24869051       0.54776961
C       -0.44058772      -0.39953037       0.03466238
C       -0.20971773      -1.69450067      -0.19296865
O        1.07871504      -1.90736564      -0.63987368
C        1.75874688      -0.75169066      -0.64264185
C        0.82536060       0.27960709      -0.28706136
N        1.17223633       1.47026220       0.39673568
H       -2.46204397      -0.48382786       0.74414259
H       -2.06985217       0.97488138      -0.16953088
H       -1.47711752       0.78355070       1.47821291
H       -0.84655646      -2.56520691      -0.17917618
H        1.30063193       0.22075346      -1.59169443
H        0.89170431       2.29918802      -0.10462428
H        2.15774038       1.52518873       0.60604815
14
Frame=12 idx=011725 GeodesicLength=0.6321028593909602 rxn_smarts="[C:1]([c:2]1[c:3]([H:11])[o:4][c:5]([H:12])[c:6]1[N:7]([H:13])[H:14])([H:8])([H:9])[H:10]>>[C:1]([C:2]1=[C:3]([H:11])[O+:4]=[C-:5][C@@:6]1([N:7]([H:13])[H:14])[H:12])([H:8])([H:9])[H:10]"
C       -1.68101267       0.24737889       0.54992127
C       -0.44220612      -0.39864003       0.03411083
C       -0.20946254      -1.69483244      -0.18561794
O        1.07710939      -1.90598973      -0.64142030
C        1.74932593      -0.74777806      -0.65284295
C        0.81880867       0.28461047      -0.29847830
N        1.16523952       1.47041454       0.39652334
H       -2.46165050      -0.48645072       0.75003393
H       -2.07529528       0.97141174      -0.16754239
H       -1.47779723       0.78427269       1.47894751
H       -0.84459120      -2.56665550      -0.16876124
H        1.32661426       0.22566619      -1.61098954
H        0.90896213       2.30216679      -0.11314426
H        2.14595564       1.51442515       0.62926005
14
Frame=13 idx=011725 GeodesicLength=0.6848330313016996 rxn_smarts="[C:1]([c:2]1[c:3]([H:11])[o:4][c:5]([H:12])[c:6]1[N:7]([H:13])[H:14])([H:8])([H:9])[H:10]>>[C:1]([C:2]1=[C:3]([H:11])[O+:4]=[C-:5][C@@:6]1([N:7]([H:13])[H:14])[H:12])([H:8])([H:9])[H:10]"
C       -1.68283764       0.24607522       0.55214378
C       -0.44388845      -0.39773091       0.03365732
C       -0.20913468      -1.69508855      -0.17806563
O        1.07534081      -1.90448003      -0.64328732
C        1.73965834      -0.74379556      -0.66331440
C        0.81201364       0.28967308      -0.31007320
N        1.15817447       1.47052940       0.39607013
H       -2.46124740      -0.48908748       0.75613927
H       -2.08090753       0.96780994      -0.16554713
H       -1.47853959       0.78514701       1.47965995
H       -0.84254509      -2.56802327      -0.15819885
H        1.35393864       0.23065121      -1.62985700
H        0.92646614       2.30486158      -0.12116405
H        2.13350834       1.50345837       0.65183714
14
Frame=14 idx=011725 GeodesicLength=0.7376085056569398 rxn_smarts="[C:1]([c:2]1[c:3]([H:11])[o:4][c:5]([H:12])[c:6]1[N:7]([H:13])[H:14])([H:8])([H:9])[H:10]>>[C:1]([C:2]1=[C:3]([H:11])[O+:4]=[C-:5][C@@:6]1([N:7]([H:13])[H:14])[H:12])([H:8])([H:9])[H:10]"
C       -1.68478455       0.24477797       0.55440736
C       -0.44567054      -0.39679122       0.03323707
C       -0.20875175      -1.69526036      -0.17036331
O        1.07337304      -1.90281694      -0.64561539
C        1.72972992      -0.73971662      -0.67417604
C        0.80496737       0.29481674      -0.32188574
N        1.15107460       1.47058141       0.39540036
H       -2.46089377      -0.49175257       0.76243701
H       -2.08675934       0.96409743      -0.16357037
H       -1.47938043       0.78614966       1.48033315
H       -0.84032897      -2.56938104      -0.14712495
H        1.38269474       0.23580094      -1.64826699
H        0.94426876       2.30728108      -0.12864570
H        2.12046092       1.49221349       0.67383353
14
Frame=15 idx=011725 GeodesicLength=0.7902969344202475 rxn_smarts="[C:1]([c:2]1[c:3]([H:11])[o:4][c:5]([H:12])[c:6]1[N:7]([H:13])[H:14])([H:8])([H:9])[H:10]>>[C:1]([C:2]1=[C:3]([H:11])[O+:4]=[C-:5][C@@:6]1([N:7]([H:13])[H:14])[H:12])([H:8])([H:9])[H:10]"
C       -1.68672648       0.24351061       0.55671114
C       -0.44748933      -0.39582153       0.03290489
C       -0.20825177      -1.69532657      -0.16244010
O        1.07114718      -1.90100803      -0.64833656
C        1.71940966      -0.73557182      -0.68541312
C        0.79762071       0.30000234      -0.33386290
N        1.14388265       1.47055025       0.39452472
H       -2.46040142      -0.49438716       0.76892119
H       -2.09269109       0.96020937      -0.16160291
H       -1.48023356       0.78737705       1.48091337
H       -0.83797039      -2.57061820      -0.13586154
H        1.41285101       0.24096963      -1.66601290
H        0.96212059       2.30931690      -0.13547221
H        2.10673224       1.48079717       0.69502692
14
Frame=16 idx=011725 GeodesicLength=0.8430613899607067 rxn_smarts="[C:1]([c:2]1[c:3]([H:11])[o:4][c:5]([H:12])[c:6]1[N:7]([H:13])[H:14])([H:8])([H:9])[H:10]>>[C:1]([C:2]1=[C:3]([H:11])[O+:4]=[C-:5][C@@:6]1([N:7]([H:13])[H:14])[H:12])([H:8])([H:9])[H:10]"
C       -1.68883461       0.24225755       0.55899023
C       -0.44947831      -0.39478043       0.03243654
C       -0.20771438      -1.69525837      -0.15448022
O        1.06861345      -1.89899148      -0.65179871
C        1.70873045      -0.73128127      -0.69727925
C        0.78996877       0.30530759      -0.34613787
N        1.13666366       1.47039383       0.39347889
H       -2.45997878      -0.49705486       0.77555507
H       -2.09895482       0.95622646      -0.15967883
H       -1.48120076       0.78871377       1.48139555
H       -0.83519949      -2.57192582      -0.12338418
H        1.44460321       0.24642128      -1.68317393
H        0.98035731       2.31104705      -0.14169000
H        2.09242428       1.46892470       0.71576672
