13
Frame=0 idx=003400 GeodesicLength=0.0 rxn_smarts="[N:1](=[C:2](/[O:3][C:4]1([H:9])[C:5]([H:10])([H:11])[C:6]1([H:12])[H:13])[H:8])\[H:7]>>[N:1]1([H:7])[C:2]([H:8])=[O+:3][C-:4]([H:9])[C:5]([H:10])([H:11])[C:6]1([H:12])[H:13]"
N        1.36579157       0.38039977       0.59987038
C        1.62834106       0.06245775      -0.61307777
O        0.76636127      -0.65296213      -1.29137241
C       -0.45921129      -0.98899332      -0.82280288
C       -1.12412144      -0.60567569       0.46642140
C       -0.84977022       0.82074298       0.61949173
H        2.02236461       1.06770310       0.95532873
H        2.46407884       0.38167781      -1.22876373
H       -1.07877233      -1.24047747      -1.67501088
H       -2.18707990      -0.78389979       0.27431176
H       -0.83767883      -1.19767315       1.33499143
H       -0.51009144       1.26783015       1.53705592
H       -1.20021190       1.48886997      -0.15644371
13
Frame=1 idx=003400 GeodesicLength=0.05929091975529947 rxn_smarts="[N:1](=[C:2](/[O:3][C:4]1([H:9])[C:5]([H:10])([H:11])[C:6]1([H:12])[H:13])[H:8])\[H:7]>>[N:1]1([H:7])[C:2]([H:8])=[O+:3][C-:4]([H:9])[C:5]([H:10])([H:11])[C:6]1([H:12])[H:13]"
N        1.37157031       0.40797579       0.59521979
C        1.63466445       0.06056003      -0.61037174
O        0.74891819      -0.60299719      -1.30838450
C       -0.46805059      -0.95896473      -0.83049600
C       -1.12498335      -0.61665227       0.47192155
C       -0.85215048       0.81444931       0.60513551
H        2.04374659       1.08011539       0.94871588
H        2.51333498       0.30205280      -1.20143138
H       -1.08861977      -1.22512738      -1.67727855
H       -2.18856420      -0.80608443       0.29696785
H       -0.81228568      -1.20458996       1.33355537
H       -0.53698809       1.26685203       1.52942868
H       -1.24059235       1.48241061      -0.15298248
13
Frame=2 idx=003400 GeodesicLength=0.11815073232089042 rxn_smarts="[N:1](=[C:2](/[O:3][C:4]1([H:9])[C:5]([H:10])([H:11])[C:6]1([H:12])[H:13])[H:8])\[H:7]>>[N:1]1([H:7])[C:2]([H:8])=[O+:3][C-:4]([H:9])[C:5]([H:10])([H:11])[C:6]1([H:12])[H:13]"
N        1.37744777       0.43858793       0.58943209
C        1.64062539       0.05681146      -0.60667511
O        0.73237903      -0.55191966      -1.32374626
C       -0.47623295      -0.92857024      -0.83832954
C       -1.12461030      -0.62742302       0.47631415
C       -0.85466551       0.80835772       0.59152827
H        2.06563707       1.09524660       0.93936215
H        2.55481536       0.21681347      -1.17106376
H       -1.09663066      -1.20848931      -1.68053722
H       -2.18827745      -0.82831823       0.31803992
H       -0.78615174      -1.21122924       1.33040267
H       -0.56411689       1.26445642       1.52267823
H       -1.28021913       1.47567609      -0.14740558
13
Frame=3 idx=003400 GeodesicLength=0.1768954727286026 rxn_smarts="[N:1](=[C:2](/[O:3][C:4]1([H:9])[C:5]([H:10])([H:11])[C:6]1([H:12])[H:13])[H:8])\[H:7]>>[N:1]1([H:7])[C:2]([H:8])=[O+:3][C-:4]([H:9])[C:5]([H:10])([H:11])[C:6]1([H:12])[H:13]"
N        1.38361142       0.47217517       0.58265688
C        1.64599901       0.05174454      -0.60168527
O        0.71768253      -0.50182017      -1.33628020
C       -0.48377414      -0.89815751      -0.84608968
C       -1.12321981      -0.63794283       0.47964890
C       -0.85715915       0.80253577       0.57839700
H        2.08886853       1.11180055       0.92830029
H        2.58684808       0.12840009      -1.13917212
H       -1.10264444      -1.19010630      -1.68507095
H       -2.18646532      -0.85049012       0.33736912
H       -0.75960494      -1.21737394       1.32579976
H       -0.59114543       1.26084607       1.51644723
H       -1.31899635       1.46838867      -0.14032096
13
Frame=4 idx=003400 GeodesicLength=0.2351407030542548 rxn_smarts="[N:1](=[C:2](/[O:3][C:4]1([H:9])[C:5]([H:10])([H:11])[C:6]1([H:12])[H:13])[H:8])\[H:7]>>[N:1]1([H:7])[C:2]([H:8])=[O+:3][C-:4]([H:9])[C:5]([H:10])([H:11])[C:6]1([H:12])[H:13]"
N        1.39018848       0.50698369       0.57496920
C        1.64994057       0.04695056      -0.59637550
O        0.70523947      -0.45518098      -1.34589966
C       -0.49080576      -0.86847506      -0.85337321
C       -1.12111286      -0.64811934       0.48211691
C       -0.85927244       0.79699497       0.56543200
H        2.11332956       1.12734847       0.91690195
H        2.60906223       0.04226117      -1.10620369
H       -1.10713044      -1.17103721      -1.69018951
H       -2.18354994      -0.87197838       0.35511587
H       -0.73354008      -1.22273063       1.32038854
H       -0.61735733       1.25631686       1.51018931
H       -1.35499146       1.46066588      -0.13307221
13
Frame=5 idx=003400 GeodesicLength=0.293441240958881 rxn_smarts="[N:1](=[C:2](/[O:3][C:4]1([H:9])[C:5]([H:10])([H:11])[C:6]1([H:12])[H:13])[H:8])\[H:7]>>[N:1]1([H:7])[C:2]([H:8])=[O+:3][C-:4]([H:9])[C:5]([H:10])([H:11])[C:6]1([H:12])[H:13]"
N        1.39704560       0.54367471       0.56605052
C        1.65261968       0.04309177      -0.59082461
O        0.69464491      -0.41122968      -1.35319100
C       -0.49738002      -0.83944500      -0.86024684
C       -1.11823840      -0.65795690       0.48382409
C       -0.86119921       0.79182337       0.55248892
H        2.13939605       1.14095904       0.90607600
H        2.62246622      -0.04252814      -1.07220456
H       -1.11025671      -1.15159314      -1.69579057
H       -2.17947013      -0.89315448       0.37160429
H       -0.70748558      -1.22719739       1.31422331
H       -0.64286572       1.25119461       1.50367564
H       -1.38927668       1.45236124      -0.12568519
13
Frame=6 idx=003400 GeodesicLength=0.35183116743044957 rxn_smarts="[N:1](=[C:2](/[O:3][C:4]1([H:9])[C:5]([H:10])([H:11])[C:6]1([H:12])[H:13])[H:8])\[H:7]>>[N:1]1([H:7])[C:2]([H:8])=[O+:3][C-:4]([H:9])[C:5]([H:10])([H:11])[C:6]1([H:12])[H:13]"
N        1.40415150       0.58213649       0.55559772
C        1.65409375       0.04073210      -0.58548411
O        0.68565025      -0.37014481      -1.35874116
C       -0.50358529      -0.81124660      -0.86670759
C       -1.11457786      -0.66746137       0.48492704
C       -0.86295451       0.78702505       0.53946211
H        2.16676844       1.15165411       0.89664448
H        2.62780463      -0.12508500      -1.03696117
H       -1.11246475      -1.13203610      -1.70164747
H       -2.17425874      -0.91407211       0.38718840
H       -0.68130145      -1.23066929       1.30755216
H       -0.66752847       1.24569809       1.49672739
H       -1.42179748       1.44346945      -0.11855781
13
Frame=7 idx=003400 GeodesicLength=0.4101651687016174 rxn_smarts="[N:1](=[C:2](/[O:3][C:4]1([H:9])[C:5]([H:10])([H:11])[C:6]1([H:12])[H:13])[H:8])\[H:7]>>[N:1]1([H:7])[C:2]([H:8])=[O+:3][C-:4]([H:9])[C:5]([H:10])([H:11])[C:6]1([H:12])[H:13]"
N        1.41137789       0.62215720       0.54305018
C        1.65428854       0.04089153      -0.58140173
O        0.67785758      -0.33190441      -1.36343468
C       -0.50950925      -0.78387717      -0.87287368
C       -1.10985614      -0.67673420       0.48549948
C       -0.86438258       0.78251227       0.52635064
H        2.19432138       1.15928550       0.88880664
H        2.62590283      -0.20588941      -0.99873325
H       -1.11443555      -1.11218066      -1.70750307
H       -2.16763716      -0.93484661       0.40237972
H       -0.65453788      -1.23323944       1.30036036
H       -0.69117936       1.23974617       1.48934503
H       -1.45221030       1.43407923      -0.11184564
13
Frame=8 idx=003400 GeodesicLength=0.4690424257162575 rxn_smarts="[N:1](=[C:2](/[O:3][C:4]1([H:9])[C:5]([H:10])([H:11])[C:6]1([H:12])[H:13])[H:8])\[H:7]>>[N:1]1([H:7])[C:2]([H:8])=[O+:3][C-:4]([H:9])[C:5]([H:10])([H:11])[C:6]1([H:12])[H:13]"
N        1.41881489       0.66438141       0.52819786
C        1.65364426       0.04297507      -0.57802002
O        0.67086989      -0.29526773      -1.36750017
C       -0.51505306      -0.75726883      -0.87874917
C       -1.10397269      -0.68558957       0.48562828
C       -0.86557056       0.77850524       0.51285611
H        2.22230599       1.16211215       0.88394571
H        2.61620574      -0.28461126      -0.95865507
H       -1.11568774      -1.09301993      -1.71323515
H       -2.15942090      -0.95561430       0.41727928
H       -0.62681401      -1.23451781       1.29274073
H       -0.71379051       1.23387587       1.48111369
H       -1.48153131       1.42403968      -0.10560207
13
Frame=9 idx=003400 GeodesicLength=0.5282154347945524 rxn_smarts="[N:1](=[C:2](/[O:3][C:4]1([H:9])[C:5]([H:10])([H:11])[C:6]1([H:12])[H:13])[H:8])\[H:7]>>[N:1]1([H:7])[C:2]([H:8])=[O+:3][C-:4]([H:9])[C:5]([H:10])([H:11])[C:6]1([H:12])[H:13]"
N        1.42652387       0.70851128       0.51038845
C        1.65234599       0.04720128      -0.57624861
O        0.66458996      -0.26094991      -1.37161611
C       -0.52035386      -0.73157760      -0.88448933
C       -1.09669364      -0.69414282       0.48540488
C       -0.86625127       0.77487440       0.49903098
H        2.24901145       1.16029243       0.88217773
H        2.59946706      -0.36084583      -0.91515326
H       -1.11716228      -1.07379858      -1.71884252
H       -2.14943695      -0.97634051       0.43237828
H       -0.59777738      -1.23462498       1.28471021
H       -0.73504107       1.22795104       1.47216846
H       -1.50922188       1.41344979      -0.09990915
13
Frame=10 idx=003400 GeodesicLength=0.588193858664726 rxn_smarts="[N:1](=[C:2](/[O:3][C:4]1([H:9])[C:5]([H:10])([H:11])[C:6]1([H:12])[H:13])[H:8])\[H:7]>>[N:1]1([H:7])[C:2]([H:8])=[O+:3][C-:4]([H:9])[C:5]([H:10])([H:11])[C:6]1([H:12])[H:13]"
N        1.43478680       0.75445495       0.48954724
C        1.65064410       0.05333086      -0.57593049
O        0.65873360      -0.22797604      -1.37597079
C       -0.52528460      -0.70669692      -0.89008953
C       -1.08784980      -0.70223506       0.48489209
C       -0.86628160       0.77174154       0.48472729
H        2.27336656       1.15291637       0.88432595
H        2.57498242      -0.43437956      -0.86891739
H       -1.11838663      -1.05539107      -1.72414200
H       -2.13743019      -0.99697012       0.44776956
H       -0.56718586      -1.23335024       1.27626970
H       -0.75460882       1.22225095       1.46228695
H       -1.53548597       1.40230434      -0.09476857
13
Frame=11 idx=003400 GeodesicLength=0.6488801856045671 rxn_smarts="[N:1](=[C:2](/[O:3][C:4]1([H:9])[C:5]([H:10])([H:11])[C:6]1([H:12])[H:13])[H:8])\[H:7]>>[N:1]1([H:7])[C:2]([H:8])=[O+:3][C-:4]([H:9])[C:5]([H:10])([H:11])[C:6]1([H:12])[H:13]"
N        1.44407575       0.80062402       0.46618541
C        1.64892078       0.06003199      -0.57674321
O        0.65343502      -0.19717466      -1.38052572
C       -0.52997376      -0.68288455      -0.89553963
C       -1.07775932      -0.70993464       0.48411947
C       -0.86522006       0.76893210       0.47019515
H        2.29347717       1.14191298       0.88931892
H        2.54394934      -0.50343255      -0.82046195
H       -1.11979539      -1.03744937      -1.72922526
H       -2.12388820      -1.01693789       0.46334317
H       -0.53574690      -1.23115787       1.26746929
H       -0.77206866       1.21647577       1.45190049
H       -1.55940577       1.39099466      -0.09003612
13
Frame=12 idx=003400 GeodesicLength=0.7103325591749537 rxn_smarts="[N:1](=[C:2](/[O:3][C:4]1([H:9])[C:5]([H:10])([H:11])[C:6]1([H:12])[H:13])[H:8])\[H:7]>>[N:1]1([H:7])[C:2]([H:8])=[O+:3][C-:4]([H:9])[C:5]([H:10])([H:11])[C:6]1([H:12])[H:13]"
N        1.45463546       0.84527014       0.44101938
C        1.64738395       0.06570505      -0.57792293
O        0.64898676      -0.16947690      -1.38489075
C       -0.53457468      -0.66026361      -0.90076621
C       -1.06699384      -0.71748524       0.48299795
C       -0.86265121       0.76603960       0.45578219
H        2.30834730       1.13092910       0.89474805
H        2.50803174      -0.56698090      -0.76978815
H       -1.12198790      -1.01868113      -1.73426626
H       -2.10952873      -1.03583015       0.47872004
H       -0.50459682      -1.22885350       1.25819508
H       -0.78698514       1.20986076       1.44149547
H       -1.58006691       1.37976678      -0.08532385
13
Frame=13 idx=003400 GeodesicLength=0.7726853027682318 rxn_smarts="[N:1](=[C:2](/[O:3][C:4]1([H:9])[C:5]([H:10])([H:11])[C:6]1([H:12])[H:13])[H:8])\[H:7]>>[N:1]1([H:7])[C:2]([H:8])=[O+:3][C-:4]([H:9])[C:5]([H:10])([H:11])[C:6]1([H:12])[H:13]"
N        1.46674809       0.88686674       0.41579623
C        1.64610902       0.07042588      -0.57898468
O        0.64514762      -0.14368465      -1.38880855
C       -0.53895430      -0.63875986      -0.90562596
C       -1.05610202      -0.72482604       0.48151876
C       -0.85875410       0.76311480       0.44166347
H        2.31917376       1.12113860       0.89974712
H        2.46752579      -0.62488917      -0.71893363
H       -1.12390316      -1.00078291      -1.73907319
H       -2.09502895      -1.05334968       0.49344222
H       -0.47468963      -1.22675809       1.24860510
H       -0.79972598       1.20257618       1.43129466
H       -1.59754616       1.36892822      -0.08064156
13
Frame=14 idx=003400 GeodesicLength=0.8356686481641841 rxn_smarts="[N:1](=[C:2](/[O:3][C:4]1([H:9])[C:5]([H:10])([H:11])[C:6]1([H:12])[H:13])[H:8])\[H:7]>>[N:1]1([H:7])[C:2]([H:8])=[O+:3][C-:4]([H:9])[C:5]([H:10])([H:11])[C:6]1([H:12])[H:13]"
N        1.48015239       0.92474085       0.39094970
C        1.64512131       0.07277959      -0.57893806
O        0.64236167      -0.12104497      -1.39179610
C       -0.54338091      -0.61842240      -0.91020612
C       -1.04584280      -0.73246014       0.47944727
C       -0.85352682       0.75959979       0.42831826
H        2.32753974       1.11705540       0.90102324
H        2.42437079      -0.67743269      -0.66650367
H       -1.12654858      -0.98148247      -1.74422479
H       -2.08135053      -1.06951626       0.50693068
H       -0.44710187      -1.22598615       1.23841289
H       -0.81029610       1.19355261       1.42201658
H       -1.61149829       1.35861684      -0.07542989
13
Frame=15 idx=003400 GeodesicLength=0.8992493700946365 rxn_smarts="[N:1](=[C:2](/[O:3][C:4]1([H:9])[C:5]([H:10])([H:11])[C:6]1([H:12])[H:13])[H:8])\[H:7]>>[N:1]1([H:7])[C:2]([H:8])=[O+:3][C-:4]([H:9])[C:5]([H:10])([H:11])[C:6]1([H:12])[H:13]"
N        1.49463587       0.95922358       0.36673086
C        1.64429934       0.07335647      -0.57786086
O        0.64036379      -0.10084733      -1.39394868
C       -0.54781083      -0.59917843      -0.91447498
C       -1.03632466      -0.74035591       0.47685212
C       -0.84734659       0.75564436       0.41566071
H        2.33500862       1.11746558       0.89922798
H        2.37889121      -0.72470547      -0.61329013
H       -1.12951713      -0.96169867      -1.74955915
H       -2.06861339      -1.08452953       0.51922516
H       -0.42179579      -1.22643993       1.22781750
H       -0.81920457       1.18320681       1.41352529
H       -1.62258588       1.34885848      -0.06990581
13
Frame=16 idx=003400 GeodesicLength=0.9635072782089591 rxn_smarts="[N:1](=[C:2](/[O:3][C:4]1([H:9])[C:5]([H:10])([H:11])[C:6]1([H:12])[H:13])[H:8])\[H:7]>>[N:1]1([H:7])[C:2]([H:8])=[O+:3][C-:4]([H:9])[C:5]([H:10])([H:11])[C:6]1([H:12])[H:13]"
N        1.51004510       0.99059964       0.34327407
C        1.64349346       0.07280121      -0.57593841
O        0.63887131      -0.08223738      -1.39529499
C       -0.55210748      -0.58097715      -0.91824885
C       -1.02752201      -0.74832766       0.47392901
C       -0.84053108       0.75144471       0.40344834
H        2.34218354       1.12010562       0.89569817
H        2.33148331      -0.76638467      -0.56088386
H       -1.13223258      -0.94249763      -1.75466125
H       -2.05672263      -1.09852251       0.53061109
H       -0.39865246      -1.22761952       1.21719015
H       -0.82693724       1.17211078       1.40537701
H       -1.63137124       1.33950455      -0.06450048
