11
Frame=0 idx=002839 GeodesicLength=0.0 rxn_smarts="[C:1]([c:2]1[n:3][o:4][c:5]([H:10])[c:6]1[H:11])([H:7])([H:8])[H:9]>>[C:1]([C:2]#[N+:3][O-:4])([H:7])([H:8])[H:9].[C:5](#[C:6][H:11])[H:10]"
C       -1.81828703      -0.10587727       0.11201969
C       -0.40023988      -0.48086482       0.16211427
N        0.38453288      -1.34636542       0.39168281
O        1.57593935      -1.58718052       0.41387382
C        2.16064543       0.49860118      -0.24510389
C        1.07327089       1.03741173      -0.36281412
H       -2.43830908      -0.96269726       0.37537888
H       -2.02377400       0.70304070       0.81368745
H       -2.08915796       0.22585614      -0.89071899
H        3.17450422       0.17939154      -0.19117022
H        0.40087516       1.83868404      -0.57894968
11
Frame=1 idx=002839 GeodesicLength=0.04743522389964691 rxn_smarts="[C:1]([c:2]1[n:3][o:4][c:5]([H:10])[c:6]1[H:11])([H:7])([H:8])[H:9]>>[C:1]([C:2]#[N+:3][O-:4])([H:7])([H:8])[H:9].[C:5](#[C:6][H:11])[H:10]"
C       -1.82083767      -0.11071024       0.11444710
C       -0.39904208      -0.47494870       0.15857245
N        0.38075627      -1.34282318       0.40724995
O        1.57904094      -1.57347818       0.41253483
C        2.15495569       0.47974187      -0.27172898
C        1.07353257       1.03775481      -0.38913322
H       -2.43543711      -0.97526439       0.36494002
H       -2.03355669       0.68663149       0.82720207
H       -2.09424422       0.23302712      -0.88355564
H        3.16914074       0.17379749      -0.16405256
H        0.42569156       1.86627191      -0.57647602
11
Frame=2 idx=002839 GeodesicLength=0.09409503704905507 rxn_smarts="[C:1]([c:2]1[n:3][o:4][c:5]([H:10])[c:6]1[H:11])([H:7])([H:8])[H:9]>>[C:1]([C:2]#[N+:3][O-:4])([H:7])([H:8])[H:9].[C:5](#[C:6][H:11])[H:10]"
C       -1.82300839      -0.11521171       0.11793911
C       -0.39804715      -0.47078817       0.15035765
N        0.37673067      -1.34163672       0.41464743
O        1.58174409      -1.56033769       0.41022804
C        2.14933001       0.46393030      -0.28858251
C        1.07379237       1.03839991      -0.41305709
H       -2.43233642      -0.98615832       0.35868505
H       -2.03851769       0.67106885       0.84202646
H       -2.10281937       0.24020877      -0.87418669
H        3.16157045       0.17045260      -0.13393674
H        0.45156142       1.89007218      -0.58412071
11
Frame=3 idx=002839 GeodesicLength=0.140635101340701 rxn_smarts="[C:1]([c:2]1[n:3][o:4][c:5]([H:10])[c:6]1[H:11])([H:7])([H:8])[H:9]>>[C:1]([C:2]#[N+:3][O-:4])([H:7])([H:8])[H:9].[C:5](#[C:6][H:11])[H:10]"
C       -1.82498980      -0.11965966       0.12139466
C       -0.39716174      -0.46749566       0.14103027
N        0.37272514      -1.34111604       0.42044860
O        1.58441469      -1.54746245       0.40827365
C        2.14364365       0.44882722      -0.30344449
C        1.07388675       1.03899667      -0.43622075
H       -2.42945149      -0.99627122       0.35361649
H       -2.04188966       0.65617496       0.85629647
H       -2.11198820       0.24676586      -0.86466733
H        3.15234654       0.16837868      -0.10437087
H        0.47846413       1.91286162      -0.59235671
11
Frame=4 idx=002839 GeodesicLength=0.1870870656961574 rxn_smarts="[C:1]([c:2]1[n:3][o:4][c:5]([H:10])[c:6]1[H:11])([H:7])([H:8])[H:9]>>[C:1]([C:2]#[N+:3][O-:4])([H:7])([H:8])[H:9].[C:5](#[C:6][H:11])[H:10]"
C       -1.82678081      -0.12404715       0.12499288
C       -0.39636760      -0.46469506       0.13121540
N        0.36871490      -1.34086359       0.42538666
O        1.58687173      -1.53520880       0.40530218
C        2.13787215       0.43451685      -0.31622176
C        1.07385272       1.03963783      -0.45860374
H       -2.42664231      -1.00583254       0.34927934
H       -2.04416818       0.64154580       0.87043440
H       -2.12144532       0.25303663      -0.85477755
H        3.14157284       0.16757713      -0.07465801
H        0.50651989       1.93433291      -0.60234978
11
Frame=5 idx=002839 GeodesicLength=0.23364268431540292 rxn_smarts="[C:1]([c:2]1[n:3][o:4][c:5]([H:10])[c:6]1[H:11])([H:7])([H:8])[H:9]>>[C:1]([C:2]#[N+:3][O-:4])([H:7])([H:8])[H:9].[C:5](#[C:6][H:11])[H:10]"
C       -1.82836930      -0.12830767       0.12917118
C       -0.39556902      -0.46199621       0.12153785
N        0.36482847      -1.34048067       0.43014447
O        1.58891305      -1.52485009       0.39760358
C        2.13221993       0.42148507      -0.32597200
C        1.07382304       1.04041374      -0.48060803
H       -2.42374986      -1.01491558       0.34608992
H       -2.04562933       0.62725537       0.88482076
H       -2.13113266       0.25894740      -0.84413864
H        3.12908683       0.16828043      -0.04202046
H        0.53557886       1.95416821      -0.61662862
11
Frame=6 idx=002839 GeodesicLength=0.28001677191140445 rxn_smarts="[C:1]([c:2]1[n:3][o:4][c:5]([H:10])[c:6]1[H:11])([H:7])([H:8])[H:9]>>[C:1]([C:2]#[N+:3][O-:4])([H:7])([H:8])[H:9].[C:5](#[C:6][H:11])[H:10]"
C       -1.82907262      -0.13172295       0.13561442
C       -0.39497214      -0.46190380       0.10549651
N        0.36054910      -1.34440434       0.42372146
O        1.59077889      -1.51705714       0.38361931
C        2.12706788       0.41176544      -0.32689379
C        1.07383829       1.04032179      -0.50362010
H       -2.42091981      -1.02149469       0.34917397
H       -2.03951127       0.61455411       0.90237428
H       -2.14502539       0.26584209      -0.82932705
H        3.11325245       0.17431691       0.00560859
H        0.56401463       1.96978260      -0.64576760
11
Frame=7 idx=002839 GeodesicLength=0.3266970039252641 rxn_smarts="[C:1]([c:2]1[n:3][o:4][c:5]([H:10])[c:6]1[H:11])([H:7])([H:8])[H:9]>>[C:1]([C:2]#[N+:3][O-:4])([H:7])([H:8])[H:9].[C:5](#[C:6][H:11])[H:10]"
C       -1.83016494      -0.13576296       0.14093228
C       -0.39429029      -0.45981553       0.09477261
N        0.35646502      -1.34560904       0.42395964
O        1.59248635      -1.50761621       0.37477260
C        2.12153157       0.40096421      -0.33158561
C        1.07402546       1.04147851      -0.52355536
H       -2.41811663      -1.03008273       0.34590300
H       -2.03875613       0.59883840       0.91938987
H       -2.15511891       0.27378857      -0.81595654
H        3.09709296       0.17711786       0.04107951
H        0.59484553       1.98669893      -0.66971201
11
Frame=8 idx=002839 GeodesicLength=0.373748185806519 rxn_smarts="[C:1]([c:2]1[n:3][o:4][c:5]([H:10])[c:6]1[H:11])([H:7])([H:8])[H:9]>>[C:1]([C:2]#[N+:3][O-:4])([H:7])([H:8])[H:9].[C:5](#[C:6][H:11])[H:10]"
C       -1.83170750      -0.14014810       0.14617636
C       -0.39362708      -0.45603393       0.08773722
N        0.35220929      -1.34561576       0.42662277
O        1.59394387      -1.49706884       0.36974063
C        2.11594302       0.38989677      -0.33727131
C        1.07451530       1.04332520      -0.54147510
H       -2.41548022      -1.04029099       0.33708385
H       -2.04182315       0.57934125       0.93824104
H       -2.16302315       0.28443321      -0.80195244
H        3.08111213       0.17858110       0.06992262
H        0.62793748       2.00358009      -0.69482563
11
Frame=9 idx=002839 GeodesicLength=0.42126649308117564 rxn_smarts="[C:1]([c:2]1[n:3][o:4][c:5]([H:10])[c:6]1[H:11])([H:7])([H:8])[H:9]>>[C:1]([C:2]#[N+:3][O-:4])([H:7])([H:8])[H:9].[C:5](#[C:6][H:11])[H:10]"
C       -1.83342460      -0.14461257       0.15202700
C       -0.39283870      -0.45094881       0.08325747
N        0.34800214      -1.34490289       0.43020549
O        1.59506792      -1.48710733       0.36346128
C        2.11047368       0.37931422      -0.34231990
C        1.07530650       1.04548250      -0.55929852
H       -2.41273385      -1.05116850       0.32528540
H       -2.04693348       0.55721519       0.95894772
H       -2.16982358       0.29700671      -0.78647185
H        3.06400589       0.18032541       0.09881251
H        0.66289808       2.01939607      -0.72390659
11
Frame=10 idx=002839 GeodesicLength=0.46988212355161324 rxn_smarts="[C:1]([c:2]1[n:3][o:4][c:5]([H:10])[c:6]1[H:11])([H:7])([H:8])[H:9]>>[C:1]([C:2]#[N+:3][O-:4])([H:7])([H:8])[H:9].[C:5](#[C:6][H:11])[H:10]"
C       -1.83588094      -0.14919951       0.15948061
C       -0.39178301      -0.44176698       0.08584016
N        0.34356090      -1.34258217       0.43556362
O        1.59559360      -1.47700800       0.35740086
C        2.10550021       0.36909614      -0.34673942
C        1.07705911       1.04780934      -0.57676594
H       -2.40952478      -1.06449128       0.30329170
H       -2.05873997       0.52636268       0.98607045
H       -2.17361471       0.31705651      -0.76657471
H        3.04662845       0.18189119       0.12649290
H        0.70120114       2.03283209      -0.76406024
11
Frame=11 idx=002839 GeodesicLength=0.5186356616443799 rxn_smarts="[C:1]([c:2]1[n:3][o:4][c:5]([H:10])[c:6]1[H:11])([H:7])([H:8])[H:9]>>[C:1]([C:2]#[N+:3][O-:4])([H:7])([H:8])[H:9].[C:5](#[C:6][H:11])[H:10]"
C       -1.83814022      -0.15377573       0.16706831
C       -0.39052180      -0.43217617       0.08942713
N        0.33941288      -1.33957397       0.44196050
O        1.59582971      -1.46787762       0.34872583
C        2.10037674       0.35938036      -0.35101734
C        1.07864610       1.05029020      -0.59507545
H       -2.40580135      -1.07689416       0.28149626
H       -2.07054557       0.49520591       1.01214148
H       -2.17724922       0.33620681      -0.74611423
H        3.02727201       0.18412203       0.15531464
H        0.74072072       2.04509234      -0.80392715
11
Frame=12 idx=002839 GeodesicLength=0.5683988026839575 rxn_smarts="[C:1]([c:2]1[n:3][o:4][c:5]([H:10])[c:6]1[H:11])([H:7])([H:8])[H:9]>>[C:1]([C:2]#[N+:3][O-:4])([H:7])([H:8])[H:9].[C:5](#[C:6][H:11])[H:10]"
C       -1.84076215      -0.15808494       0.17684694
C       -0.38880732      -0.41869281       0.09993559
N        0.33505313      -1.33637801       0.44732362
O        1.59566069      -1.45904109       0.33886317
C        2.09570686       0.35106865      -0.35268780
C        1.08100262       1.05356771      -0.61136416
H       -2.40102765      -1.09002608       0.24893655
H       -2.08787624       0.45387318       1.04507918
H       -2.17832959       0.36431975      -0.71881690
H        3.00683409       0.18709995       0.18638466
H        0.78254556       2.05229370      -0.86050084
11
Frame=13 idx=002839 GeodesicLength=0.6168464170463712 rxn_smarts="[C:1]([c:2]1[n:3][o:4][c:5]([H:10])[c:6]1[H:11])([H:7])([H:8])[H:9]>>[C:1]([C:2]#[N+:3][O-:4])([H:7])([H:8])[H:9].[C:5](#[C:6][H:11])[H:10]"
C       -1.84290607      -0.16251050       0.18498597
C       -0.38731217      -0.40695014       0.10791025
N        0.33083844      -1.33273754       0.45401330
O        1.59536563      -1.44947449       0.33057145
C        2.09000988       0.34266522      -0.35583821
C        1.08235820       1.05741252      -0.62626042
H       -2.39588938      -1.10071998       0.22175055
H       -2.10219662       0.41722484       1.07157144
H       -2.18058053       0.38615813      -0.69469459
H        2.98603967       0.18949732       0.21203054
H        0.82427295       2.05943462      -0.90604027
11
Frame=14 idx=002839 GeodesicLength=0.6653685421008114 rxn_smarts="[C:1]([c:2]1[n:3][o:4][c:5]([H:10])[c:6]1[H:11])([H:7])([H:8])[H:9]>>[C:1]([C:2]#[N+:3][O-:4])([H:7])([H:8])[H:9].[C:5](#[C:6][H:11])[H:10]"
C       -1.84571749      -0.16726370       0.19221328
C       -0.38586809      -0.39351057       0.12033692
N        0.32691887      -1.32696463       0.46626541
O        1.59478771      -1.43985432       0.32368375
C        2.08400086       0.33384831      -0.36095466
C        1.08344074       1.06348261      -0.63667642
H       -2.38990474      -1.11143904       0.19186815
H       -2.12061887       0.37928019       1.09504394
H       -2.18199669       0.40675187      -0.67178044
H        2.96834275       0.18903121       0.22856899
H        0.86661496       2.06663808      -0.94856892
11
Frame=15 idx=002839 GeodesicLength=0.7134885158535403 rxn_smarts="[C:1]([c:2]1[n:3][o:4][c:5]([H:10])[c:6]1[H:11])([H:7])([H:8])[H:9]>>[C:1]([C:2]#[N+:3][O-:4])([H:7])([H:8])[H:9].[C:5](#[C:6][H:11])[H:10]"
C       -1.84747631      -0.17107306       0.20172695
C       -0.38408664      -0.38007462       0.13202475
N        0.32255934      -1.32460819       0.46904548
O        1.59417685      -1.43062631       0.31263578
C        2.07802443       0.32881616      -0.35907456
C        1.08473914       1.07164986      -0.64262271
H       -2.38322676      -1.11895740       0.15828023
H       -2.13603296       0.33533915       1.12350675
H       -2.18351974       0.43383202      -0.64092188
H        2.94644378       0.19197281       0.25638957
H        0.90839887       2.06372957      -1.01099036
11
Frame=16 idx=002839 GeodesicLength=0.7607143971266974 rxn_smarts="[C:1]([c:2]1[n:3][o:4][c:5]([H:10])[c:6]1[H:11])([H:7])([H:8])[H:9]>>[C:1]([C:2]#[N+:3][O-:4])([H:7])([H:8])[H:9].[C:5](#[C:6][H:11])[H:10]"
C       -1.84951355      -0.17529481       0.20885067
C       -0.38261827      -0.36697046       0.14395104
N        0.31871047      -1.31955630       0.47856432
O        1.59315957      -1.42106196       0.30340738
C        2.07121189       0.32244449      -0.36129970
C        1.08538775       1.08084085      -0.64708219
H       -2.37599012      -1.12606402       0.13016645
H       -2.15181031       0.29776550       1.14386843
H       -2.18588323       0.45262414      -0.61661722
H        2.92790896       0.19166568       0.27273887
H        0.94943684       2.06360691      -1.05654804
