16
Frame=0 idx=004721 GeodesicLength=0.0 rxn_smarts="[C:1]([C:2]1([C:3]([H:10])([H:11])[H:12])[C:4]([H:13])([H:14])[C@:5]1([O:6][H:16])[H:15])([H:7])([H:8])[H:9]>>[C:1]([C:2]1([C:3]([H:10])([H:11])[H:12])[C:4]([H:13])=[C:5]1[H:15])([H:7])([H:8])[H:9].[O:6]([H:14])[H:16]"
C       -0.80978382      -0.30403888      -1.22983045
C        0.26407872       0.00002695      -0.20165980
C        1.54284754      -0.78090219      -0.45904446
C        0.31755068       1.34874636       0.47648661
C       -0.03791312       0.21377789       1.23876953
O       -1.65051951       0.56345800       1.56418325
H       -1.11436903      -1.35641482      -1.20436731
H       -1.69244648       0.32571739      -1.10570198
H       -0.42693477      -0.10039272      -2.23288920
H        2.26566025      -0.64009685       0.34637882
H        2.01013404      -0.43177662      -1.38349506
H        1.35079493      -1.85258219      -0.56786413
H        1.21360040       1.93636389       0.62544497
H       -1.29882119       1.39294882       0.96263271
H        0.30183214      -0.30717316       2.12278749
H       -2.23571079      -0.00766191       1.04816901
16
Frame=1 idx=004721 GeodesicLength=0.08166408400592294 rxn_smarts="[C:1]([C:2]1([C:3]([H:10])([H:11])[H:12])[C:4]([H:13])([H:14])[C@:5]1([O:6][H:16])[H:15])([H:7])([H:8])[H:9]>>[C:1]([C:2]1([C:3]([H:10])([H:11])[H:12])[C:4]([H:13])=[C:5]1[H:15])([H:7])([H:8])[H:9].[O:6]([H:14])[H:16]"
C       -0.80668517      -0.30770918      -1.23160740
C        0.26677735      -0.00750416      -0.20243120
C        1.54842511      -0.78167834      -0.46321206
C        0.31732639       1.33918919       0.47899088
C       -0.04068110       0.20386490       1.23801772
O       -1.66609059       0.57965806       1.57007045
H       -1.10632250      -1.36153477      -1.21311953
H       -1.69210847       0.31669755      -1.10126537
H       -0.42682360      -0.09520800      -2.23402534
H        2.27214446      -0.63824465       0.34092164
H        2.01255287      -0.43091370      -1.38867814
H        1.36047143      -1.85409001      -0.57173916
H        1.20614049       1.93687393       0.62920601
H       -1.29126607       1.41288282       0.95716820
H        0.30060156      -0.31283456       2.12386032
H       -2.25446216       0.00055092       1.06784300
16
Frame=2 idx=004721 GeodesicLength=0.16324852530919903 rxn_smarts="[C:1]([C:2]1([C:3]([H:10])([H:11])[H:12])[C:4]([H:13])([H:14])[C@:5]1([O:6][H:16])[H:15])([H:7])([H:8])[H:9]>>[C:1]([C:2]1([C:3]([H:10])([H:11])[H:12])[C:4]([H:13])=[C:5]1[H:15])([H:7])([H:8])[H:9].[O:6]([H:14])[H:16]"
C       -0.80353747      -0.31141851      -1.23345140
C        0.26950652      -0.01510934      -0.20324217
C        1.55404171      -0.78243862      -0.46738350
C        0.31706439       1.32951037       0.48153820
C       -0.04360608       0.19380671       1.23718908
O       -1.68182134       0.59626065       1.57583714
H       -1.09802281      -1.36668243      -1.22220314
H       -1.69183968       0.30729784      -1.09663535
H       -0.42676003      -0.08976697      -2.23511040
H        2.27860123      -0.63635226       0.33550448
H        2.01501330      -0.43000263      -1.39383633
H        1.37025000      -1.85557395      -0.57564350
H        1.19848943       1.93726103       0.63295779
H       -1.28331348       1.43298884       0.95141811
H        0.29923421      -0.31865070       2.12482563
H       -2.27329989       0.00886996       1.08823536
16
Frame=3 idx=004721 GeodesicLength=0.2447799284007413 rxn_smarts="[C:1]([C:2]1([C:3]([H:10])([H:11])[H:12])[C:4]([H:13])([H:14])[C@:5]1([O:6][H:16])[H:15])([H:7])([H:8])[H:9]>>[C:1]([C:2]1([C:3]([H:10])([H:11])[H:12])[C:4]([H:13])=[C:5]1[H:15])([H:7])([H:8])[H:9].[O:6]([H:14])[H:16]"
C       -0.80033994      -0.31516444      -1.23536447
C        0.27226548      -0.02278690      -0.20409296
C        1.55969656      -0.78318023      -0.47155713
C        0.31675946       1.31970954       0.48413082
C       -0.04669039       0.18360184       1.23628134
O       -1.69772407       0.61326907       1.58146046
H       -1.08946712      -1.37184782      -1.23162275
H       -1.69163351       0.29750998      -1.09181756
H       -0.42674603      -0.08406709      -2.23613777
H        2.28502814      -0.63441858       0.33013099
H        2.01751577      -0.42903878      -1.39896658
H        1.38013042      -1.85703033      -0.57957778
H        1.19064467       1.93751721       0.63669459
H       -1.27494424       1.45327961       0.94536103
H        0.29771470      -0.32463181       2.12568121
H       -2.29220990       0.01727873       1.10939657
16
Frame=4 idx=004721 GeodesicLength=0.3263031993394709 rxn_smarts="[C:1]([C:2]1([C:3]([H:10])([H:11])[H:12])[C:4]([H:13])([H:14])[C@:5]1([O:6][H:16])[H:15])([H:7])([H:8])[H:9]>>[C:1]([C:2]1([C:3]([H:10])([H:11])[H:12])[C:4]([H:13])=[C:5]1[H:15])([H:7])([H:8])[H:9].[O:6]([H:14])[H:16]"
C       -0.79709159      -0.31894383      -1.23734947
C        0.27505339      -0.03053460      -0.20498399
C        1.56538868      -0.78390035      -0.47573078
C        0.31640577       1.30978636       0.48677143
C       -0.04993649       0.17324873       1.23529197
O       -1.71381640       0.63068189       1.58690973
H       -1.08065352      -1.37701927      -1.24138269
H       -1.69148304       0.28732645      -1.08681913
H       -0.42678379      -0.07810493      -2.23710085
H        2.29142218      -0.63244291       0.32480572
H        2.02006130      -0.42801708      -1.40406497
H        1.39011194      -1.85845532      -0.58354239
H        1.18260356       1.93763385       0.64040998
H       -1.26613288       1.47377203       0.93897062
H        0.29602609      -0.33078791       2.12642546
H       -2.31117521       0.02575689       1.13138939
16
Frame=5 idx=004721 GeodesicLength=0.40784332528863176 rxn_smarts="[C:1]([C:2]1([C:3]([H:10])([H:11])[H:12])[C:4]([H:13])([H:14])[C@:5]1([O:6][H:16])[H:15])([H:7])([H:8])[H:9]>>[C:1]([C:2]1([C:3]([H:10])([H:11])[H:12])[C:4]([H:13])=[C:5]1[H:15])([H:7])([H:8])[H:9].[O:6]([H:14])[H:16]"
C       -0.79379173      -0.32275396      -1.23940860
C        0.27786900      -0.03835051      -0.20591500
C        1.57111699      -0.78459554      -0.47990264
C        0.31599708       1.29974112       0.48946263
C       -0.05334594       0.16274538       1.23421886
O       -1.73011696       0.64849787       1.59215663
H       -1.07158125      -1.38218524      -1.25148541
H       -1.69137999       0.27674085      -1.08164878
H       -0.42687442      -0.07187953      -2.23799324
H        2.29778079      -0.63042370       0.31953238
H        2.02265003      -0.42693171      -1.40912802
H        1.40019410      -1.85984447      -0.58753827
H        1.17436415       1.93760044       0.64409885
H       -1.25685918       1.49447693       0.93222112
H        0.29415292      -0.33712934       2.12705722
H       -2.33017560       0.03429142       1.15427226
16
Frame=6 idx=004721 GeodesicLength=0.4894093421620807 rxn_smarts="[C:1]([C:2]1([C:3]([H:10])([H:11])[H:12])[C:4]([H:13])([H:14])[C@:5]1([O:6][H:16])[H:15])([H:7])([H:8])[H:9]>>[C:1]([C:2]1([C:3]([H:10])([H:11])[H:12])[C:4]([H:13])=[C:5]1[H:15])([H:7])([H:8])[H:9].[O:6]([H:14])[H:16]"
C       -0.79043993      -0.32659154      -1.24154474
C        0.28071088      -0.04623207      -0.20688637
C        1.57688034      -0.78526181      -0.48407022
C        0.31552433       1.28957396       0.49220777
C       -0.05692153       0.15208938       1.23305958
O       -1.74664307       0.66671864       1.59717079
H       -1.06224865      -1.38733355      -1.26193478
H       -1.69131627       0.26574632      -1.07631593
H       -0.42702076      -0.06538969      -2.23880845
H        2.30410049      -0.62835916       0.31431618
H        2.02528288      -0.42577553      -1.41415109
H        1.41037658      -1.86119293      -0.59156616
H        1.16592712       1.93740526       0.64775583
H       -1.24709935       1.51540049       0.92508340
H        0.29207951      -0.34366620       2.12757529
H       -2.34919258       0.04286843       1.17810891
16
Frame=7 idx=004721 GeodesicLength=0.5710085023388574 rxn_smarts="[C:1]([C:2]1([C:3]([H:10])([H:11])[H:12])[C:4]([H:13])([H:14])[C@:5]1([O:6][H:16])[H:15])([H:7])([H:8])[H:9]>>[C:1]([C:2]1([C:3]([H:10])([H:11])[H:12])[C:4]([H:13])=[C:5]1[H:15])([H:7])([H:8])[H:9].[O:6]([H:14])[H:16]"
C       -0.78703537      -0.33045529      -1.24376018
C        0.28357795      -0.05417825      -0.20789813
C        1.58267893      -0.78589416      -0.48823241
C        0.31497744       1.27928360       0.49501142
C       -0.06066448       0.14127451       1.23181199
O       -1.76341532       0.68534132       1.60192044
H       -1.05265469      -1.39245331      -1.27273238
H       -1.69128190       0.25433683      -1.07083362
H       -0.42722393      -0.05863924      -2.23954048
H        2.31037956      -0.62624587       0.30916045
H        2.02796088      -0.42453878      -1.41913079
H        1.42066190      -1.86249476      -0.59562935
H        1.15728975       1.93703494       0.65137737
H       -1.23683366       1.53654663       0.91753032
H        0.28979102      -0.35041195       2.12797921
H       -2.36820808       0.05149377       1.20296611
16
Frame=8 idx=004721 GeodesicLength=0.6526577288354616 rxn_smarts="[C:1]([C:2]1([C:3]([H:10])([H:11])[H:12])[C:4]([H:13])([H:14])[C@:5]1([O:6][H:16])[H:15])([H:7])([H:8])[H:9]>>[C:1]([C:2]1([C:3]([H:10])([H:11])[H:12])[C:4]([H:13])=[C:5]1[H:15])([H:7])([H:8])[H:9].[O:6]([H:14])[H:16]"
C       -0.78357674      -0.33434466      -1.24605862
C        0.28646843      -0.06218709      -0.20895103
C        1.58851282      -0.78648623      -0.49238772
C        0.31434321       1.26886826       0.49787887
C       -0.06457733       0.13029368       1.23047341
O       -1.78046092       0.70435056       1.60636812
H       -1.04279960      -1.39753356      -1.28387767
H       -1.69126666       0.24250541      -1.06521736
H       -0.42748528      -0.05163150      -2.24018252
H        2.31661559      -0.62407901       0.30406952
H        2.03068569      -0.42320978      -1.42406263
H        1.43105305      -1.86374287      -0.59973098
H        1.14844984       1.93647406       0.65496079
H       -1.22603835       1.55791342       0.90953035
H        0.28727338      -0.35738083       2.12826760
H       -2.38719713       0.06019016       1.22891986
16
Frame=9 idx=004721 GeodesicLength=0.7343418640408073 rxn_smarts="[C:1]([C:2]1([C:3]([H:10])([H:11])[H:12])[C:4]([H:13])([H:14])[C@:5]1([O:6][H:16])[H:15])([H:7])([H:8])[H:9]>>[C:1]([C:2]1([C:3]([H:10])([H:11])[H:12])[C:4]([H:13])=[C:5]1[H:15])([H:7])([H:8])[H:9].[O:6]([H:14])[H:16]"
C       -0.78006364      -0.33825205      -1.24844236
C        0.28937978      -0.07025296      -0.21004447
C        1.59437791      -0.78703474      -0.49653145
C        0.31361455       1.25833008       0.50081272
C       -0.06866336       0.11914932       1.22904145
O       -1.79780281       0.72375038       1.61047814
H       -1.03268376      -1.40255848      -1.29537294
H       -1.69126150       0.23025166      -1.05948008
H       -0.42780560      -0.04436492      -2.24072819
H        2.32280261      -0.62185857       0.29905058
H        2.03345626      -0.42178433      -1.42894013
H        1.44154385      -1.86493231      -0.60386813
H        1.13940891       1.93570948       0.65849527
H       -1.21468561       1.57950664       0.90105641
H        0.28451049      -0.36457889       2.12843953
H       -2.40612806       0.06891968       1.25603364
16
Frame=10 idx=004721 GeodesicLength=0.816054226839272 rxn_smarts="[C:1]([C:2]1([C:3]([H:10])([H:11])[H:12])[C:4]([H:13])([H:14])[C@:5]1([O:6][H:16])[H:15])([H:7])([H:8])[H:9]>>[C:1]([C:2]1([C:3]([H:10])([H:11])[H:12])[C:4]([H:13])=[C:5]1[H:15])([H:7])([H:8])[H:9].[O:6]([H:14])[H:16]"
C       -0.77649489      -0.34218403      -1.25091625
C        0.29231045      -0.07837786      -0.21118065
C        1.60027832      -0.78752862      -0.50066576
C        0.31276893       1.24766347       0.50382067
C       -0.07292387       0.10782211       1.22751266
O       -1.81547800       0.74351308       1.61420327
H       -1.02230601      -1.40752265      -1.30721663
H       -1.69125373       0.21756505      -1.05364557
H       -0.42818568      -0.03685617      -2.24117496
H        2.32894137      -0.61957338       0.29410501
H        2.03627639      -0.42023960      -1.43376097
H        1.45214746      -1.86605185      -0.60805196
H        1.13016840       1.93471764       0.66199366
H       -1.20276762       1.60130587       0.89207684
H        0.28149016      -0.37202861       2.12849451
H       -2.42497167       0.07777554       1.28440615
16
Frame=11 idx=004721 GeodesicLength=0.897781822150498 rxn_smarts="[C:1]([C:2]1([C:3]([H:10])([H:11])[H:12])[C:4]([H:13])([H:14])[C@:5]1([O:6][H:16])[H:15])([H:7])([H:8])[H:9]>>[C:1]([C:2]1([C:3]([H:10])([H:11])[H:12])[C:4]([H:13])=[C:5]1[H:15])([H:7])([H:8])[H:9].[O:6]([H:14])[H:16]"
C       -0.77287024      -0.34614021      -1.25348457
C        0.29525698      -0.08656042      -0.21235994
C        1.60621313      -0.78795981      -0.50478846
C        0.31178899       1.23686794       0.50690714
C       -0.07736233       0.09630412       1.22588390
O       -1.83351878       0.76362353       1.61750672
H       -1.01166695      -1.41241513      -1.31940869
H       -1.69123252       0.20444213      -1.04773411
H       -0.42862642      -0.02911474      -2.24151847
H        2.33502790      -0.61721578       0.28923784
H        2.03914603      -0.41856155      -1.43851990
H        1.46286715      -1.86709239      -0.61228540
H        1.12073400       1.93347705       0.66545757
H       -1.19026437       1.62330154       0.88256343
H        0.27819999      -0.37974207       2.12843166
H       -2.44369257       0.08678579       1.31411128
16
Frame=12 idx=004721 GeodesicLength=0.9795190531147008 rxn_smarts="[C:1]([C:2]1([C:3]([H:10])([H:11])[H:12])[C:4]([H:13])([H:14])[C@:5]1([O:6][H:16])[H:15])([H:7])([H:8])[H:9]>>[C:1]([C:2]1([C:3]([H:10])([H:11])[H:12])[C:4]([H:13])=[C:5]1[H:15])([H:7])([H:8])[H:9].[O:6]([H:14])[H:16]"
C       -0.76918858      -0.35012409      -1.25615167
C        0.29821643      -0.09479976      -0.21358391
C        1.61218374      -0.78831697      -0.50889945
C        0.31065265       1.22593789       0.51008054
C       -0.08198161       0.08457795       1.22415194
O       -1.85196484       0.78405564       1.62034305
H       -1.00076438      -1.41722984      -1.33194847
H       -1.69118741       0.19087258      -1.04177061
H       -0.42912941      -0.02115265      -2.24175561
H        2.34106014      -0.61477546       0.28445281
H        2.04206719      -0.41672834      -1.44321237
H        1.47371176      -1.86804193      -0.61657624
H        1.11110667       1.93196147       0.66889824
H       -1.17716187       1.64547648       0.87247916
H        0.27462822      -0.38774104       2.12824969
H       -2.46224871       0.09602806       1.34524291
16
Frame=13 idx=004721 GeodesicLength=1.061244618443145 rxn_smarts="[C:1]([C:2]1([C:3]([H:10])([H:11])[H:12])[C:4]([H:13])([H:14])[C@:5]1([O:6][H:16])[H:15])([H:7])([H:8])[H:9]>>[C:1]([C:2]1([C:3]([H:10])([H:11])[H:12])[C:4]([H:13])=[C:5]1[H:15])([H:7])([H:8])[H:9].[O:6]([H:14])[H:16]"
C       -0.76545001      -0.35413865      -1.25892097
C        0.30118453      -0.10309478      -0.21485326
C        1.61818937      -0.78858930      -0.51299774
C        0.30933766       1.21487037       0.51334599
C       -0.08678523       0.07263157       1.22231334
O       -1.87085751       0.80478077       1.62267131
H       -0.98959877      -1.42195877      -1.34483309
H       -1.69110665       0.17685384      -1.03577801
H       -0.42969333      -0.01298499      -2.24188188
H        2.34703396      -0.61224128       0.27975393
H        2.04503915      -0.41472117      -1.44783358
H        1.48468718      -1.86888817      -0.62092982
H        1.10129278       1.93014498       0.67232307
H       -1.16344388       1.66781222       0.86179836
H        0.27076493      -0.39604130       2.12794667
H       -2.48059420       0.10556465       1.37787567
16
Frame=14 idx=004721 GeodesicLength=1.1429463009145275 rxn_smarts="[C:1]([C:2]1([C:3]([H:10])([H:11])[H:12])[C:4]([H:13])([H:14])[C@:5]1([O:6][H:16])[H:15])([H:7])([H:8])[H:9]>>[C:1]([C:2]1([C:3]([H:10])([H:11])[H:12])[C:4]([H:13])=[C:5]1[H:15])([H:7])([H:8])[H:9].[O:6]([H:14])[H:16]"
C       -0.76165274      -0.35819025      -1.26179904
C        0.30415727      -0.11144589      -0.21617077
C        1.62423257      -0.78876149      -0.51708342
C        0.30781327       1.20365782       0.51671302
C       -0.09177818       0.06044125       1.22036331
O       -1.89024620       0.82575831       1.62443976
H       -0.97816561      -1.42659845      -1.35806386
H       -1.69098070       0.16237342      -1.02978516
H       -0.43032082      -0.00462970      -2.24189609
H        2.35294676      -0.60959805       0.27514607
H        2.04806495      -0.41251117      -1.45237747
H        1.49580726      -1.86961499      -0.62535609
H        1.09129291       1.92799356       0.67575007
H       -1.14909508       1.69027850       0.85048523
H        0.26659900      -0.40467012       2.12751880
H       -2.49867466       0.11551726       1.41211563
16
Frame=15 idx=004721 GeodesicLength=1.2245913356188733 rxn_smarts="[C:1]([C:2]1([C:3]([H:10])([H:11])[H:12])[C:4]([H:13])([H:14])[C@:5]1([O:6][H:16])[H:15])([H:7])([H:8])[H:9]>>[C:1]([C:2]1([C:3]([H:10])([H:11])[H:12])[C:4]([H:13])=[C:5]1[H:15])([H:7])([H:8])[H:9].[O:6]([H:14])[H:16]"
C       -0.75779573      -0.36228475      -1.26478946
C        0.30712988      -0.11985303      -0.21753828
C        1.63031384      -0.78881871      -0.52115639
C        0.30604857       1.19229243       0.52018873
C       -0.09696546       0.04798590       1.21829570
O       -1.91018232       0.84694997       1.62559967
H       -0.96646062      -1.43114296      -1.37163881
H       -1.69079824       0.14742511      -1.02381966
H       -0.43101164       0.00389107      -2.24179445
H        2.35879343      -0.60683089       0.27063230
H        2.05114427      -0.41007215      -1.45683766
H        1.50708359      -1.87020525      -0.62986452
H        1.08111046       1.92547136       0.67919831
H       -1.13410668       1.71284663       0.83851326
H        0.26212023      -0.41365047       2.12696059
H       -2.51642359       0.12599575       1.44805067
16
Frame=16 idx=004721 GeodesicLength=1.3061495455888263 rxn_smarts="[C:1]([C:2]1([C:3]([H:10])([H:11])[H:12])[C:4]([H:13])([H:14])[C@:5]1([O:6][H:16])[H:15])([H:7])([H:8])[H:9]>>[C:1]([C:2]1([C:3]([H:10])([H:11])[H:12])[C:4]([H:13])=[C:5]1[H:15])([H:7])([H:8])[H:9].[O:6]([H:14])[H:16]"
C       -0.75387636      -0.36642855      -1.26790474
C        0.31009708      -0.12831654      -0.21896012
C        1.63643500      -0.78874395      -0.52521529
C        0.30400888       1.18076618       0.52378035
C       -0.10235541       0.03523987       1.21610263
O       -1.93073257       0.86830322       1.62608073
H       -0.95447762      -1.43558841      -1.38556319
H       -1.69055081       0.13199597      -1.01791920
H       -0.43176456       0.01255798      -2.24158557
H        2.36456760      -0.60392504       0.26622274
H        2.05428250      -0.40736944      -1.46120422
H        1.51853037      -1.87064020      -0.63446696
H        1.07074988       1.92253612       0.68269909
H       -1.11847894       1.73547455       0.82584015
H        0.25731297      -0.42301331       2.12626558
H       -2.53374800       0.13715154       1.48582803
