15
Frame=0 idx=010486 GeodesicLength=0.0 rxn_smarts="[C:1]([c:2]1[c:3]([H:11])[n:4]([H:12])[c:5]([N:6]([H:13])[H:14])[c:7]1[H:15])([H:8])([H:9])[H:10]>>[C:1]([C:2]1=[C:7]([H:15])[C@@:5]2([N:6]([H:13])[H:14])[C@:3]1([H:11])[N:4]2[H:12])([H:8])([H:9])[H:10]"
C       -2.22309184      -0.22185539      -0.05279313
C       -0.77646692       0.06739495       0.16214306
C       -0.04566029       1.06359987      -0.57435436
N        1.29034859       1.35690035       0.06649620
C        1.29101988      -0.00175573       0.27187915
N        2.20740993      -0.75619116      -0.32423311
C        0.11070393      -0.57449740       0.98164035
H       -2.37356415      -0.64930331      -1.04757102
H       -2.59820904      -0.93538440       0.68079499
H       -2.80555461       0.70028791      -0.00454598
H       -0.10716462       1.24885756      -1.63683049
H        1.11460853       1.87043493       0.92726062
H        2.03420134      -1.74493208      -0.39214074
H        2.83868991      -0.31934555      -0.97512246
H        0.04272936      -1.10421053       1.91737695
15
Frame=1 idx=010486 GeodesicLength=0.047311716965189224 rxn_smarts="[C:1]([c:2]1[c:3]([H:11])[n:4]([H:12])[c:5]([N:6]([H:13])[H:14])[c:7]1[H:15])([H:8])([H:9])[H:10]>>[C:1]([C:2]1=[C:7]([H:15])[C@@:5]2([N:6]([H:13])[H:14])[C@:3]1([H:11])[N:4]2[H:12])([H:8])([H:9])[H:10]"
C       -2.23301904      -0.21353112      -0.04912049
C       -0.78348925       0.06581174       0.15783840
C       -0.04348348       1.05553150      -0.57821310
N        1.27977181       1.35442547       0.06937329
C        1.28856270      -0.00654622       0.26446394
N        2.23580487      -0.74896164      -0.30788791
C        0.10938868      -0.58406999       0.96546153
H       -2.39062433      -0.66068878      -1.03405789
H       -2.61557122      -0.90638518       0.70039421
H       -2.80738390       0.71446204      -0.01857685
H       -0.11432375       1.26460701      -1.63544173
H        1.11733958       1.87133283       0.92946559
H        2.09245032      -1.74429293      -0.34529853
H        2.82355292      -0.32050690      -1.00370933
H        0.04102410      -1.14118782       1.88530886
15
Frame=2 idx=010486 GeodesicLength=0.09425302511455694 rxn_smarts="[C:1]([c:2]1[c:3]([H:11])[n:4]([H:12])[c:5]([N:6]([H:13])[H:14])[c:7]1[H:15])([H:8])([H:9])[H:10]>>[C:1]([C:2]1=[C:7]([H:15])[C@@:5]2([N:6]([H:13])[H:14])[C@:3]1([H:11])[N:4]2[H:12])([H:8])([H:9])[H:10]"
C       -2.24313740      -0.20507012      -0.04490315
C       -0.79062960       0.06406291       0.15312577
C       -0.04171635       1.04725550      -0.58274199
N        1.26883594       1.35171367       0.07147425
C        1.28604439      -0.01152301       0.25597511
N        2.26435590      -0.74041318      -0.29152916
C        0.10816366      -0.59419226       0.94807019
H       -2.40891771      -0.67146766      -1.01949934
H       -2.63216066      -0.87695276       0.72032991
H       -2.80928197       0.72839855      -0.03158012
H       -0.12246921       1.28098069      -1.63386289
H        1.12004474       1.87206257       0.93070534
H        2.15065219      -1.74045877      -0.29805596
H        2.81066071      -0.32515231      -1.02810896
H        0.03955536      -1.17924383       1.85060099
15
Frame=3 idx=010486 GeodesicLength=0.1406297593073482 rxn_smarts="[C:1]([c:2]1[c:3]([H:11])[n:4]([H:12])[c:5]([N:6]([H:13])[H:14])[c:7]1[H:15])([H:8])([H:9])[H:10]>>[C:1]([C:2]1=[C:7]([H:15])[C@@:5]2([N:6]([H:13])[H:14])[C@:3]1([H:11])[N:4]2[H:12])([H:8])([H:9])[H:10]"
C       -2.25325866      -0.19675209      -0.04024845
C       -0.79789699       0.06249643       0.14840063
C       -0.04036025       1.03898526      -0.58772768
N        1.25774260       1.34876838       0.07272106
C        1.28345410      -0.01665300       0.24644647
N        2.29253474      -0.73094730      -0.27520607
C        0.10702756      -0.60440968       0.92989224
H       -2.42774938      -0.68189316      -1.00409099
H       -2.64771706      -0.84763884       0.74031354
H       -2.81145144       0.74161204      -0.04376356
H       -0.13171519       1.29813086      -1.63179763
H        1.12321797       1.87276394       0.93084292
H        2.20706669      -1.73374780      -0.25157349
H        2.80076338      -0.33305489      -1.04792788
H        0.03834193      -1.21766016       1.81371889
15
Frame=4 idx=010486 GeodesicLength=0.1866008848240519 rxn_smarts="[C:1]([c:2]1[c:3]([H:11])[n:4]([H:12])[c:5]([N:6]([H:13])[H:14])[c:7]1[H:15])([H:8])([H:9])[H:10]>>[C:1]([C:2]1=[C:7]([H:15])[C@@:5]2([N:6]([H:13])[H:14])[C@:3]1([H:11])[N:4]2[H:12])([H:8])([H:9])[H:10]"
C       -2.26352609      -0.18838415      -0.03491437
C       -0.80529251       0.06082532       0.14338318
C       -0.03942238       1.03039250      -0.59353463
N        1.24633003       1.34549845       0.07296169
C        1.28079523      -0.02202241       0.23579058
N        2.32045597      -0.72064419      -0.25858842
C        0.10594299      -0.61486366       0.91076675
H       -2.44766461      -0.69183240      -0.98748441
H       -2.66235179      -0.81805726       0.76080360
H       -2.81378287       0.75448532      -0.05482904
H       -0.14203358       1.31567373      -1.62953527
H        1.12652144       1.87342085       0.92962295
H        2.26151506      -1.72448179      -0.20619440
H        2.79523658      -0.34308494      -1.06238090
H        0.03727652      -1.25692537       1.77413268
15
Frame=5 idx=010486 GeodesicLength=0.23234787177985688 rxn_smarts="[C:1]([c:2]1[c:3]([H:11])[n:4]([H:12])[c:5]([N:6]([H:13])[H:14])[c:7]1[H:15])([H:8])([H:9])[H:10]>>[C:1]([C:2]1=[C:7]([H:15])[C@@:5]2([N:6]([H:13])[H:14])[C@:3]1([H:11])[N:4]2[H:12])([H:8])([H:9])[H:10]"
C       -2.27377870      -0.18001475      -0.02922744
C       -0.81275093       0.05916293       0.13813490
C       -0.03879024       1.02178318      -0.59981125
N        1.23474059       1.34190863       0.07263884
C        1.27810908      -0.02766903       0.22407302
N        2.34796676      -0.70936971      -0.24200995
C        0.10489453      -0.62566749       0.89060181
H       -2.46822849      -0.70091160      -0.97027609
H       -2.67590544      -0.78874548       0.78111464
H       -2.81628156       0.76691600      -0.06475895
H       -0.15327617       1.33416471      -1.62655489
H        1.13015646       1.87382953       0.92759780
H        2.31572581      -1.71254506      -0.15880769
H        2.79107041      -0.35618861      -1.07467372
H        0.03634789      -1.29665324       1.73195898
15
Frame=6 idx=010486 GeodesicLength=0.2773889417921814 rxn_smarts="[C:1]([c:2]1[c:3]([H:11])[n:4]([H:12])[c:5]([N:6]([H:13])[H:14])[c:7]1[H:15])([H:8])([H:9])[H:10]>>[C:1]([C:2]1=[C:7]([H:15])[C@@:5]2([N:6]([H:13])[H:14])[C@:3]1([H:11])[N:4]2[H:12])([H:8])([H:9])[H:10]"
C       -2.28381835      -0.17213323      -0.02309295
C       -0.82029994       0.05801127       0.13334641
C       -0.03854447       1.01323698      -0.60647712
N        1.22322556       1.33804140       0.07126827
C        1.27535248      -0.03347769       0.21135473
N        2.37432768      -0.69810971      -0.22516529
C        0.10390404      -0.63583210       0.87043103
H       -2.48847850      -0.71020624      -0.95221304
H       -2.68825432      -0.76004436       0.80146271
H       -2.81925505       0.77813154      -0.07418552
H       -0.16557433       1.35309766      -1.62284481
H        1.13483587       1.87448923       0.92400753
H        2.36472308      -1.69938467      -0.11513017
H        2.79233375      -0.37019615      -1.08104298
H        0.03552251      -1.33562392       1.68828121
15
Frame=7 idx=010486 GeodesicLength=0.32224229964695167 rxn_smarts="[C:1]([c:2]1[c:3]([H:11])[n:4]([H:12])[c:5]([N:6]([H:13])[H:14])[c:7]1[H:15])([H:8])([H:9])[H:10]>>[C:1]([C:2]1=[C:7]([H:15])[C@@:5]2([N:6]([H:13])[H:14])[C@:3]1([H:11])[N:4]2[H:12])([H:8])([H:9])[H:10]"
C       -2.29378291      -0.16427478      -0.01660797
C       -0.82784639       0.05680592       0.12829483
C       -0.03854682       1.00462207      -0.61365827
N        1.21156263       1.33381310       0.06938734
C        1.27260971      -0.03959510       0.19758345
N        2.40007995      -0.68609061      -0.20830812
C        0.10293909      -0.64629285       0.84928689
H       -2.50926158      -0.71861140      -0.93361974
H       -2.69949440      -0.73176824       0.82162641
H       -2.82235292       0.78895532      -0.08239027
H       -0.17868830       1.37284261      -1.61826393
H        1.13987475       1.87490142       0.91955052
H        2.41310105      -1.68393543      -0.06937940
H        2.79500898      -0.38660629      -1.08552680
H        0.03479715      -1.37476575       1.64202506
15
Frame=8 idx=010486 GeodesicLength=0.3665081582479961 rxn_smarts="[C:1]([c:2]1[c:3]([H:11])[n:4]([H:12])[c:5]([N:6]([H:13])[H:14])[c:7]1[H:15])([H:8])([H:9])[H:10]>>[C:1]([C:2]1=[C:7]([H:15])[C@@:5]2([N:6]([H:13])[H:14])[C@:3]1([H:11])[N:4]2[H:12])([H:8])([H:9])[H:10]"
C       -2.30341158      -0.15697231      -0.00981541
C       -0.83538134       0.05615961       0.12379525
C       -0.03882713       0.99617054      -0.62108038
N        1.20007857       1.32934901       0.06670255
C        1.26985953      -0.04585019       0.18296336
N        2.42450162      -0.67428088      -0.19119604
C        0.10202749      -0.65598526       0.82838038
H       -2.52933657      -0.72726321      -0.91442447
H       -2.70956533      -0.70435317       0.84158777
H       -2.82589816       0.79851632      -0.09021055
H       -0.19253587       1.39292067      -1.61270990
H        1.14608872       1.87562464       0.91365064
H        2.45641978      -1.66802531      -0.02671296
H        2.80192548      -0.40327105      -1.08544949
H        0.03405480      -1.41273941       1.59451927
15
Frame=9 idx=010486 GeodesicLength=0.4104973916014533 rxn_smarts="[C:1]([c:2]1[c:3]([H:11])[n:4]([H:12])[c:5]([N:6]([H:13])[H:14])[c:7]1[H:15])([H:8])([H:9])[H:10]>>[C:1]([C:2]1=[C:7]([H:15])[C@@:5]2([N:6]([H:13])[H:14])[C@:3]1([H:11])[N:4]2[H:12])([H:8])([H:9])[H:10]"
C       -2.31281541      -0.14991467      -0.00274710
C       -0.84284758       0.05566056       0.11931608
C       -0.03931920       0.98780472      -0.62884869
N        1.18860740       1.32459089       0.06354409
C        1.26715759      -0.05233356       0.16739773
N        2.44795174      -0.66215291      -0.17405594
C        0.10115979      -0.66558442       0.80697254
H       -2.54933262      -0.73548814      -0.89477642
H       -2.71853863      -0.67760413       0.86131236
H       -2.82965781       0.80738762      -0.09717675
H       -0.20700674       1.41357802      -1.60607147
H        1.15300959       1.87630369       0.90674046
H        2.49762984      -1.65069166       0.01659926
H        2.81065456      -0.42136723      -1.08316115
H        0.03334747      -1.45018878       1.54495502
15
Frame=10 idx=010486 GeodesicLength=0.4542429236867757 rxn_smarts="[C:1]([c:2]1[c:3]([H:11])[n:4]([H:12])[c:5]([N:6]([H:13])[H:14])[c:7]1[H:15])([H:8])([H:9])[H:10]>>[C:1]([C:2]1=[C:7]([H:15])[C@@:5]2([N:6]([H:13])[H:14])[C@:3]1([H:11])[N:4]2[H:12])([H:8])([H:9])[H:10]"
C       -2.32201057      -0.14303486       0.00477890
C       -0.85020922       0.05516360       0.11471003
C       -0.04000967       0.97936861      -0.63715167
N        1.17707092       1.31954387       0.05982913
C        1.26453532      -0.05901445       0.15090409
N        2.47046608      -0.64976831      -0.15654544
C        0.10035167      -0.67507715       0.78507944
H       -2.56945651      -0.74344900      -0.87430516
H       -2.72641288      -0.65114964       0.88121577
H       -2.83353721       0.81570976      -0.10328987
H       -0.22193568       1.43438704      -1.59857334
H        1.16045610       1.87705251       0.89860455
H        2.53613004      -1.63228454       0.05980881
H        2.82202044      -0.44000094      -1.07787326
H        0.03254115      -1.48744651       1.49280803
15
Frame=11 idx=010486 GeodesicLength=0.49789806162537903 rxn_smarts="[C:1]([c:2]1[c:3]([H:11])[n:4]([H:12])[c:5]([N:6]([H:13])[H:14])[c:7]1[H:15])([H:8])([H:9])[H:10]>>[C:1]([C:2]1=[C:7]([H:15])[C@@:5]2([N:6]([H:13])[H:14])[C@:3]1([H:11])[N:4]2[H:12])([H:8])([H:9])[H:10]"
C       -2.33104409      -0.13612231       0.01283369
C       -0.85742934       0.05433345       0.10954374
C       -0.04086312       0.97076589      -0.64613334
N        1.16531069       1.31414364       0.05572773
C        1.26203267      -0.06595007       0.13338302
N        2.49221135      -0.63679559      -0.13873881
C        0.09960285      -0.68495081       0.76210784
H       -2.59019689      -0.75075968      -0.85292485
H       -2.73309514      -0.62474395       0.90146476
H       -2.83733729       0.82387945      -0.10820731
H       -0.23724141       1.45530905      -1.59023628
H        1.16803095       1.87764901       0.88946408
H        2.57324943      -1.61197686       0.10482578
H        2.83504035      -0.45985063      -1.07041836
H        0.03172900      -1.52493059       1.43730831
15
Frame=12 idx=010486 GeodesicLength=0.5412116011309834 rxn_smarts="[C:1]([c:2]1[c:3]([H:11])[n:4]([H:12])[c:5]([N:6]([H:13])[H:14])[c:7]1[H:15])([H:8])([H:9])[H:10]>>[C:1]([C:2]1=[C:7]([H:15])[C@@:5]2([N:6]([H:13])[H:14])[C@:3]1([H:11])[N:4]2[H:12])([H:8])([H:9])[H:10]"
C       -2.33966515      -0.12959355       0.02122875
C       -0.86445722       0.05371311       0.10455446
C       -0.04184429       0.96234851      -0.65531142
N        1.15363718       1.30859484       0.05131608
C        1.25966194      -0.07291150       0.11523078
N        2.51265144      -0.62383988      -0.12069965
C        0.09894915      -0.69439147       0.73911258
H       -2.61038213      -0.75817518      -0.83084884
H       -2.73861934      -0.59887929       0.92170863
H       -2.84129413       0.83118010      -0.11264790
H       -0.25254643       1.47590445      -1.58098207
H        1.17642269       1.87856649       0.87915883
H        2.60668459      -1.59119467       0.14887474
H        2.85004624      -0.47976380      -1.06022844
H        0.03075546      -1.56155816       1.37953346
15
Frame=13 idx=010486 GeodesicLength=0.5843558686872782 rxn_smarts="[C:1]([c:2]1[c:3]([H:11])[n:4]([H:12])[c:5]([N:6]([H:13])[H:14])[c:7]1[H:15])([H:8])([H:9])[H:10]>>[C:1]([C:2]1=[C:7]([H:15])[C@@:5]2([N:6]([H:13])[H:14])[C@:3]1([H:11])[N:4]2[H:12])([H:8])([H:9])[H:10]"
C       -2.34795493      -0.12321134       0.03004539
C       -0.87126524       0.05288297       0.09922112
C       -0.04290315       0.95395298      -0.66488780
N        1.14186120       1.30281451       0.04676409
C        1.25747192      -0.07996613       0.09637731
N        2.53201462      -0.61056278      -0.10250480
C        0.09838244      -0.70397214       0.71542033
H       -2.63063853      -0.76524125      -0.80798155
H       -2.74289443      -0.57328584       0.94213654
H       -2.84518384       0.83807407      -0.11619949
H       -0.26783356       1.49618140      -1.57088661
H        1.18515397       1.87956325       0.86790458
H        2.63784762      -1.56903615       0.19384431
H        2.86615173      -0.50046110      -1.04800929
H        0.02979019      -1.59773245       1.31875588
15
Frame=14 idx=010486 GeodesicLength=0.6273858671555752 rxn_smarts="[C:1]([c:2]1[c:3]([H:11])[n:4]([H:12])[c:5]([N:6]([H:13])[H:14])[c:7]1[H:15])([H:8])([H:9])[H:10]>>[C:1]([C:2]1=[C:7]([H:15])[C@@:5]2([N:6]([H:13])[H:14])[C@:3]1([H:11])[N:4]2[H:12])([H:8])([H:9])[H:10]"
C       -2.35590328      -0.11694093       0.03940522
C       -0.87783871       0.05170606       0.09336268
C       -0.04404350       0.94559928      -0.67488219
N        1.12991080       1.29681898       0.04215214
C        1.25549082      -0.08706722       0.07679857
N        2.55031464      -0.59695121      -0.08399904
C        0.09792279      -0.71384046       0.69080462
H       -2.65112880      -0.77200882      -0.78405711
H       -2.74580885      -0.54775690       0.96299841
H       -2.84893867       0.84463992      -0.11878649
H       -0.28284909       1.51577870      -1.56024402
H        1.19405855       1.88064816       0.85573454
H        2.66648700      -1.54559302       0.23953920
H        2.88357154      -0.52158079      -1.03344425
H        0.02875477      -1.63345175       1.25461774
15
Frame=15 idx=010486 GeodesicLength=0.6702011166176158 rxn_smarts="[C:1]([c:2]1[c:3]([H:11])[n:4]([H:12])[c:5]([N:6]([H:13])[H:14])[c:7]1[H:15])([H:8])([H:9])[H:10]>>[C:1]([C:2]1=[C:7]([H:15])[C@@:5]2([N:6]([H:13])[H:14])[C@:3]1([H:11])[N:4]2[H:12])([H:8])([H:9])[H:10]"
C       -2.36337253      -0.11102351       0.04904405
C       -0.88414440       0.05044146       0.08736290
C       -0.04520607       0.93756643      -0.68487567
N        1.11796731       1.29073416       0.03774757
C        1.25373019      -0.09407106       0.05681917
N        2.56728621      -0.58329206      -0.06559022
C        0.09757420      -0.72368594       0.66572980
H       -2.67115304      -0.77870952      -0.75952885
H       -2.74745022      -0.52279263       0.98380825
H       -2.85267220       0.85051149      -0.12076952
H       -0.29738701       1.53464408      -1.54892068
H        1.20352240       1.88199072       0.84280481
H        2.69209343      -1.52128870       0.28523357
H        2.90144863      -0.54321580      -1.01709320
H        0.02776309      -1.66780913       1.18822803
15
Frame=16 idx=010486 GeodesicLength=0.7126863564351339 rxn_smarts="[C:1]([c:2]1[c:3]([H:11])[n:4]([H:12])[c:5]([N:6]([H:13])[H:14])[c:7]1[H:15])([H:8])([H:9])[H:10]>>[C:1]([C:2]1=[C:7]([H:15])[C@@:5]2([N:6]([H:13])[H:14])[C@:3]1([H:11])[N:4]2[H:12])([H:8])([H:9])[H:10]"
C       -2.37025459      -0.10578906       0.05858042
C       -0.89016313       0.04944708       0.08173541
C       -0.04635993       0.93026753      -0.69428545
N        1.10627530       1.28471898       0.03389509
C        1.25217302      -0.10081456       0.03674065
N        2.58269881      -0.56997319      -0.04783730
C        0.09734281      -0.73311445       0.64075398
H       -2.68985430      -0.78577636      -0.73499325
H       -2.74810564      -0.49894910       1.00394165
H       -2.85659505       0.85517156      -0.12275704
H       -0.31120747       1.55287359      -1.53670213
H        1.21411074       1.88373647       0.82934204
H        2.71412768      -1.49682312       0.32974533
H        2.91894426      -0.56537709      -0.99967359
H        0.02686749      -1.69959829       1.12151421
