15
Frame=0 idx=010860 GeodesicLength=0.0 rxn_smarts="[C:1]([C@@:2]12[C:3]([H:11])([H:12])[C@:4]1([O:5][H:13])[C:6]([H:14])([H:15])[O:7]2)([H:8])([H:9])[H:10]>>[C:1]([C-:2]=[O+:7][C:6]([C:4](=[C:3]([H:11])[H:12])[O:5][H:13])([H:14])[H:15])([H:8])([H:9])[H:10]"
C        2.01467083      -0.02407303       0.70441582
C        0.58006531       0.37000456       0.66620696
C       -0.49052901      -1.01559517      -1.05947523
C       -1.06922246      -0.22212790      -0.09908006
O       -1.98212479      -0.67766387       0.79345514
C       -1.05071872       1.28797883      -0.26957689
O        0.35961821       1.48559163      -0.04370434
H        2.59269789       0.28807902      -0.16956756
H        2.09868392      -1.10037937       0.85116795
H        2.43557337       0.45845403       1.59280710
H        0.00511997      -0.57269619      -1.91030873
H       -0.42884633      -2.08853218      -0.92840203
H       -2.11217184      -1.61783664       0.64691132
H       -1.31042630       1.63548079      -1.26899957
H       -1.64239002       1.79331555       0.49415007
15
Frame=1 idx=010860 GeodesicLength=0.07371517231305305 rxn_smarts="[C:1]([C@@:2]12[C:3]([H:11])([H:12])[C@:4]1([O:5][H:13])[C:6]([H:14])([H:15])[O:7]2)([H:8])([H:9])[H:10]>>[C:1]([C-:2]=[O+:7][C:6]([C:4](=[C:3]([H:11])[H:12])[O:5][H:13])([H:14])[H:15])([H:8])([H:9])[H:10]"
C        2.04301134      -0.00647196       0.70899279
C        0.59738325       0.33740387       0.63469617
C       -0.50743385      -1.02871351      -1.05429857
C       -1.08437950      -0.22755406      -0.09642391
O       -1.99239529      -0.67188234       0.80746333
C       -1.04638507       1.27971260      -0.27354034
O        0.36202594       1.47265036      -0.03866105
H        2.64471719       0.37859339      -0.11886095
H        2.16505150      -1.08618585       0.79184200
H        2.41592707       0.43210529       1.64043527
H       -0.03692785      -0.59656186      -1.92478370
H       -0.46839745      -2.10299569      -0.92530513
H       -2.16253086      -1.60250830       0.64274340
H       -1.29318243       1.62473972      -1.27717774
H       -1.63648399       1.79766834       0.48287843
15
Frame=2 idx=010860 GeodesicLength=0.14334466429059503 rxn_smarts="[C:1]([C@@:2]12[C:3]([H:11])([H:12])[C@:4]1([O:5][H:13])[C:6]([H:14])([H:15])[O:7]2)([H:8])([H:9])[H:10]>>[C:1]([C-:2]=[O+:7][C:6]([C:4](=[C:3]([H:11])[H:12])[O:5][H:13])([H:14])[H:15])([H:8])([H:9])[H:10]"
C        2.06918662       0.01011282       0.71445727
C        0.61587342       0.30528617       0.59965894
C       -0.52458721      -1.04104461      -1.05095137
C       -1.09813391      -0.23264087      -0.09421740
O       -1.99973500      -0.66648473       0.82190767
C       -1.04169694       1.27160008      -0.27784708
O        0.36488587       1.45987833      -0.03449477
H        2.68978475       0.46505853      -0.06258941
H        2.23203968      -1.06738727       0.73652296
H        2.39407690       0.40199285       1.68379558
H       -0.08090236      -0.61943307      -1.94058847
H       -0.50730011      -2.11618705      -0.92394849
H       -2.20729965      -1.58657995       0.64212188
H       -1.27625220       1.61412128      -1.28535582
H       -1.62993984       1.80170750       0.47152852
15
Frame=3 idx=010860 GeodesicLength=0.20774183142142322 rxn_smarts="[C:1]([C@@:2]12[C:3]([H:11])([H:12])[C@:4]1([O:5][H:13])[C:6]([H:14])([H:15])[O:7]2)([H:8])([H:9])[H:10]>>[C:1]([C-:2]=[O+:7][C:6]([C:4](=[C:3]([H:11])[H:12])[O:5][H:13])([H:14])[H:15])([H:8])([H:9])[H:10]"
C        2.09254011       0.02523535       0.71991700
C        0.63507238       0.27497349       0.56245716
C       -0.54054650      -1.05246189      -1.04823274
C       -1.11014221      -0.23720366      -0.09195819
O       -2.00429549      -0.66134932       0.83674914
C       -1.03691868       1.26383360      -0.28255636
O        0.36762122       1.44821819      -0.03002026
H        2.72677063       0.54691828      -0.00242472
H        2.29778486      -1.04482919       0.68340209
H        2.37109796       0.36698152       1.72196271
H       -0.12495430      -0.64125889      -1.95626375
H       -0.54374625      -2.12798718      -0.92266625
H       -2.24719682      -1.57006738       0.64421464
H       -1.25916481       1.60336491      -1.29393943
H       -1.62392209       1.80563214       0.45935896
15
Frame=4 idx=010860 GeodesicLength=0.266764213512444 rxn_smarts="[C:1]([C@@:2]12[C:3]([H:11])([H:12])[C@:4]1([O:5][H:13])[C:6]([H:14])([H:15])[O:7]2)([H:8])([H:9])[H:10]>>[C:1]([C-:2]=[O+:7][C:6]([C:4](=[C:3]([H:11])[H:12])[O:5][H:13])([H:14])[H:15])([H:8])([H:9])[H:10]"
C        2.11306139       0.03892075       0.72445787
C        0.65472507       0.24765493       0.52423026
C       -0.55417573      -1.06320048      -1.04480297
C       -1.12012634      -0.24124225      -0.08902033
O       -2.00598671      -0.65653116       0.85240169
C       -1.03231564       1.25640299      -0.28770200
O        0.36972308       1.43836842      -0.02443605
H        2.75582955       0.62491382       0.06120367
H        2.36122070      -1.01861405       0.62943555
H        2.34798921       0.32518215       1.75454612
H       -0.16743728      -0.66259546      -1.97032428
H       -0.57646771      -2.13864608      -0.91960437
H       -2.28486900      -1.55196338       0.64710846
H       -1.24174025       1.59188932      -1.30323187
H       -1.61943035       1.80946048       0.44573826
15
Frame=5 idx=010860 GeodesicLength=0.32243634692160433 rxn_smarts="[C:1]([C@@:2]12[C:3]([H:11])([H:12])[C@:4]1([O:5][H:13])[C:6]([H:14])([H:15])[O:7]2)([H:8])([H:9])[H:10]>>[C:1]([C-:2]=[O+:7][C:6]([C:4](=[C:3]([H:11])[H:12])[O:5][H:13])([H:14])[H:15])([H:8])([H:9])[H:10]"
C        2.13118161       0.05131967       0.72893029
C        0.67523300       0.22253075       0.48310608
C       -0.56688242      -1.07314169      -1.04203078
C       -1.12838381      -0.24482236      -0.08596457
O       -2.00451386      -0.65204717       0.86885595
C       -1.02774781       1.24934803      -0.29327552
O        0.37168919       1.42956130      -0.01910673
H        2.77830183       0.69788670       0.12903546
H        2.42328644      -0.98857640       0.57797490
H        2.32357154       0.27887883       1.78209980
H       -0.21038432      -0.68316862      -1.98428289
H       -0.60680517      -2.14815606      -0.91641169
H       -2.31848482      -1.53307084       0.65242994
H       -1.22470304       1.58028469      -1.31284639
H       -1.61535837       1.81317318       0.43148613
15
Frame=6 idx=010860 GeodesicLength=0.3745249870060432 rxn_smarts="[C:1]([C@@:2]12[C:3]([H:11])([H:12])[C@:4]1([O:5][H:13])[C:6]([H:14])([H:15])[O:7]2)([H:8])([H:9])[H:10]>>[C:1]([C-:2]=[O+:7][C:6]([C:4](=[C:3]([H:11])[H:12])[O:5][H:13])([H:14])[H:15])([H:8])([H:9])[H:10]"
C        2.14641762       0.06179718       0.73315598
C        0.69594094       0.19992146       0.44020696
C       -0.57803249      -1.08177311      -1.03988151
C       -1.13510588      -0.24773780      -0.08297489
O       -2.00093173      -0.64773351       0.88507444
C       -1.02337758       1.24296638      -0.29906166
O        0.37316565       1.42195083      -0.01285994
H        2.79345059       0.76306782       0.19787596
H        2.48260106      -0.95616204       0.53140520
H        2.29898019       0.23074274       1.80360977
H       -0.25307658      -0.70223465      -1.99788995
H       -0.63387045      -2.15610651      -0.91326969
H       -2.34637803      -1.51480516       0.66063564
H       -1.20748562       1.56916134      -1.32260453
H       -1.61229769       1.81694502       0.41657821
15
Frame=7 idx=010860 GeodesicLength=0.4239816996978765 rxn_smarts="[C:1]([C@@:2]12[C:3]([H:11])([H:12])[C@:4]1([O:5][H:13])[C:6]([H:14])([H:15])[O:7]2)([H:8])([H:9])[H:10]>>[C:1]([C-:2]=[O+:7][C:6]([C:4](=[C:3]([H:11])[H:12])[O:5][H:13])([H:14])[H:15])([H:8])([H:9])[H:10]"
C        2.15924584       0.07095845       0.73662971
C        0.71728001       0.18067544       0.39484014
C       -0.58751072      -1.08982276      -1.03736732
C       -1.13995796      -0.25010010      -0.07946879
O       -1.99416176      -0.64351118       0.90238712
C       -1.01926568       1.23706671      -0.30549724
O        0.37411278       1.41588103      -0.00651842
H        2.80259533       0.82393411       0.27148187
H        2.53991116      -0.91999254       0.48452339
H        2.27315238       0.17602127       1.81987884
H       -0.29535346      -0.72121529      -2.01033159
H       -0.65739441      -2.16320732      -0.90830106
H       -2.37172609      -1.49503956       0.67045817
H       -1.19056904       1.55756570      -1.33309308
H       -1.61035839       1.82078603       0.40037825
15
Frame=8 idx=010860 GeodesicLength=0.47160686322910894 rxn_smarts="[C:1]([C@@:2]12[C:3]([H:11])([H:12])[C@:4]1([O:5][H:13])[C:6]([H:14])([H:15])[O:7]2)([H:8])([H:9])[H:10]>>[C:1]([C-:2]=[O+:7][C:6]([C:4](=[C:3]([H:11])[H:12])[O:5][H:13])([H:14])[H:15])([H:8])([H:9])[H:10]"
C        2.16927132       0.07831028       0.74004445
C        0.73921651       0.16429739       0.34619456
C       -0.59593555      -1.09680681      -1.03553083
C       -1.14315982      -0.25173623      -0.07600521
O       -1.98459557      -0.63890816       0.92013081
C       -1.01523455       1.23189111      -0.31260428
O        0.37489498       1.41077463      -0.00066852
H        2.80515047       0.87835193       0.34877069
H        2.59548578      -0.88082071       0.44116423
H        2.24532596       0.11773092       1.83082436
H       -0.33867484      -0.73937781      -2.02267859
H       -0.67814189      -2.16908289      -0.90307219
H       -2.39090912      -1.47592781       0.68418308
H       -1.17398707       1.54633107      -1.34411248
H       -1.60870660       1.82497309       0.38335992
15
Frame=9 idx=010860 GeodesicLength=0.5167926532530458 rxn_smarts="[C:1]([C@@:2]12[C:3]([H:11])([H:12])[C@:4]1([O:5][H:13])[C:6]([H:14])([H:15])[O:7]2)([H:8])([H:9])[H:10]>>[C:1]([C-:2]=[O+:7][C:6]([C:4](=[C:3]([H:11])[H:12])[O:5][H:13])([H:14])[H:15])([H:8])([H:9])[H:10]"
C        2.17659785       0.08392583       0.74212221
C        0.76090474       0.15235282       0.29692040
C       -0.60145779      -1.10272803      -1.03281576
C       -1.14462226      -0.25266971      -0.07200279
O       -1.97274604      -0.63463268       0.93808628
C       -1.01186671       1.22747851      -0.31988350
O        0.37458005       1.40757182       0.00636536
H        2.80184531       0.92488909       0.42650003
H        2.64671773      -0.83981256       0.39993819
H        2.21797956       0.05603310       1.83499494
H       -0.37978700      -0.75697027      -2.03294634
H       -0.69358213      -2.17379187      -0.89561346
H       -2.40783717      -1.45589894       0.69827498
H       -1.15768862       1.53510877      -1.35536503
H       -1.60903753       1.82914414       0.36542447
15
Frame=10 idx=010860 GeodesicLength=0.5605317862866996 rxn_smarts="[C:1]([C@@:2]12[C:3]([H:11])([H:12])[C@:4]1([O:5][H:13])[C:6]([H:14])([H:15])[O:7]2)([H:8])([H:9])[H:10]>>[C:1]([C-:2]=[O+:7][C:6]([C:4](=[C:3]([H:11])[H:12])[O:5][H:13])([H:14])[H:15])([H:8])([H:9])[H:10]"
C        2.18140212       0.08768103       0.74278681
C        0.78189362       0.14463494       0.24786858
C       -0.60419060      -1.10769259      -1.02890298
C       -1.14484466      -0.25275489      -0.06756271
O       -1.96005213      -0.62988764       0.95565221
C       -1.00910543       1.22392048      -0.32757367
O        0.37306024       1.40591051       0.01505082
H        2.79244664       0.96421548       0.50532789
H        2.69451949      -0.79635931       0.35929956
H        2.19170849      -0.00989698       1.83228569
H       -0.41843267      -0.77443017      -2.04081830
H       -0.70409891      -2.17746177      -0.88555529
H       -2.42200064      -1.43557487       0.71335258
H       -1.14092402       1.52399523      -1.36715504
H       -1.61138155       1.83370055       0.34594385
15
Frame=11 idx=010860 GeodesicLength=0.6032995016903402 rxn_smarts="[C:1]([C@@:2]12[C:3]([H:11])([H:12])[C@:4]1([O:5][H:13])[C:6]([H:14])([H:15])[O:7]2)([H:8])([H:9])[H:10]>>[C:1]([C-:2]=[O+:7][C:6]([C:4](=[C:3]([H:11])[H:12])[O:5][H:13])([H:14])[H:15])([H:8])([H:9])[H:10]"
C        2.18380566       0.08966387       0.74203656
C        0.80212408       0.14113426       0.19912057
C       -0.60412818      -1.11147564      -1.02413302
C       -1.14391282      -0.25207802      -0.06279400
O       -1.94656125      -0.62510379       0.97266671
C       -1.00703761       1.22122430      -0.33522852
O        0.37047356       1.40557904       0.02480162
H        2.77823381       0.99498627       0.58278527
H        2.73796047      -0.75219541       0.32189030
H        2.16630617      -0.07677396       1.82292140
H       -0.45453460      -0.79140081      -2.04655502
H       -0.70934932      -2.17994950      -0.87345858
H       -2.43360829      -1.41534375       0.72875655
H       -1.12445720       1.51334055      -1.37880111
H       -1.61531447       1.83839259       0.32599126
15
Frame=12 idx=010860 GeodesicLength=0.6461707303120555 rxn_smarts="[C:1]([C@@:2]12[C:3]([H:11])([H:12])[C@:4]1([O:5][H:13])[C:6]([H:14])([H:15])[O:7]2)([H:8])([H:9])[H:10]>>[C:1]([C-:2]=[O+:7][C:6]([C:4](=[C:3]([H:11])[H:12])[O:5][H:13])([H:14])[H:15])([H:8])([H:9])[H:10]"
C        2.18359168       0.08991550       0.74056955
C        0.82228715       0.14169874       0.14841613
C       -0.60203164      -1.11401423      -1.01942491
C       -1.14148008      -0.25064756      -0.05790691
O       -1.93073513      -0.62021005       0.98990800
C       -1.00548895       1.21939329      -0.34306096
O        0.36764530       1.40635292       0.03299490
H        2.75957552       1.01751035       0.66038869
H        2.77799185      -0.70761686       0.28948906
H        2.13894913      -0.14416107       1.80798584
H       -0.49003879      -0.80789381      -2.05121854
H       -0.71006156      -2.18121985      -0.86032963
H       -2.44098958      -1.39564681       0.74601530
H       -1.10979274       1.50327951      -1.39029765
H       -1.61942214       1.84325990       0.30647114
15
Frame=13 idx=010860 GeodesicLength=0.6885385811895144 rxn_smarts="[C:1]([C@@:2]12[C:3]([H:11])([H:12])[C@:4]1([O:5][H:13])[C:6]([H:14])([H:15])[O:7]2)([H:8])([H:9])[H:10]>>[C:1]([C-:2]=[O+:7][C:6]([C:4](=[C:3]([H:11])[H:12])[O:5][H:13])([H:14])[H:15])([H:8])([H:9])[H:10]"
C        2.18258012       0.08890181       0.73660258
C        0.83933176       0.14567616       0.10511359
C       -0.59605527      -1.11596409      -1.01135645
C       -1.13992131      -0.24845983      -0.05245777
O       -1.91993737      -0.61440535       1.00439176
C       -1.00480764       1.21822441      -0.35063788
O        0.36232329       1.40770120       0.04694702
H        2.73693300       1.03314546       0.73381028
H        2.81377719      -0.66049180       0.25357920
H        2.12014779      -0.21396254       1.78552218
H       -0.51842057      -0.82522675      -2.05107127
H       -0.70553517      -2.18179637      -0.84271333
H       -2.45133259      -1.37519269       0.75959994
H       -1.09205099       1.49324454      -1.40179368
H       -1.62703226       1.84860585       0.28446384
15
Frame=14 idx=010860 GeodesicLength=0.7324486477393806 rxn_smarts="[C:1]([C@@:2]12[C:3]([H:11])([H:12])[C@:4]1([O:5][H:13])[C:6]([H:14])([H:15])[O:7]2)([H:8])([H:9])[H:10]>>[C:1]([C-:2]=[O+:7][C:6]([C:4](=[C:3]([H:11])[H:12])[O:5][H:13])([H:14])[H:15])([H:8])([H:9])[H:10]"
C        2.17838468       0.08621593       0.73244135
C        0.85741830       0.15367222       0.05670202
C       -0.58876750      -1.11648656      -1.00450300
C       -1.13609779      -0.24556198      -0.04702069
O       -1.90424303      -0.60868307       1.02032853
C       -1.00444726       1.21790068      -0.35847757
O        0.35799645       1.41021458       0.05549623
H        2.71013788       1.04047426       0.80870519
H        2.84664704      -0.61423913       0.22599341
H        2.09481658      -0.28279622       1.75828217
H       -0.54814209      -0.84197404      -2.05106724
H       -0.69678732      -2.18098228      -0.82525736
H       -2.45536429      -1.35568033       0.77677975
H       -1.07862580       1.48392499      -1.41294592
H       -1.63292584       1.85400094       0.26454312
15
Frame=15 idx=010860 GeodesicLength=0.7777234349163998 rxn_smarts="[C:1]([C@@:2]12[C:3]([H:11])([H:12])[C@:4]1([O:5][H:13])[C:6]([H:14])([H:15])[O:7]2)([H:8])([H:9])[H:10]>>[C:1]([C-:2]=[O+:7][C:6]([C:4](=[C:3]([H:11])[H:12])[O:5][H:13])([H:14])[H:15])([H:8])([H:9])[H:10]"
C        2.17222725       0.08210995       0.72707105
C        0.87454973       0.16524706       0.00907187
C       -0.57905351      -1.11591689      -0.99678957
C       -1.13155095      -0.24192710      -0.04134607
O       -1.88824784      -0.60256070       1.03587094
C       -1.00469988       1.21832697      -0.36630799
O        0.35321013       1.41372001       0.06323293
H        2.67974250       1.04021212       0.88193580
H        2.87615601      -0.56794196       0.20158764
H        2.06962813      -0.35168360       1.72539814
H       -0.57510933      -0.85888354      -2.04893707
H       -0.68341701      -2.17901534      -0.80592482
H       -2.45755990      -1.33636488       0.79413086
H       -1.06655626       1.47501928      -1.42388961
H       -1.63931905       1.85965862       0.24489588
15
Frame=16 idx=010860 GeodesicLength=0.8241351763787674 rxn_smarts="[C:1]([C@@:2]12[C:3]([H:11])([H:12])[C@:4]1([O:5][H:13])[C:6]([H:14])([H:15])[O:7]2)([H:8])([H:9])[H:10]>>[C:1]([C-:2]=[O+:7][C:6]([C:4](=[C:3]([H:11])[H:12])[O:5][H:13])([H:14])[H:15])([H:8])([H:9])[H:10]"
C        2.16492484       0.07694288       0.72019424
C        0.88991355       0.17943279      -0.03485094
C       -0.56683678      -1.11453346      -0.98735817
C       -1.12729082      -0.23764204      -0.03542620
O       -1.87449415      -0.59576379       1.05011084
C       -1.00546316       1.21931823      -0.37396023
O        0.34745631       1.41760487       0.07239613
H        2.64624767       1.03314218       0.95210360
H        2.90234906      -0.52047080       0.17805117
H        2.04820206      -0.42069635       1.68647592
H       -0.59776777      -0.87639121      -2.04388168
H       -0.66597977      -2.17606855      -0.78397455
H       -2.46037472      -1.31690836       0.80995594
H       -1.05409438       1.46636986      -1.43453206
H       -1.64679196       1.86566374       0.22469599
