12
Frame=0 idx=001896 GeodesicLength=0.0 rxn_smarts="[C:1]([C:2]([C:3](=[O:4])[N:5]([H:11])[H:12])([H:9])[H:10])([H:6])([H:7])[H:8]>>[C+:2](=[C:3]([O-:4])[N:5]([H:11])[H:12])[H:9].[C:1]([H:6])([H:7])([H:8])[H:10]"
C       -2.00842448       0.31577822       0.70800404
C        0.29209296      -1.01754182      -0.02333619
C        1.11194486       0.14700146      -0.37991051
O        0.69379656       1.28926092      -0.37170588
N        2.39531247      -0.19818339      -0.70318970
H       -2.90511415      -0.12525228       1.14189792
H       -1.76300721       1.26553029       1.17551951
H       -2.13605803       0.46366001      -0.36107641
H       -0.32313107      -1.29275467      -0.89139505
H       -1.17435362      -0.38360090       0.92222791
H        2.79810719      -1.02815495      -0.30449668
H        3.01883453       0.56425711      -0.91253897
12
Frame=1 idx=001896 GeodesicLength=0.09106831073363261 rxn_smarts="[C:1]([C:2]([C:3](=[O:4])[N:5]([H:11])[H:12])([H:9])[H:10])([H:6])([H:7])[H:8]>>[C+:2](=[C:3]([O-:4])[N:5]([H:11])[H:12])[H:9].[C:1]([H:6])([H:7])([H:8])[H:10]"
C       -1.98896762       0.30819472       0.72163833
C        0.25129056      -0.99073986      -0.08058741
C        1.10197098       0.15195331      -0.42318646
O        0.67670024       1.29037244      -0.48464285
N        2.40000641      -0.20046181      -0.66155169
H       -2.87451413      -0.13370365       1.17771661
H       -1.73133248       1.25195914       1.19550144
H       -2.16880634       0.47737597      -0.33697433
H       -0.33316723      -1.28802000      -0.96084243
H       -1.14572133      -0.40612989       0.93472724
H        2.77903116      -1.01383852      -0.20906103
H        3.03350977       0.55303814      -0.87273741
12
Frame=2 idx=001896 GeodesicLength=0.18251672774288236 rxn_smarts="[C:1]([C:2]([C:3](=[O:4])[N:5]([H:11])[H:12])([H:9])[H:10])([H:6])([H:7])[H:8]>>[C+:2](=[C:3]([O-:4])[N:5]([H:11])[H:12])[H:9].[C:1]([H:6])([H:7])([H:8])[H:10]"
C       -1.96759764       0.30081365       0.73307667
C        0.21152717      -0.96402623      -0.13503513
C        1.09147662       0.15615143      -0.46557192
O        0.66310070       1.28814404      -0.59460855
N        2.39905974      -0.20065300      -0.62006255
H       -2.84239612      -0.14207150       1.20911080
H       -1.69650471       1.23715491       1.21489715
H       -2.19657718       0.49430721      -0.31209458
H       -0.34102396      -1.28742497      -1.02498320
H       -1.11558463      -0.42974480       0.94471614
H        2.75152695      -0.99612528      -0.11725993
H        3.04299305       0.54347453      -0.83218491
12
Frame=3 idx=001896 GeodesicLength=0.2743211726083608 rxn_smarts="[C:1]([C:2]([C:3](=[O:4])[N:5]([H:11])[H:12])([H:9])[H:10])([H:6])([H:7])[H:8]>>[C+:2](=[C:3]([O-:4])[N:5]([H:11])[H:12])[H:9].[C:1]([H:6])([H:7])([H:8])[H:10]"
C       -1.94461061       0.29403982       0.74248922
C        0.17266349      -0.93779468      -0.18668044
C        1.08055001       0.15909791      -0.50751669
O        0.65246635       1.28245921      -0.70096497
N        2.39312122      -0.19865212      -0.57898207
H       -2.80957254      -0.14981999       1.23586109
H       -1.65847520       1.22094754       1.23460897
H       -2.21942099       0.51541251      -0.28632765
H       -0.34664394      -1.29180094      -1.08341986
H       -1.08485503      -0.45507488       0.95158879
H        2.71723430      -0.97479865      -0.02923883
H        3.04754294       0.53598427      -0.79141757
12
Frame=4 idx=001896 GeodesicLength=0.36654751021918575 rxn_smarts="[C:1]([C:2]([C:3](=[O:4])[N:5]([H:11])[H:12])([H:9])[H:10])([H:6])([H:7])[H:8]>>[C+:2](=[C:3]([O-:4])[N:5]([H:11])[H:12])[H:9].[C:1]([H:6])([H:7])([H:8])[H:10]"
C       -1.92071176       0.28787366       0.75013493
C        0.13451548      -0.91157122      -0.23551141
C        1.06968778       0.16122124      -0.54757076
O        0.64496852       1.27367046      -0.80421910
N        2.38277906      -0.19470740      -0.53867898
H       -2.77662681      -0.15733617       1.25837778
H       -1.61809692       1.20329523       1.25462624
H       -2.23780118       0.54044987      -0.25956291
H       -0.34945003      -1.30047905      -1.13609629
H       -1.05411618      -0.48193054       0.95531816
H        2.67703419      -0.95067466       0.05418096
H        3.04781786       0.53018858      -0.75099861
12
Frame=5 idx=001896 GeodesicLength=0.45915699112822683 rxn_smarts="[C:1]([C:2]([C:3](=[O:4])[N:5]([H:11])[H:12])([H:9])[H:10])([H:6])([H:7])[H:8]>>[C+:2](=[C:3]([O-:4])[N:5]([H:11])[H:12])[H:9].[C:1]([H:6])([H:7])([H:8])[H:10]"
C       -1.89605011       0.28258434       0.75622170
C        0.09690670      -0.88543089      -0.28194131
C        1.05882459       0.16230975      -0.58607489
O        0.64018074       1.26159045      -0.90439457
N        2.36847939      -0.18870069      -0.49923554
H       -2.74398095      -0.16426192       1.27674873
H       -1.57530402       1.18395546       1.27545366
H       -2.25171208       0.56985772      -0.23154676
H       -0.34930635      -1.31377516      -1.18273504
H       -1.02402359      -0.51069242       0.95543348
H        2.63193389      -0.92384892       0.13283510
H        3.04405180       0.52641228      -0.71076455
12
Frame=6 idx=001896 GeodesicLength=0.552166585769238 rxn_smarts="[C:1]([C:2]([C:3](=[O:4])[N:5]([H:11])[H:12])([H:9])[H:10])([H:6])([H:7])[H:8]>>[C+:2](=[C:3]([O-:4])[N:5]([H:11])[H:12])[H:9].[C:1]([H:6])([H:7])([H:8])[H:10]"
C       -1.87115317       0.27816102       0.76103774
C        0.05962353      -0.85893564      -0.32626277
C        1.04809331       0.16286621      -0.62222613
O        0.63832833       1.24649229      -1.00195111
N        2.35072366      -0.18082502      -0.46088002
H       -2.71216214      -0.17092249       1.29121670
H       -1.53073161       1.16271693       1.29723064
H       -2.26134905       0.60350427      -0.20206188
H       -0.34583976      -1.33120364      -1.22306341
H       -0.99510651      -0.54128009       0.95178726
H        2.58272262      -0.89482450       0.20663936
H        3.03685078       0.52425066      -0.67146638
12
Frame=7 idx=001896 GeodesicLength=0.6455673209872924 rxn_smarts="[C:1]([C:2]([C:3](=[O:4])[N:5]([H:11])[H:12])([H:9])[H:10])([H:6])([H:7])[H:8]>>[C+:2](=[C:3]([O-:4])[N:5]([H:11])[H:12])[H:9].[C:1]([H:6])([H:7])([H:8])[H:10]"
C       -1.84609156       0.27471624       0.76480223
C        0.02245251      -0.83196801      -0.36911446
C        1.03735304       0.16295929      -0.65630130
O        0.63926895       1.22826639      -1.09722563
N        2.32979930      -0.17104412      -0.42364957
H       -2.68139808      -0.17720683       1.30192775
H       -1.48433868       1.13918846       1.32024859
H       -2.26663313       0.64155726      -0.17073283
H       -0.33900001      -1.35269125      -1.25666550
H       -0.96781577      -0.57390874       0.94389006
H        2.52993943      -0.86365317       0.27581363
H        3.02646399       0.52378450      -0.63299297
12
Frame=8 idx=001896 GeodesicLength=0.7393944999715969 rxn_smarts="[C:1]([C:2]([C:3](=[O:4])[N:5]([H:11])[H:12])([H:9])[H:10])([H:6])([H:7])[H:8]>>[C+:2](=[C:3]([O-:4])[N:5]([H:11])[H:12])[H:9].[C:1]([H:6])([H:7])([H:8])[H:10]"
C       -1.82074600       0.27227888       0.76774840
C       -0.01491044      -0.80443127      -0.41140138
C        1.02643936       0.16262604      -0.68887855
O        0.64298723       1.20678746      -1.19089274
N        2.30580308      -0.15926907      -0.38738969
H       -2.65166446      -0.18307815       1.30914670
H       -1.43576320       1.11282369       1.34471674
H       -2.26733563       0.68414213      -0.13705709
H       -0.32900055      -1.37806305      -1.28315795
H       -0.94245910      -0.60880467       0.93112942
H        2.47363176      -0.83016412       0.34103465
H        3.01301794       0.52515213      -0.59499851
12
Frame=9 idx=001896 GeodesicLength=0.8337969520395669 rxn_smarts="[C:1]([C:2]([C:3](=[O:4])[N:5]([H:11])[H:12])([H:9])[H:10])([H:6])([H:7])[H:8]>>[C+:2](=[C:3]([O-:4])[N:5]([H:11])[H:12])[H:9].[C:1]([H:6])([H:7])([H:8])[H:10]"
C       -1.79502924       0.27092723       0.77007408
C       -0.05273676      -0.77610187      -0.45368579
C        1.01507739       0.16204966      -0.72007791
O        0.64944803       1.18167699      -1.28363540
N        2.27861371      -0.14509548      -0.35183458
H       -2.62289161      -0.18830087       1.31313121
H       -1.38510947       1.08327089       1.37045032
H       -2.26294801       0.73101293      -0.10061779
H       -0.31532021      -1.40714680      -1.30153975
H       -0.91920974      -0.64573359       0.91294282
H        2.41387859      -0.79562697       0.40123852
H        2.99622732       0.52906788      -0.55644573
12
Frame=10 idx=001896 GeodesicLength=0.9288106514065625 rxn_smarts="[C:1]([C:2]([C:3](=[O:4])[N:5]([H:11])[H:12])([H:9])[H:10])([H:6])([H:7])[H:8]>>[C+:2](=[C:3]([O-:4])[N:5]([H:11])[H:12])[H:9].[C:1]([H:6])([H:7])([H:8])[H:10]"
C       -1.76858833       0.27051112       0.77184196
C       -0.09118033      -0.74711984      -0.49683152
C        1.00322066       0.16110103      -0.75040762
O        0.65890355       1.15271965      -1.37554591
N        2.24818924      -0.12857229      -0.31696051
H       -2.59489338      -0.19291809       1.31394502
H       -1.33183345       1.04974057       1.39732330
H       -2.25302035       0.78188070      -0.06099052
H       -0.29911545      -1.43876726      -1.31119081
H       -0.89833317      -0.68494576       0.88858585
H        2.35052720      -0.75899261       0.45794344
H        2.97612382       0.53536278      -0.51771269
12
Frame=11 idx=001896 GeodesicLength=1.0245883368325532 rxn_smarts="[C:1]([C:2]([C:3](=[O:4])[N:5]([H:11])[H:12])([H:9])[H:10])([H:6])([H:7])[H:8]>>[C+:2](=[C:3]([O-:4])[N:5]([H:11])[H:12])[H:9].[C:1]([H:6])([H:7])([H:8])[H:10]"
C       -1.74138599       0.27090139       0.77304476
C       -0.13019361      -0.71746709      -0.54090731
C        0.99074355       0.16003922      -0.77944815
O        0.67155869       1.11953095      -1.46647287
N        2.21461026      -0.10960759      -0.28293397
H       -2.56773619      -0.19690222       1.31151538
H       -1.27646879       1.01186379       1.42478398
H       -2.23709340       0.83585524      -0.01811217
H       -0.28084604      -1.47148587      -1.31088513
H       -0.87995414      -0.72593331       0.85780581
H        2.28408263      -0.72104368       0.51044992
H        2.95268303       0.54424916      -0.47884025
12
Frame=12 idx=001896 GeodesicLength=1.1214778769414717 rxn_smarts="[C:1]([C:2]([C:3](=[O:4])[N:5]([H:11])[H:12])([H:9])[H:10])([H:6])([H:7])[H:8]>>[C+:2](=[C:3]([O-:4])[N:5]([H:11])[H:12])[H:9].[C:1]([H:6])([H:7])([H:8])[H:10]"
C       -1.71267334       0.27176267       0.77357913
C       -0.16949411      -0.68799093      -0.58623333
C        0.97773692       0.15803510      -0.80797505
O        0.68740537       1.08131720      -1.55613531
N        2.17776355      -0.08813625      -0.24950589
H       -2.54083452      -0.20009882       1.30588473
H       -1.21824235       0.96874356       1.45214221
H       -2.21422811       0.89209591       0.02824964
H       -0.26325152      -1.50293758      -1.30114313
H       -0.86396279      -0.76870641       0.82030642
H        2.21411514      -0.67998126       0.56065327
H        2.92566577       0.55589681      -0.43982268
12
Frame=13 idx=001896 GeodesicLength=1.2197775641285387 rxn_smarts="[C:1]([C:2]([C:3](=[O:4])[N:5]([H:11])[H:12])([H:9])[H:10])([H:6])([H:7])[H:8]>>[C+:2](=[C:3]([O-:4])[N:5]([H:11])[H:12])[H:9].[C:1]([H:6])([H:7])([H:8])[H:10]"
C       -1.68310818       0.27285108       0.77327490
C       -0.20844354      -0.65896320      -0.63121361
C        0.96404616       0.15594771      -0.83413606
O        0.70622632       1.03802682      -1.64283545
N        2.13817749      -0.06377484      -0.21670907
H       -2.51496340      -0.20262801       1.29663720
H       -1.15978405       0.92085405       1.47866780
H       -2.18451844       0.94869615       0.07706732
H       -0.24642038      -1.53061319      -1.28203013
H       -0.85014752      -0.81188127       0.77750182
H        2.14262362      -0.63749651       0.60698625
H        2.89631192       0.56898122      -0.40321097
12
Frame=14 idx=001896 GeodesicLength=1.3195443522456292 rxn_smarts="[C:1]([C:2]([C:3](=[O:4])[N:5]([H:11])[H:12])([H:9])[H:10])([H:6])([H:7])[H:8]>>[C+:2](=[C:3]([O-:4])[N:5]([H:11])[H:12])[H:9].[C:1]([H:6])([H:7])([H:8])[H:10]"
C       -1.65244743       0.27390494       0.77192583
C       -0.24601869      -0.63178513      -0.67455905
C        0.95033361       0.15243698      -0.85834604
O        0.72740275       0.98909942      -1.72490062
N        2.09687232      -0.03728563      -0.18515040
H       -2.48963512      -0.20427204       1.28428095
H       -1.10135718       0.86893979       1.50282609
H       -2.14846203       1.00365069       0.12749502
H       -0.23458049      -1.55184275      -1.25732156
H       -0.83760862      -0.85470347       0.73126900
H        2.07071321      -0.59243027       0.65061514
H        2.86478766       0.58428747      -0.36813436
12
Frame=15 idx=001896 GeodesicLength=1.4203809220885033 rxn_smarts="[C:1]([C:2]([C:3](=[O:4])[N:5]([H:11])[H:12])([H:9])[H:10])([H:6])([H:7])[H:8]>>[C+:2](=[C:3]([O-:4])[N:5]([H:11])[H:12])[H:9].[C:1]([H:6])([H:7])([H:8])[H:10]"
C       -1.62190734       0.27487446       0.76952996
C       -0.28147893      -0.60656721      -0.71429950
C        0.93682629       0.14831783      -0.87913556
O        0.75016225       0.93556991      -1.80009230
N        2.05525207      -0.00914835      -0.15534036
H       -2.46570606      -0.20535686       1.26906949
H       -1.04604321       0.81493076       1.52408468
H       -2.10811661       1.05496286       0.17804866
H       -0.22767195      -1.56556914      -1.22996866
H       -0.82546461      -0.89577461       0.68433164
H        2.00082463      -0.54598190       0.69081759
H        2.83332347       0.59974226      -0.33704564
12
Frame=16 idx=001896 GeodesicLength=1.5219816561939101 rxn_smarts="[C:1]([C:2]([C:3](=[O:4])[N:5]([H:11])[H:12])([H:9])[H:10])([H:6])([H:7])[H:8]>>[C+:2](=[C:3]([O-:4])[N:5]([H:11])[H:12])[H:9].[C:1]([H:6])([H:7])([H:8])[H:10]"
C       -1.59206403       0.27579641       0.76617801
C       -0.31436819      -0.58343822      -0.74944473
C        0.92384859       0.14355467      -0.89635053
O        0.77341661       0.87858573      -1.86688836
N        2.01423949       0.02010387      -0.12747241
H       -2.44324653      -0.20602022       1.25152521
H       -0.99514104       0.76025816       1.54220376
H       -2.06535564       1.10161802       0.22801158
H       -0.22581547      -1.57196226      -1.20363109
H       -0.81280754      -0.93460642       0.63846841
H        1.93368516      -0.49719817       0.72853889
H        2.80360859       0.61330841      -0.31113875
