12
Frame=0 idx=005244 GeodesicLength=0.0 rxn_smarts="[C:1]([c:2]1[c:3]([H:10])[n:4]([H:11])[n:5][c:6]1[H:12])([H:7])([H:8])[H:9]>>[C:1]([c:2]1[c+:3]([H:10])[n:4]([H:11])[n:5]([H:12])[c-:6]1)([H:7])([H:8])[H:9]"
C       -1.79281546      -0.43415889       0.03118840
C       -0.37650624       0.03819007      -0.03200904
C        0.74433491      -0.71792945      -0.23070659
N        1.82512197       0.08481826      -0.15845187
N        1.43704419       1.38244121      -0.03790844
C        0.04947158       1.40244236       0.06335856
H       -2.37020893      -0.04933015      -0.81093751
H       -1.85663954      -1.52339027       0.01666151
H       -2.27294207      -0.07591845       0.94313840
H        0.85914453      -1.77505487      -0.42360093
H        2.78821900      -0.14588305      -0.32640022
H        0.96577610       1.81377324       0.96566778
12
Frame=1 idx=005244 GeodesicLength=0.035392963452152655 rxn_smarts="[C:1]([c:2]1[c:3]([H:10])[n:4]([H:11])[n:5][c:6]1[H:12])([H:7])([H:8])[H:9]>>[C:1]([c:2]1[c+:3]([H:10])[n:4]([H:11])[n:5]([H:12])[c-:6]1)([H:7])([H:8])[H:9]"
C       -1.79241792      -0.43425825       0.03168667
C       -0.37585236       0.03669002      -0.03487681
C        0.74454460      -0.72087662      -0.23141944
N        1.82596818       0.08073339      -0.14796533
N        1.43590169       1.37849460      -0.03909007
C        0.05269668       1.39997717       0.05735033
H       -2.37392043      -0.04107644      -0.80373942
H       -1.85752543      -1.52324272       0.00699171
H       -2.26769398      -0.08480418       0.94962541
H        0.85882815      -1.77732798      -0.42787235
H        2.78805463      -0.14828084      -0.32384278
H        0.96141619       1.83397186       0.96315208
12
Frame=2 idx=005244 GeodesicLength=0.07079239812501337 rxn_smarts="[C:1]([c:2]1[c:3]([H:10])[n:4]([H:11])[n:5][c:6]1[H:12])([H:7])([H:8])[H:9]>>[C:1]([c:2]1[c+:3]([H:10])[n:4]([H:11])[n:5]([H:12])[c-:6]1)([H:7])([H:8])[H:9]"
C       -1.79200838      -0.43437936       0.03224210
C       -0.37522064       0.03520192      -0.03796126
C        0.74470354      -0.72373600      -0.23280480
N        1.82666720       0.07670121      -0.13793225
N        1.43476938       1.37452175      -0.04036185
C        0.05593282       1.39747858       0.05150097
H       -2.37784433      -0.03249068      -0.79599614
H       -1.85846490      -1.52300085      -0.00313021
H       -2.26209708      -0.09420922       0.95637749
H        0.85855003      -1.77965939      -0.43193577
H        2.78794221      -0.15086427      -0.32005975
H        0.95707014       1.85443630       0.96006146
12
Frame=3 idx=005244 GeodesicLength=0.10620608644925172 rxn_smarts="[C:1]([c:2]1[c:3]([H:10])[n:4]([H:11])[n:5][c:6]1[H:12])([H:7])([H:8])[H:9]>>[C:1]([c:2]1[c+:3]([H:10])[n:4]([H:11])[n:5]([H:12])[c-:6]1)([H:7])([H:8])[H:9]"
C       -1.79156609      -0.43453966       0.03297341
C       -0.37460380       0.03371379      -0.04130314
C        0.74482905      -0.72656685      -0.23466589
N        1.82723615       0.07262134      -0.12791485
N        1.43368382       1.37046870      -0.04172743
C        0.05919563       1.39495279       0.04550725
H       -2.38200230      -0.02370815      -0.78758683
H       -1.85944382      -1.52267162      -0.01344066
H       -2.25606533      -0.10403631       0.96347769
H        0.85822966      -1.78186457      -0.43690469
H        2.78793335      -0.15376572      -0.31455105
H        0.95257368       1.87539626       0.95613618
12
Frame=4 idx=005244 GeodesicLength=0.1416267594060979 rxn_smarts="[C:1]([c:2]1[c:3]([H:10])[n:4]([H:11])[n:5][c:6]1[H:12])([H:7])([H:8])[H:9]>>[C:1]([c:2]1[c+:3]([H:10])[n:4]([H:11])[n:5]([H:12])[c-:6]1)([H:7])([H:8])[H:9]"
C       -1.79112027      -0.43471503       0.03366714
C       -0.37399840       0.03221758      -0.04467666
C        0.74492949      -0.72934270      -0.23689826
N        1.82766842       0.06858906      -0.11830924
N        1.43260485       1.36638572      -0.04303871
C        0.06247130       1.39237210       0.03992553
H       -2.38617742      -0.01465177      -0.77885418
H       -1.86051400      -1.52221363      -0.02422470
H       -2.24988439      -0.11431668       0.97058477
H        0.85796886      -1.78419333      -0.44122362
H        2.78788900      -0.15671681      -0.30873764
H        0.94816255       1.89658549       0.95178556
12
Frame=5 idx=005244 GeodesicLength=0.17704811445465432 rxn_smarts="[C:1]([c:2]1[c:3]([H:10])[n:4]([H:11])[n:5][c:6]1[H:12])([H:7])([H:8])[H:9]>>[C:1]([c:2]1[c+:3]([H:10])[n:4]([H:11])[n:5]([H:12])[c-:6]1)([H:7])([H:8])[H:9]"
C       -1.79065447      -0.43491916       0.03443494
C       -0.37340045       0.03070645      -0.04814777
C        0.74501664      -0.73211524      -0.23937039
N        1.82797958       0.06452375      -0.10875369
N        1.43156565       1.36222788      -0.04431492
C        0.06577487       1.38974669       0.03447154
H       -2.39042294      -0.00540341      -0.76965211
H       -1.86166274      -1.52163439      -0.03529098
H       -2.24344971      -0.12500267       0.97781832
H        0.85770051      -1.78649714      -0.44587004
H        2.78786214      -0.15983820      -0.30206872
H        0.94369090       1.91820544       0.94674383
12
Frame=6 idx=005244 GeodesicLength=0.21249539043236337 rxn_smarts="[C:1]([c:2]1[c:3]([H:10])[n:4]([H:11])[n:5][c:6]1[H:12])([H:7])([H:8])[H:9]>>[C:1]([c:2]1[c+:3]([H:10])[n:4]([H:11])[n:5]([H:12])[c-:6]1)([H:7])([H:8])[H:9]"
C       -1.79015540      -0.43515587       0.03530583
C       -0.37281571       0.02919867      -0.05185538
C        0.74508671      -0.73485895      -0.24220182
N        1.82815774       0.06039197      -0.09912247
N        1.43057986       1.35797969      -0.04555705
C        0.06911093       1.38708783       0.02900487
H       -2.39484060       0.00410767      -0.75979215
H       -1.86289434      -1.52090852      -0.04673021
H       -2.23659715      -0.13621471       0.98528849
H        0.85742329      -1.78875030      -0.45095847
H        2.78786126      -0.16320765      -0.29426197
H        0.93908343       1.94033017       0.94088031
12
Frame=7 idx=005244 GeodesicLength=0.24795238506499986 rxn_smarts="[C:1]([c:2]1[c:3]([H:10])[n:4]([H:11])[n:5][c:6]1[H:12])([H:7])([H:8])[H:9]>>[C:1]([c:2]1[c+:3]([H:10])[n:4]([H:11])[n:5]([H:12])[c-:6]1)([H:7])([H:8])[H:9]"
C       -1.78964361      -0.43541244       0.03615479
C       -0.37223684       0.02767816      -0.05559627
C        0.74514625      -0.73758050      -0.24527158
N        1.82821289       0.05625674      -0.08968320
N        1.42962235       1.35367855      -0.04666764
C        0.07247102       1.38438022       0.02389684
H       -2.39924994       0.01387920      -0.74954019
H       -1.86423719      -1.52001483      -0.05864463
H       -2.22956865      -0.14792136       0.99274412
H        0.85717403      -1.79110286      -0.45562630
H        2.78781365      -0.16663768      -0.28621776
H        0.93449604       1.96279681       0.93445181
12
Frame=8 idx=005244 GeodesicLength=0.28342329996178317 rxn_smarts="[C:1]([c:2]1[c:3]([H:10])[n:4]([H:11])[n:5][c:6]1[H:12])([H:7])([H:8])[H:9]>>[C:1]([c:2]1[c+:3]([H:10])[n:4]([H:11])[n:5]([H:12])[c-:6]1)([H:7])([H:8])[H:9]"
C       -1.78910472      -0.43569372       0.03702994
C       -0.37166781       0.02616218      -0.05950258
C        0.74519801      -0.74026621      -0.24865104
N        1.82813478       0.05207586      -0.08027963
N        1.42870761       1.34930250      -0.04764372
C        0.07586017       1.38163472       0.01899343
H       -2.40373481       0.02391838      -0.73873050
H       -1.86568806      -1.51893110      -0.07102445
H       -2.22222263      -0.16017775       1.00027987
H        0.85693316      -1.79350203      -0.46019459
H        2.78773973      -0.17021026      -0.27758418
H        0.92984457       1.98568744       0.92730745
12
Frame=9 idx=005244 GeodesicLength=0.3189105782849123 rxn_smarts="[C:1]([c:2]1[c:3]([H:10])[n:4]([H:11])[n:5][c:6]1[H:12])([H:7])([H:8])[H:9]>>[C:1]([c:2]1[c+:3]([H:10])[n:4]([H:11])[n:5]([H:12])[c-:6]1)([H:7])([H:8])[H:9]"
C       -1.78855366      -0.43599184       0.03783082
C       -0.37110459       0.02464312      -0.06343951
C        0.74523973      -0.74290589      -0.25232757
N        1.82794171       0.04790595      -0.07116280
N        1.42781393       1.34489278      -0.04843586
C        0.07926759       1.37884486       0.01457985
H       -2.40818422       0.03425707      -0.72751995
H       -1.86727012      -1.51762833      -0.08400619
H       -2.21471192      -0.17302190       1.00772228
H        0.85671676      -1.79607762      -0.46389765
H        2.78759375      -0.17379371      -0.26898708
H        0.92525104       2.00887552       0.91964364
12
Frame=10 idx=005244 GeodesicLength=0.3543966093438541 rxn_smarts="[C:1]([c:2]1[c:3]([H:10])[n:4]([H:11])[n:5][c:6]1[H:12])([H:7])([H:8])[H:9]>>[C:1]([c:2]1[c+:3]([H:10])[n:4]([H:11])[n:5]([H:12])[c-:6]1)([H:7])([H:8])[H:9]"
C       -1.78797667      -0.43631597       0.03863314
C       -0.37054847       0.02312509      -0.06749455
C        0.74528077      -0.74552725      -0.25624787
N        1.82762342       0.04368494      -0.06208432
N        1.42695853       1.34041928      -0.04905235
C        0.08270161       1.37602416       0.01045902
H       -2.41266671       0.04488348      -0.71574199
H       -1.86897975      -1.51609597      -0.09752995
H       -2.20691147      -0.18648783       1.01518339
H        0.85649208      -1.79873196      -0.46736457
H        2.78740463      -0.17748818      -0.25997534
H        0.92062204       2.03251022       0.91121539
12
Frame=11 idx=005244 GeodesicLength=0.39005498733679206 rxn_smarts="[C:1]([c:2]1[c:3]([H:10])[n:4]([H:11])[n:5][c:6]1[H:12])([H:7])([H:8])[H:9]>>[C:1]([c:2]1[c+:3]([H:10])[n:4]([H:11])[n:5]([H:12])[c-:6]1)([H:7])([H:8])[H:9]"
C       -1.78735624      -0.43668442       0.03953182
C       -0.37000334       0.02160796      -0.07175274
C        0.74531534      -0.74813143      -0.26031766
N        1.82716034       0.03934205      -0.05273626
N        1.42617435       1.33580769      -0.04951509
C        0.08618286       1.37315031       0.00638849
H       -2.41724249       0.05576271      -0.70317227
H       -1.87082933      -1.51430453      -0.11151692
H       -2.19867415      -0.20062437       1.02276471
H        0.85622990      -1.80129504      -0.47139570
H        2.78720686      -0.18144520      -0.25000488
H        0.91583589       2.05681425       0.90172649
12
Frame=12 idx=005244 GeodesicLength=0.42557148775000575 rxn_smarts="[C:1]([c:2]1[c:3]([H:10])[n:4]([H:11])[n:5][c:6]1[H:12])([H:7])([H:8])[H:9]>>[C:1]([c:2]1[c+:3]([H:10])[n:4]([H:11])[n:5]([H:12])[c-:6]1)([H:7])([H:8])[H:9]"
C       -1.78667233      -0.43709168       0.04055299
C       -0.36947725       0.02011979      -0.07642315
C        0.74535169      -0.75071266      -0.26479637
N        1.82651856       0.03486604      -0.04306356
N        1.42546266       1.33108538      -0.04979010
C        0.08970840       1.37026849       0.00226119
H       -2.42203839       0.06703672      -0.68955196
H       -1.87283251      -1.51221158      -0.12612537
H       -2.18976505      -0.21560643       1.03061175
H        0.85594840      -1.80380738      -0.47596057
H        2.78695686      -0.18569581      -0.23866714
H        0.91083896       2.08174911       0.89095229
12
Frame=13 idx=005244 GeodesicLength=0.46114829552028735 rxn_smarts="[C:1]([c:2]1[c:3]([H:10])[n:4]([H:11])[n:5][c:6]1[H:12])([H:7])([H:8])[H:9]>>[C:1]([c:2]1[c+:3]([H:10])[n:4]([H:11])[n:5]([H:12])[c-:6]1)([H:7])([H:8])[H:9]"
C       -1.78593634      -0.43754335       0.04165927
C       -0.36896606       0.01864319      -0.08133584
C        0.74539083      -0.75328237      -0.26947610
N        1.82569922       0.03026363      -0.03310623
N        1.42481421       1.32624290      -0.04983494
C        0.09327758       1.36735374      -0.00175096
H       -2.42691569       0.07861730      -0.67502013
H       -1.87500927      -1.50979197      -0.14131134
H       -2.18035521      -0.23138413       1.03854896
H        0.85564658      -1.80626615      -0.48095407
H        2.78664820      -0.19019139      -0.22637440
H        0.90570595       2.10733861       0.87895579
12
Frame=14 idx=005244 GeodesicLength=0.49676964057407497 rxn_smarts="[C:1]([c:2]1[c:3]([H:10])[n:4]([H:11])[n:5][c:6]1[H:12])([H:7])([H:8])[H:9]>>[C:1]([c:2]1[c+:3]([H:10])[n:4]([H:11])[n:5]([H:12])[c-:6]1)([H:7])([H:8])[H:9]"
C       -1.78516544      -0.43803992       0.04278276
C       -0.36845993       0.01716270      -0.08627545
C        0.74543697      -0.75584391      -0.27421522
N        1.82473087       0.02557642      -0.02305740
N        1.42420874       1.32130875      -0.04958858
C        0.09687994       1.36439038      -0.00535083
H       -2.43171140       0.09042052      -0.65980466
H       -1.87736308      -1.50703005      -0.15704820
H       -2.17068136      -0.24788550       1.04636419
H        0.85532674      -1.80872572      -0.48598145
H        2.78623636      -0.19482503      -0.21368861
H        0.90056159       2.13349135       0.86586343
12
Frame=15 idx=005244 GeodesicLength=0.5324168718597688 rxn_smarts="[C:1]([c:2]1[c:3]([H:10])[n:4]([H:11])[n:5][c:6]1[H:12])([H:7])([H:8])[H:9]>>[C:1]([c:2]1[c+:3]([H:10])[n:4]([H:11])[n:5]([H:12])[c-:6]1)([H:7])([H:8])[H:9]"
C       -1.78436935      -0.43858527       0.04390872
C       -0.36795330       0.01566946      -0.09111105
C        0.74549097      -0.75840324      -0.27891151
N        1.82363113       0.02081604      -0.01297335
N        1.42363869       1.31629152      -0.04900515
C        0.10051173       1.36136885      -0.00838531
H       -2.43633068       0.10234743      -0.64403977
H       -1.87988492      -1.50392192      -0.17323615
H       -2.16089089      -0.26502497       1.05394000
H        0.85498268      -1.81117078      -0.49104401
H        2.78570829      -0.19955999      -0.20082147
H        0.89546565       2.16017288       0.85167903
12
Frame=16 idx=005244 GeodesicLength=0.5680824174687049 rxn_smarts="[C:1]([c:2]1[c:3]([H:10])[n:4]([H:11])[n:5][c:6]1[H:12])([H:7])([H:8])[H:9]>>[C:1]([c:2]1[c+:3]([H:10])[n:4]([H:11])[n:5]([H:12])[c-:6]1)([H:7])([H:8])[H:9]"
C       -1.78356039      -0.43918225       0.04501751
C       -0.36744084       0.01415609      -0.09571121
C        0.74555235      -0.76096270      -0.28348038
N        1.82242567       0.01599455      -0.00292141
N        1.42309642       1.31120255      -0.04804338
C        0.10416709       1.35828116      -0.01069041
H       -2.44069064       0.11431833      -0.62786029
H       -1.88256220      -1.50046542      -0.18980328
H       -2.15113382      -0.28273224       1.06116960
H        0.85460978      -1.81359911      -0.49608309
H        2.78506247      -0.20435704      -0.18800653
H        0.89047413       2.18734609       0.83641285
