15
Frame=0 idx=006958 GeodesicLength=0.0 rxn_smarts="[C:1]([C:2]1([C:3]([H:11])([H:12])[H:13])[N:4]([H:14])[C@:5]1([C:6]#[N:7])[H:15])([H:8])([H:9])[H:10]>>[C:1]([C-:2]1[N+:4]([C:3]([H:11])([H:12])[H:13])([H:14])[C@:5]1([C:6]#[N:7])[H:15])([H:8])([H:9])[H:10]"
C       -0.52231503       1.45595593       0.17679753
C       -0.14253025       0.10433988       0.69358713
C       -1.27803305      -1.34143177       0.06263189
N        0.31516827      -0.96169615      -0.62176753
C        1.20330142      -0.39360185       0.37568111
C        2.17699870       0.52122078      -0.18682447
N        2.96004419       1.25411548      -0.59709436
H       -0.25033333       2.17720226       0.95222327
H       -1.60320095       1.53021281       0.03806682
H       -0.02821486       1.77816314      -0.75008675
H       -1.55778282      -1.79325848      -0.89700247
H       -1.09083770      -2.11828630       0.79229658
H       -2.11887715      -0.72012431       0.37581051
H        0.26660364      -0.36890323      -1.44726938
H        1.67000886      -1.12390823       1.03295007
15
Frame=1 idx=006958 GeodesicLength=0.053813645878995314 rxn_smarts="[C:1]([C:2]1([C:3]([H:11])([H:12])[H:13])[N:4]([H:14])[C@:5]1([C:6]#[N:7])[H:15])([H:8])([H:9])[H:10]>>[C:1]([C-:2]1[N+:4]([C:3]([H:11])([H:12])[H:13])([H:14])[C@:5]1([C:6]#[N:7])[H:15])([H:8])([H:9])[H:10]"
C       -0.52210836       1.46381454       0.17124049
C       -0.14677501       0.10651321       0.67582202
C       -1.27798790      -1.34829242       0.07100321
N        0.30487655      -0.94347934      -0.62929164
C        1.20189482      -0.39344710       0.37064666
C        2.18308156       0.51832471      -0.18323583
N        2.97504895       1.24626384      -0.58519449
H       -0.26361671       2.17613808       0.95928838
H       -1.60066835       1.53881906       0.01618172
H       -0.01277642       1.79550944      -0.74391504
H       -1.56776954      -1.80754758      -0.88186707
H       -1.06975830      -2.12084593       0.79994773
H       -2.12744824      -0.74311106       0.39277530
H        0.26671973      -0.35530872      -1.45804170
H        1.65728720      -1.13335071       1.02464026
15
Frame=2 idx=006958 GeodesicLength=0.1075378731885097 rxn_smarts="[C:1]([C:2]1([C:3]([H:11])([H:12])[H:13])[N:4]([H:14])[C@:5]1([C:6]#[N:7])[H:15])([H:8])([H:9])[H:10]>>[C:1]([C-:2]1[N+:4]([C:3]([H:11])([H:12])[H:13])([H:14])[C@:5]1([C:6]#[N:7])[H:15])([H:8])([H:9])[H:10]"
C       -0.52188362       1.47177950       0.16571626
C       -0.15120582       0.10885884       0.65812110
C       -1.27766716      -1.35495511       0.07929737
N        0.29449827      -0.92529341      -0.63684811
C        1.20013259      -0.39335901       0.36555222
C        2.18890921       0.51520284      -0.17956539
N        2.98960443       1.23811754      -0.57329299
H       -0.27709674       2.17498995       0.96608706
H       -1.59781534       1.54786964      -0.00584070
H        0.00261803       1.81264477      -0.73735491
H       -1.57737450      -1.82178456      -0.86655932
H       -1.04858141      -2.12308977       0.80707373
H       -2.13543878      -0.76648453       0.41026216
H        0.26704971      -0.34183008      -1.46877641
H        1.64425111      -1.14266662       1.01612791
15
Frame=3 idx=006958 GeodesicLength=0.16121195212700068 rxn_smarts="[C:1]([C:2]1([C:3]([H:11])([H:12])[H:13])[N:4]([H:14])[C@:5]1([C:6]#[N:7])[H:15])([H:8])([H:9])[H:10]>>[C:1]([C-:2]1[N+:4]([C:3]([H:11])([H:12])[H:13])([H:14])[C@:5]1([C:6]#[N:7])[H:15])([H:8])([H:9])[H:10]"
C       -0.52164836       1.47985190       0.16022147
C       -0.15582319       0.11137876       0.64048455
C       -1.27708016      -1.36141781       0.08751964
N        0.28403182      -0.90713763      -0.64444408
C        1.19801855      -0.39332738       0.36038389
C        2.19447766       0.51185567      -0.17584009
N        3.00377167       1.22964611      -0.56135840
H       -0.29084762       2.17376188       0.97263013
H       -1.59462794       1.55736933      -0.02806264
H        0.01799396       1.82959353      -0.73037940
H       -1.58661756      -1.83596331      -0.85106892
H       -1.02730371      -2.12503495       0.81366970
H       -2.14282456      -0.79026230       0.42831278
H        0.26756015      -0.32846659      -1.47946880
H        1.63091930      -1.15184721       1.00740017
15
Frame=4 idx=006958 GeodesicLength=0.21485968576885883 rxn_smarts="[C:1]([C:2]1([C:3]([H:11])([H:12])[H:13])[N:4]([H:14])[C@:5]1([C:6]#[N:7])[H:15])([H:8])([H:9])[H:10]>>[C:1]([C-:2]1[N+:4]([C:3]([H:11])([H:12])[H:13])([H:14])[C@:5]1([C:6]#[N:7])[H:15])([H:8])([H:9])[H:10]"
C       -0.52141905       1.48802511       0.15475845
C       -0.16063769       0.11406918       0.62291509
C       -1.27623444      -1.36767456       0.09567003
N        0.27345863      -0.88901259      -0.65207909
C        1.19555037      -0.39333478       0.35512698
C        2.19977615       0.50829368      -0.17209920
N        3.01762726       1.22079895      -0.54935251
H       -0.30491978       2.17244493       0.97892741
H       -1.59110805       1.56732590      -0.05051498
H        0.03336559       1.84636500      -0.72296484
H       -1.59549448      -1.85008486      -0.83538851
H       -1.00592584      -2.12667522       0.81975179
H       -2.14953936      -0.81445609       0.44691888
H        0.26819778      -0.31521651      -1.49011617
H        1.61730292      -1.16086815       0.99844668
15
Frame=5 idx=006958 GeodesicLength=0.2684718234866452 rxn_smarts="[C:1]([C:2]1([C:3]([H:11])([H:12])[H:13])[N:4]([H:14])[C@:5]1([C:6]#[N:7])[H:15])([H:8])([H:9])[H:10]>>[C:1]([C-:2]1[N+:4]([C:3]([H:11])([H:12])[H:13])([H:14])[C@:5]1([C:6]#[N:7])[H:15])([H:8])([H:9])[H:10]"
C       -0.52117322       1.49627817       0.14933521
C       -0.16563485       0.11691448       0.60542595
C       -1.27515323      -1.37371072       0.10372006
N        0.26283059      -0.87094779      -0.65972452
C        1.19274449      -0.39337274       0.34981305
C        2.20479400       0.50452957      -0.16830723
N        3.03106846       1.21163381      -0.53734530
H       -0.31925066       2.17105491       0.98492811
H       -1.58721120       1.57774075      -0.07311859
H        0.04868544       1.86289486      -0.71513304
H       -1.60402183      -1.86409837      -0.81956291
H       -0.98451907      -2.12803797       0.82526107
H       -2.15560466      -0.83904673       0.46606802
H        0.26900463      -0.30213197      -1.50067146
H        1.60344114      -1.16970027       0.98931156
15
Frame=6 idx=006958 GeodesicLength=0.3220743793444713 rxn_smarts="[C:1]([C:2]1([C:3]([H:11])([H:12])[H:13])[N:4]([H:14])[C@:5]1([C:6]#[N:7])[H:15])([H:8])([H:9])[H:10]>>[C:1]([C-:2]1[N+:4]([C:3]([H:11])([H:12])[H:13])([H:14])[C@:5]1([C:6]#[N:7])[H:15])([H:8])([H:9])[H:10]"
C       -0.52093559       1.50461181       0.14395220
C       -0.17082906       0.11990853       0.58802549
C       -1.27384617      -1.37951538       0.11166845
N        0.25213283      -0.85294626      -0.66737748
C        1.18961091      -0.39343665       0.34443467
C        2.20954291       0.50056793      -0.16449463
N        3.04417853       1.20210302      -0.52533359
H       -0.33392580       2.16958329       0.99064641
H       -1.58295217       1.58862805      -0.09592498
H        0.06397551       1.87920654      -0.70684933
H       -1.61219356      -1.87801024      -0.80358467
H       -0.96309518      -2.12911788       0.83020687
H       -2.16095609      -0.86404039       0.48576922
H        0.26993560      -0.28919728      -1.51113395
H        1.58935735      -1.17834510       0.97999531
15
Frame=7 idx=006958 GeodesicLength=0.37569524055177395 rxn_smarts="[C:1]([C:2]1([C:3]([H:11])([H:12])[H:13])[N:4]([H:14])[C@:5]1([C:6]#[N:7])[H:15])([H:8])([H:9])[H:10]>>[C:1]([C-:2]1[N+:4]([C:3]([H:11])([H:12])[H:13])([H:14])[C@:5]1([C:6]#[N:7])[H:15])([H:8])([H:9])[H:10]"
C       -0.52069679       1.51301332       0.13861396
C       -0.17620752       0.12305034       0.57071377
C       -1.27233973      -1.38509358       0.11953680
N        0.24135788      -0.83500642      -0.67504458
C        1.18614940      -0.39349659       0.33896851
C        2.21400192       0.49641853      -0.16072276
N        3.05699749       1.19220195      -0.51324042
H       -0.34899018       2.16802292       0.99610697
H       -1.57827715       1.59996802      -0.11897662
H        0.07926468       1.89531383      -0.69809339
H       -1.62003827      -1.89182360      -0.78742746
H       -0.94165434      -2.12992681       0.83461884
H       -2.16556231      -0.88943575       0.50597486
H        0.27092499      -0.27643541      -1.52150312
H        1.57506993      -1.18677075       0.97047466
15
Frame=8 idx=006958 GeodesicLength=0.4293155925870564 rxn_smarts="[C:1]([C:2]1([C:3]([H:11])([H:12])[H:13])[N:4]([H:14])[C@:5]1([C:6]#[N:7])[H:15])([H:8])([H:9])[H:10]>>[C:1]([C-:2]1[N+:4]([C:3]([H:11])([H:12])[H:13])([H:14])[C@:5]1([C:6]#[N:7])[H:15])([H:8])([H:9])[H:10]"
C       -0.52045787       1.52146447       0.13332561
C       -0.18177012       0.12631716       0.55350779
C       -1.27065072      -1.39042112       0.12728800
N        0.23054402      -0.81716296      -0.68269292
C        1.18238573      -0.39356379       0.33345172
C        2.21818570       0.49208565      -0.15695101
N        3.06944553       1.18197920      -0.50116170
H       -0.36440787       2.16638143       1.00125208
H       -1.57318489       1.61177495      -0.14220732
H        0.09451157       1.91115656      -0.68887170
H       -1.62755417      -1.90548539      -0.77114480
H       -0.92027102      -2.13047477       0.83844486
H       -2.16940631      -0.91520753       0.52669189
H        0.27200954      -0.26387262      -1.53174002
H        1.56062088      -1.19497124       0.96080753
15
Frame=9 idx=006958 GeodesicLength=0.48290896170051745 rxn_smarts="[C:1]([C:2]1([C:3]([H:11])([H:12])[H:13])[N:4]([H:14])[C@:5]1([C:6]#[N:7])[H:15])([H:8])([H:9])[H:10]>>[C:1]([C-:2]1[N+:4]([C:3]([H:11])([H:12])[H:13])([H:14])[C@:5]1([C:6]#[N:7])[H:15])([H:8])([H:9])[H:10]"
C       -0.52020409       1.52993988       0.12810110
C       -0.18750657       0.12968588       0.53643031
C       -1.26881071      -1.39548758       0.13489889
N        0.21971937      -0.79944560      -0.69029054
C        1.17833969      -0.39363480       0.32791602
C        2.22209707       0.48757800      -0.15316713
N        3.08143744       1.17151921      -0.48915369
H       -0.38008581       2.16467107       1.00604844
H       -1.56765955       1.62404477      -0.16551566
H        0.10967547       1.92666738      -0.67922529
H       -1.63474303      -1.91896869      -0.75477851
H       -0.89901857      -2.13076847       0.84167915
H       -2.17247604      -0.94132200       0.54782379
H        0.27319068      -0.25155084      -1.54181617
H        1.54604465      -1.20292822       0.95104929
15
Frame=10 idx=006958 GeodesicLength=0.5364494185056556 rxn_smarts="[C:1]([C:2]1([C:3]([H:11])([H:12])[H:13])[N:4]([H:14])[C@:5]1([C:6]#[N:7])[H:15])([H:8])([H:9])[H:10]>>[C:1]([C-:2]1[N+:4]([C:3]([H:11])([H:12])[H:13])([H:14])[C@:5]1([C:6]#[N:7])[H:15])([H:8])([H:9])[H:10]"
C       -0.51992311       1.53841558       0.12294974
C       -0.19340640       0.13313339       0.51949969
C       -1.26685096      -1.40028252       0.14234993
N        0.20891061      -0.78188593      -0.69781094
C        1.17403358      -0.39371239       0.32238973
C        2.22574450       0.48290067      -0.14935883
N        3.09289705       1.16091713      -0.47725818
H       -0.39593217       2.16290482       1.01046440
H       -1.56169416       1.63676956      -0.18880980
H        0.12471834       1.94178505      -0.66920092
H       -1.64161274      -1.93224414      -0.73836729
H       -0.87796365      -2.13081747       0.84431609
H       -2.17476585      -0.96774300       0.56929168
H        0.27446867      -0.23950795      -1.55170670
H        1.53137630      -1.21063279       0.94125138
15
Frame=11 idx=006958 GeodesicLength=0.5899695129966389 rxn_smarts="[C:1]([C:2]1([C:3]([H:11])([H:12])[H:13])[N:4]([H:14])[C@:5]1([C:6]#[N:7])[H:15])([H:8])([H:9])[H:10]>>[C:1]([C-:2]1[N+:4]([C:3]([H:11])([H:12])[H:13])([H:14])[C@:5]1([C:6]#[N:7])[H:15])([H:8])([H:9])[H:10]"
C       -0.51962422       1.54688756       0.11787416
C       -0.19946322       0.13666188       0.50271555
C       -1.26479259      -1.40480594       0.14965855
N        0.19811539      -0.76447587      -0.70525938
C        1.16947733      -0.39377731       0.31685632
C        2.22912676       0.47806370      -0.14556689
N        3.10390302       1.15012624      -0.46545172
H       -0.41203948       2.16107660       1.01452109
H       -1.55526362       1.64993325      -0.21214431
H        0.13966393       1.95653834      -0.65875453
H       -1.64817622      -1.94532576      -0.72188802
H       -0.85711071      -2.13062537       0.84638038
H       -2.17624726      -0.99446813       0.59107405
H        0.27579425      -0.22773526      -1.56141224
H        1.51663664      -1.21807394       0.93139700
15
Frame=12 idx=006958 GeodesicLength=0.6434463796556363 rxn_smarts="[C:1]([C:2]1([C:3]([H:11])([H:12])[H:13])[N:4]([H:14])[C@:5]1([C:6]#[N:7])[H:15])([H:8])([H:9])[H:10]>>[C:1]([C-:2]1[N+:4]([C:3]([H:11])([H:12])[H:13])([H:14])[C@:5]1([C:6]#[N:7])[H:15])([H:8])([H:9])[H:10]"
C       -0.51929814       1.55533389       0.11287671
C       -0.20566442       0.14024916       0.48609135
C       -1.26266505      -1.40904722       0.15681194
N        0.18735923      -0.74724299      -0.71261813
C        1.16469276      -0.39383572       0.31134280
C        2.23225347       0.47307421      -0.14177314
N        3.11438915       1.13923549      -0.45376660
H       -0.42833328       2.15920249       1.01818318
H       -1.54836177       1.66351938      -0.23544809
H        0.15448008       1.97087833      -0.64792745
H       -1.65445104      -1.95817383      -0.70537400
H       -0.83651475      -2.13021402       0.84785808
H       -2.17691516      -1.02146322       0.61312748
H        0.27717186      -0.21626254      -1.57091414
H        1.50185706      -1.22525338       0.92153001
15
Frame=13 idx=006958 GeodesicLength=0.6968576694638097 rxn_smarts="[C:1]([C:2]1([C:3]([H:11])([H:12])[H:13])[N:4]([H:14])[C@:5]1([C:6]#[N:7])[H:15])([H:8])([H:9])[H:10]>>[C:1]([C-:2]1[N+:4]([C:3]([H:11])([H:12])[H:13])([H:14])[C@:5]1([C:6]#[N:7])[H:15])([H:8])([H:9])[H:10]"
C       -0.51893747       1.56373442       0.10796919
C       -0.21199935       0.14387828       0.46964663
C       -1.26049918      -1.41300214       0.16379732
N        0.17666647      -0.73020796      -0.71986030
C        1.15970182      -0.39388931       0.30587712
C        2.23513585       0.46793629      -0.13796173
N        3.12430291       1.12831751      -0.44226624
H       -0.44473613       2.15729970       1.02143183
H       -1.54099103       1.67751114      -0.25863154
H        0.16913344       1.98475531      -0.63676244
H       -1.66043410      -1.97077637      -0.68886207
H       -0.81623602      -2.12958635       0.84876185
H       -2.17677263      -1.04869269       0.63535074
H        0.27860035      -0.20511067      -1.58019004
H        1.48706507      -1.23216718       0.91169967
15
Frame=14 idx=006958 GeodesicLength=0.7502326965511956 rxn_smarts="[C:1]([C:2]1([C:3]([H:11])([H:12])[H:13])[N:4]([H:14])[C@:5]1([C:6]#[N:7])[H:15])([H:8])([H:9])[H:10]>>[C:1]([C-:2]1[N+:4]([C:3]([H:11])([H:12])[H:13])([H:14])[C@:5]1([C:6]#[N:7])[H:15])([H:8])([H:9])[H:10]"
C       -0.51854686       1.57208257       0.10313818
C       -0.21845492       0.14754753       0.45337059
C       -1.25831475      -1.41666769       0.17064466
N        0.16602767      -0.71336770      -0.72700541
C        1.15451520      -0.39393256       0.30043357
C        2.23777624       0.46265146      -0.13418198
N        3.13370611       1.11737743      -0.43084882
H       -0.46131820       2.15536576       1.02426471
H       -1.53312398       1.69188287      -0.28175690
H        0.18364497       1.99819374      -0.62523381
H       -1.66616646      -1.98311881      -0.67231666
H       -0.79626484      -2.12876523       0.84909725
H       -2.17578982      -1.07614960       0.65777804
H        0.28002937      -0.19427519      -1.58925521
H        1.47228027      -1.23882458       0.90187180
15
Frame=15 idx=006958 GeodesicLength=0.803552129209841 rxn_smarts="[C:1]([C:2]1([C:3]([H:11])([H:12])[H:13])[N:4]([H:14])[C@:5]1([C:6]#[N:7])[H:15])([H:8])([H:9])[H:10]>>[C:1]([C-:2]1[N+:4]([C:3]([H:11])([H:12])[H:13])([H:14])[C@:5]1([C:6]#[N:7])[H:15])([H:8])([H:9])[H:10]"
C       -0.51812454       1.58036282       0.09839559
C       -0.22502221       0.15124313       0.43728244
C       -1.25613868      -1.42004109       0.17734376
N        0.15546607      -0.69673596      -0.73402895
C        1.14915338      -0.39396702       0.29504237
C        2.24018661       0.45722679      -0.13040869
N        3.14256027       1.10645967      -0.41960031
H       -0.47802313       2.15341726       1.02667002
H       -1.52476742       1.70661543      -0.30474776
H        0.19798551       2.01115530      -0.61337441
H       -1.67163875      -1.99519147      -0.65577560
H       -0.77665154      -2.12775342       0.84887925
H       -2.17397278      -1.10380203       0.68031495
H        0.28146290      -0.18376524      -1.59809078
H        1.45752431      -1.24522417       0.89209813
15
Frame=16 idx=006958 GeodesicLength=0.8568440688030287 rxn_smarts="[C:1]([C:2]1([C:3]([H:11])([H:12])[H:13])[N:4]([H:14])[C@:5]1([C:6]#[N:7])[H:15])([H:8])([H:9])[H:10]>>[C:1]([C-:2]1[N+:4]([C:3]([H:11])([H:12])[H:13])([H:14])[C@:5]1([C:6]#[N:7])[H:15])([H:8])([H:9])[H:10]"
C       -0.51767663       1.58857386       0.09373172
C       -0.23169176       0.15496795       0.42137166
C       -1.25398758      -1.42312358       0.18392577
N        0.14496935      -0.68030695      -0.74094739
C        1.14362292      -0.39398457       0.28967865
C        2.24236706       0.45166630      -0.12668935
N        3.15093100       1.09554915      -0.40843984
H       -0.49492947       2.15145146       1.02864742
H       -1.51588757       1.72168604      -0.32766792
H        0.21217866       2.02367308      -0.60114158
H       -1.67687841      -2.00699491      -0.63920389
H       -0.75738353      -2.12656791       0.84811722
H       -2.17129387      -1.13164572       0.70298462
H        0.28285205      -0.17357127      -1.60671160
H        1.44280778      -1.25137292       0.88234452
