13
Frame=0 idx=003433 GeodesicLength=0.0 rxn_smarts="[N:1]([C:2](=[O:3])[C:4]1([H:9])[C:5]([H:10])([H:11])[C:6]1([H:12])[H:13])([H:7])[H:8]>>[N+:1]1([H:7])([H:8])[C:2](=[O:3])[C:6]([H:12])([H:13])[C:5]([H:10])([H:11])[C-:4]1[H:9]"
N        1.84517846       0.25496834       0.64947876
C        0.86491554       0.61707817      -0.25193689
O        1.07641158       1.37678857      -1.16813710
C       -0.19151766      -1.06723936      -0.64043355
C       -1.51107787      -0.50413529      -0.57757128
C       -0.64026477       0.47699815       0.30371453
H        1.70825663      -0.58093563       1.19063685
H        2.77712213       0.37319700       0.28610518
H       -0.04915229      -1.71277356       0.24285242
H       -1.88065475      -0.00021821      -1.46604054
H       -2.29590735      -0.96970496       0.01509022
H       -0.71809872       0.26284717       1.36283481
H       -0.98521088       1.47312958       0.05340663
13
Frame=1 idx=003433 GeodesicLength=0.1027935701365338 rxn_smarts="[N:1]([C:2](=[O:3])[C:4]1([H:9])[C:5]([H:10])([H:11])[C:6]1([H:12])[H:13])([H:7])[H:8]>>[N+:1]1([H:7])([H:8])[C:2](=[O:3])[C:6]([H:12])([H:13])[C:5]([H:10])([H:11])[C-:4]1[H:9]"
N        1.85727362       0.21346720       0.60326882
C        0.85345555       0.64237394      -0.24148313
O        1.06234427       1.42941688      -1.13428602
C       -0.16276055      -1.05663902      -0.59862794
C       -1.49256576      -0.50524013      -0.58475340
C       -0.66551892       0.48908665       0.31525067
H        1.70762095      -0.57104474       1.21203132
H        2.78091655       0.29697230       0.21071008
H       -0.03726786      -1.70150590       0.28628733
H       -1.83971100      -0.01614013      -1.49051090
H       -2.28856698      -0.98290725      -0.01744033
H       -0.75496442       0.28005397       1.37458386
H       -1.02025548       1.48210624       0.06496964
13
Frame=2 idx=003433 GeodesicLength=0.20537911565341466 rxn_smarts="[N:1]([C:2](=[O:3])[C:4]1([H:9])[C:5]([H:10])([H:11])[C:6]1([H:12])[H:13])([H:7])[H:8]>>[N+:1]1([H:7])([H:8])[C:2](=[O:3])[C:6]([H:12])([H:13])[C:5]([H:10])([H:11])[C-:4]1[H:9]"
N        1.86622704       0.17065936       0.55649568
C        0.84332987       0.66395988      -0.22934167
O        1.05118736       1.47780752      -1.09727706
C       -0.13701536      -1.04652513      -0.55602350
C       -1.47437851      -0.50550384      -0.59174831
C       -0.69075715       0.50002177       0.32627463
H        1.71535648      -0.55884868       1.22875597
H        2.77941495       0.22744238       0.13631074
H       -0.02783761      -1.69033321       0.33033731
H       -1.79716782      -0.03030372      -1.51381199
H       -2.28109868      -0.99484892      -0.05059345
H       -0.79382999       0.29628038       1.38549488
H       -1.05343058       1.49019222       0.07512676
13
Frame=3 idx=003433 GeodesicLength=0.3080491583139662 rxn_smarts="[N:1]([C:2](=[O:3])[C:4]1([H:9])[C:5]([H:10])([H:11])[C:6]1([H:12])[H:13])([H:7])[H:8]>>[N+:1]1([H:7])([H:8])[C:2](=[O:3])[C:6]([H:12])([H:13])[C:5]([H:10])([H:11])[C-:4]1[H:9]"
N        1.87221222       0.12738852       0.50983182
C        0.83456600       0.68192166      -0.21581159
O        1.04294281       1.52224288      -1.05725087
C       -0.11433192      -1.03707131      -0.51251096
C       -1.45669423      -0.50511174      -0.59846003
C       -0.71607686       0.51000729       0.33659700
H        1.73106809      -0.54593161       1.23952770
H        2.77381513       0.16491494       0.06375967
H       -0.02071765      -1.67913063       0.37542898
H       -1.75342307      -0.04307120      -1.53590013
H       -2.27365029      -1.00567170      -0.08410190
H       -0.83479368       0.31187106       1.39536081
H       -1.08491655       1.49764184       0.08352949
13
Frame=4 idx=003433 GeodesicLength=0.41211593318304124 rxn_smarts="[N:1]([C:2](=[O:3])[C:4]1([H:9])[C:5]([H:10])([H:11])[C:6]1([H:12])[H:13])([H:7])[H:8]>>[N+:1]1([H:7])([H:8])[C:2](=[O:3])[C:6]([H:12])([H:13])[C:5]([H:10])([H:11])[C-:4]1[H:9]"
N        1.87606779       0.08455871       0.46381160
C        0.82732491       0.69698453      -0.20105544
O        1.03789298       1.56405835      -1.01429451
C       -0.09427626      -1.02855080      -0.46780236
C       -1.43971385      -0.50437141      -0.60480938
C       -0.74205677       0.51946390       0.34611734
H        1.75439824      -0.53382097       1.24388811
H        2.76567876       0.10824793      -0.00741737
H       -0.01548980      -1.66819459       0.42229240
H       -1.70861531      -0.05476045      -1.55692557
H       -2.26675164      -1.01602819      -0.11776267
H       -0.87880064       0.32717167       1.40414076
H       -1.11565841       1.50524130       0.08981707
13
Frame=5 idx=003433 GeodesicLength=0.5143964535861025 rxn_smarts="[N:1]([C:2](=[O:3])[C:4]1([H:9])[C:5]([H:10])([H:11])[C:6]1([H:12])[H:13])([H:7])[H:8]>>[N+:1]1([H:7])([H:8])[C:2](=[O:3])[C:6]([H:12])([H:13])[C:5]([H:10])([H:11])[C-:4]1[H:9]"
N        1.87644848       0.04300383       0.41874740
C        0.82072372       0.70882466      -0.18490735
O        1.03478657       1.60182806      -0.96726429
C       -0.07706054      -1.01981662      -0.42241071
C       -1.42228333      -0.50330389      -0.61074798
C       -0.76749460       0.52819011       0.35468558
H        1.78254839      -0.52207556       1.24150884
H        2.75215975       0.05612478      -0.07730944
H       -0.01160904      -1.65526137       0.46994477
H       -1.66253900      -0.06634818      -1.57612730
H       -2.25784209      -1.02539722      -0.15152009
H       -0.92374568       0.34266451       1.41118278
H       -1.14409263       1.51156689       0.09421778
13
Frame=6 idx=003433 GeodesicLength=0.6175396576023303 rxn_smarts="[N:1]([C:2](=[O:3])[C:4]1([H:9])[C:5]([H:10])([H:11])[C:6]1([H:12])[H:13])([H:7])[H:8]>>[N+:1]1([H:7])([H:8])[C:2](=[O:3])[C:6]([H:12])([H:13])[C:5]([H:10])([H:11])[C-:4]1[H:9]"
N        1.87528099       0.00325106       0.37502001
C        0.81534984       0.71885666      -0.16736815
O        1.03450252       1.63778449      -0.91696020
C       -0.06182432      -1.01142211      -0.37567774
C       -1.40511962      -0.50223323      -0.61617539
C       -0.79377564       0.53685958       0.36224422
H        1.81632353      -0.51340731       1.23230927
H        2.73605946       0.00778542      -0.14681715
H       -0.00859555      -1.64159753       0.51978624
H       -1.61537875      -0.07770482      -1.59408619
H       -2.24863069      -1.03496295      -0.18503167
H       -0.97192749       0.35849127       1.41669038
H       -1.17226429       1.51829947       0.09606638
13
Frame=7 idx=003433 GeodesicLength=0.7208244416868476 rxn_smarts="[N:1]([C:2](=[O:3])[C:4]1([H:9])[C:5]([H:10])([H:11])[C:6]1([H:12])[H:13])([H:7])[H:8]>>[N+:1]1([H:7])([H:8])[C:2](=[O:3])[C:6]([H:12])([H:13])[C:5]([H:10])([H:11])[C-:4]1[H:9]"
N        1.87228474      -0.03456592       0.33238535
C        0.81081287       0.72732633      -0.14800147
O        1.03645294       1.67179326      -0.86242352
C       -0.04841197      -1.00282732      -0.32746427
C       -1.38755592      -0.50123747      -0.62110753
C       -0.82061119       0.54549390       0.36874010
H        1.85447220      -0.50785005       1.21642257
H        2.71590349      -0.03787284      -0.21706712
H       -0.00612058      -1.62607679       0.57196599
H       -1.56651690      -0.08934358      -1.61065121
H       -2.23799141      -1.04474143      -0.21847526
H       -1.02290051       0.37490596       1.42031739
H       -1.19981777       1.52499594       0.09535899
13
Frame=8 idx=003433 GeodesicLength=0.8244048839499053 rxn_smarts="[N:1]([C:2](=[O:3])[C:4]1([H:9])[C:5]([H:10])([H:11])[C:6]1([H:12])[H:13])([H:7])[H:8]>>[N+:1]1([H:7])([H:8])[C:2](=[O:3])[C:6]([H:12])([H:13])[C:5]([H:10])([H:11])[C-:4]1[H:9]"
N        1.86772026      -0.07056756       0.29049052
C        0.80711178       0.73467118      -0.12637398
O        1.04060141       1.70419718      -0.80311484
C       -0.03658164      -0.99386605      -0.27746049
C       -1.36937172      -0.50045030      -0.62549195
C       -0.84817200       0.55425594       0.37406507
H        1.89647226      -0.50612768       1.19379371
H        2.69138146      -0.08113869      -0.28890287
H       -0.00393215      -1.60832124       0.62700419
H       -1.51556194      -0.10149611      -1.62578676
H       -2.22567794      -1.05504379      -0.25180232
H       -1.07705024       0.39206849       1.42177402
H       -1.22693953       1.53181862       0.09180571
13
Frame=9 idx=003433 GeodesicLength=0.9279674582514724 rxn_smarts="[N:1]([C:2](=[O:3])[C:4]1([H:9])[C:5]([H:10])([H:11])[C:6]1([H:12])[H:13])([H:7])[H:8]>>[N+:1]1([H:7])([H:8])[C:2](=[O:3])[C:6]([H:12])([H:13])[C:5]([H:10])([H:11])[C-:4]1[H:9]"
N        1.86128359      -0.10501150       0.24880151
C        0.80411357       0.74098764      -0.10207546
O        1.04691482       1.73497320      -0.73803817
C       -0.02629392      -0.98421151      -0.22552893
C       -1.35017344      -0.49999482      -0.62927688
C       -0.87626775       0.56313104       0.37803409
H        1.94141899      -0.50821233       1.16441240
H        2.66135503      -0.12217339      -0.36292090
H       -0.00176954      -1.58758018       0.68508925
H       -1.46226307      -0.11453278      -1.63924480
H       -2.21101069      -1.06598521      -0.28499187
H       -1.13406582       0.41006812       1.42058290
H       -1.25324177       1.53854172       0.08515687
13
Frame=10 idx=003433 GeodesicLength=1.0318928776633853 rxn_smarts="[N:1]([C:2](=[O:3])[C:4]1([H:9])[C:5]([H:10])([H:11])[C:6]1([H:12])[H:13])([H:7])[H:8]>>[N+:1]1([H:7])([H:8])[C:2](=[O:3])[C:6]([H:12])([H:13])[C:5]([H:10])([H:11])[C-:4]1[H:9]"
N        1.85303373      -0.13807215       0.20690784
C        0.80199704       0.74665106      -0.07436030
O        1.05544976       1.76409162      -0.66690922
C       -0.01732140      -0.97382619      -0.17126731
C       -1.32978128      -0.50000630      -0.63232186
C       -0.90513577       0.57231445       0.38050810
H        1.98895041      -0.51532477       1.12749985
H        2.62558669      -0.16030436      -0.43958048
H        0.00053280      -1.56360373       0.74688329
H       -1.40598766      -0.12858661      -1.65094782
H       -2.19387744      -1.07790835      -0.31779588
H       -1.19464364       0.42906773       1.41637608
H       -1.27880323       1.54550760       0.07500770
13
Frame=11 idx=003433 GeodesicLength=1.136197639581952 rxn_smarts="[N:1]([C:2](=[O:3])[C:4]1([H:9])[C:5]([H:10])([H:11])[C:6]1([H:12])[H:13])([H:7])[H:8]>>[N+:1]1([H:7])([H:8])[C:2](=[O:3])[C:6]([H:12])([H:13])[C:5]([H:10])([H:11])[C-:4]1[H:9]"
N        1.84240486      -0.16987051       0.16431345
C        0.80078518       0.75166416      -0.04242881
O        1.06615923       1.79110670      -0.58883647
C       -0.00960851      -0.96245407      -0.11436866
C       -1.30777838      -0.50058956      -0.63449961
C       -0.93456419       0.58177282       0.38123805
H        2.03820275      -0.52782328       1.08232196
H        2.58264376      -0.19498553      -0.51930147
H        0.00324164      -1.53560144       0.81279637
H       -1.34613004      -0.14393608      -1.66058238
H       -2.17365230      -1.09093060      -0.35010375
H       -1.25866395       0.44911321       1.40849025
H       -1.30304004       1.55253417       0.06096105
13
Frame=12 idx=003433 GeodesicLength=1.2412513751771193 rxn_smarts="[N:1]([C:2](=[O:3])[C:4]1([H:9])[C:5]([H:10])([H:11])[C:6]1([H:12])[H:13])([H:7])[H:8]>>[N+:1]1([H:7])([H:8])[C:2](=[O:3])[C:6]([H:12])([H:13])[C:5]([H:10])([H:11])[C-:4]1[H:9]"
N        1.82884040      -0.20040320       0.12059491
C        0.80066516       0.75607829      -0.00553071
O        1.07918163       1.81570371      -0.50329226
C       -0.00303332      -0.95007100      -0.05462297
C       -1.28381671      -0.50191225      -0.63561253
C       -0.96438727       0.59153032       0.37998807
H        2.08804540      -0.54617891       1.02801285
H        2.53131267      -0.22538575      -0.60227330
H        0.00663786      -1.50316849       0.88315329
H       -1.28198967      -0.16081426      -1.66780194
H       -2.14990198      -1.10533224      -0.38156625
H       -1.32621830       0.47022127       1.39629667
H       -1.32533589       1.55973251       0.04265417
13
Frame=13 idx=003433 GeodesicLength=1.34736544214664 rxn_smarts="[N:1]([C:2](=[O:3])[C:4]1([H:9])[C:5]([H:10])([H:11])[C:6]1([H:12])[H:13])([H:7])[H:8]>>[N+:1]1([H:7])([H:8])[C:2](=[O:3])[C:6]([H:12])([H:13])[C:5]([H:10])([H:11])[C-:4]1[H:9]"
N        1.81139277      -0.22936683       0.07606010
C        0.80175653       0.75974930       0.03620741
O        1.09473508       1.83729577      -0.41085309
C        0.00255625      -0.93653572       0.00728338
C       -1.25777049      -0.50406657      -0.63547502
C       -0.99395219       0.60135687       0.37649634
H        2.13639386      -0.56958138       0.96477164
H        2.47038205      -0.25098557      -0.68719708
H        0.01131460      -1.46628955       0.95682687
H       -1.21410351      -0.17920117      -1.67203735
H       -2.12217254      -1.12131724      -0.41165387
H       -1.39593789       0.49200641       1.37924621
H       -1.34459452       1.56693568       0.02032445
13
Frame=14 idx=003433 GeodesicLength=1.4550109987438808 rxn_smarts="[N:1]([C:2](=[O:3])[C:4]1([H:9])[C:5]([H:10])([H:11])[C:6]1([H:12])[H:13])([H:7])[H:8]>>[N+:1]1([H:7])([H:8])[C:2](=[O:3])[C:6]([H:12])([H:13])[C:5]([H:10])([H:11])[C-:4]1[H:9]"
N        1.78955614      -0.25627848       0.03146349
C        0.80431535       0.76256037       0.08211299
O        1.11251450       1.85482351      -0.31433548
C        0.00749116      -0.92204230       0.07009360
C       -1.22983827      -0.50693075      -0.63392815
C       -1.02251028       0.61099791       0.37084992
H        2.18056551      -0.59726552       0.89345579
H        2.40019849      -0.27063517      -0.77163819
H        0.01769292      -1.42582865       1.03207549
H       -1.14308552      -0.19851576      -1.67293607
H       -2.09053931      -1.13880051      -0.43941041
H       -1.46649189       0.51372761       1.35734091
H       -1.35986880       1.57418773      -0.00514387
13
Frame=15 idx=003433 GeodesicLength=1.56476673209222 rxn_smarts="[N:1]([C:2](=[O:3])[C:4]1([H:9])[C:5]([H:10])([H:11])[C:6]1([H:12])[H:13])([H:7])[H:8]>>[N+:1]1([H:7])([H:8])[C:2](=[O:3])[C:6]([H:12])([H:13])[C:5]([H:10])([H:11])[C-:4]1[H:9]"
N        1.76310307      -0.28058336      -0.01170235
C        0.80838404       0.76425971       0.13040915
O        1.13202561       1.86742310      -0.21766853
C        0.01215629      -0.90669371       0.13182623
C       -1.20060299      -0.51014154      -0.63102784
C       -1.04908051       0.61995613       0.36329975
H        2.21797782      -0.62706572       0.81662799
H        2.32184344      -0.28433008      -0.85217887
H        0.02625386      -1.38309595       1.10601652
H       -1.07085016      -0.21780588      -1.67030420
H       -2.05537448      -1.15733172      -0.46418222
H       -1.53536410       0.53425400       1.33100805
H       -1.37047187       1.58115502      -0.03212368
13
Frame=16 idx=003433 GeodesicLength=1.6767665592653036 rxn_smarts="[N:1]([C:2](=[O:3])[C:4]1([H:9])[C:5]([H:10])([H:11])[C:6]1([H:12])[H:13])([H:7])[H:8]>>[N+:1]1([H:7])([H:8])[C:2](=[O:3])[C:6]([H:12])([H:13])[C:5]([H:10])([H:11])[C-:4]1[H:9]"
N        1.73285546      -0.30204788      -0.05171144
C        0.81395190       0.76495947       0.17850737
O        1.15277617       1.87531633      -0.12577330
C        0.01695790      -0.89087857       0.19020410
C       -1.17105642      -0.51328118      -0.62707998
C       -1.07316067       0.62788967       0.35448895
H        2.24705321      -0.65652571       0.73815601
H        2.23847864      -0.29320928      -0.92547509
H        0.03699803      -1.34027005       1.17552421
H       -0.99987630      -0.23580485      -1.66455340
H       -2.01773549      -1.17652079      -0.48558321
H       -1.60044834       0.55247407       1.30165040
H       -1.37679409       1.58789877      -0.05835463
