17
Frame=0 idx=010111 GeodesicLength=0.0 rxn_smarts="[C:1]([C@@:2]1([H:11])[C:3]([H:12])([H:13])[C@:4]1([C:5]([C:6](=[O:7])[H:17])([H:15])[H:16])[H:14])([H:8])([H:9])[H:10]>>[C:1]([C@@:2]1([H:11])[C:3]([H:12])([H:13])[C@:4]1([C:5]([O+:7]=[C-:6][H:17])([H:15])[H:16])[H:14])([H:8])([H:9])[H:10]"
C       -1.77650706      -0.35353725       0.48492350
C       -1.09929827       0.76727504      -0.26058199
C        0.03414166       1.52134503       0.34340262
C        0.29916609       0.61120647      -0.82364056
C        1.04970694      -0.66138905      -0.69136755
C        1.63438205      -1.02878288       0.94562898
O        2.54012855      -0.52945403       0.16832140
H       -2.59625673       0.03782788       1.09034121
H       -1.08178212      -0.85688601       1.15819120
H       -2.19764405      -1.09203694      -0.20228008
H       -1.76135777       1.34321974      -0.89847111
H        0.11310791       2.58549209       0.16451908
H        0.41386855       1.16641532       1.29273325
H        0.48702405       1.10985683      -1.76663999
H        1.65579427      -0.89308440      -1.56969227
H        0.47682120      -1.59073266      -0.51623317
H        1.80870479      -2.13673518       1.08084541
17
Frame=1 idx=010111 GeodesicLength=0.07166168503744605 rxn_smarts="[C:1]([C@@:2]1([H:11])[C:3]([H:12])([H:13])[C@:4]1([C:5]([C:6](=[O:7])[H:17])([H:15])[H:16])[H:14])([H:8])([H:9])[H:10]>>[C:1]([C@@:2]1([H:11])[C:3]([H:12])([H:13])[C@:4]1([C:5]([O+:7]=[C-:6][H:17])([H:15])[H:16])[H:14])([H:8])([H:9])[H:10]"
C       -1.79672531      -0.34584661       0.47224251
C       -1.10206741       0.76906619      -0.26637517
C        0.02995035       1.51398050       0.35296953
C        0.30076161       0.60636155      -0.81432735
C        1.04257626      -0.67196329      -0.68223954
C        1.68455518      -1.02740392       0.93915336
O        2.55762673      -0.51338686       0.14027428
H       -2.61517024       0.05268439       1.07477399
H       -1.11051395      -0.85971635       1.14657742
H       -2.22287134      -1.07689226      -0.21980518
H       -1.75373544       1.35251590      -0.90811406
H        0.11711837       2.57855406       0.18061269
H        0.39384434       1.15507463       1.30705712
H        0.50342989       1.10991544      -1.75177820
H        1.61483359      -0.92598229      -1.57744257
H        0.46284104      -1.59024854      -0.47931347
H        1.89354632      -2.12671254       1.08573463
17
Frame=2 idx=010111 GeodesicLength=0.1429971258816199 rxn_smarts="[C:1]([C@@:2]1([H:11])[C:3]([H:12])([H:13])[C@:4]1([C:5]([C:6](=[O:7])[H:17])([H:15])[H:16])[H:14])([H:8])([H:9])[H:10]>>[C:1]([C@@:2]1([H:11])[C:3]([H:12])([H:13])[C@:4]1([C:5]([O+:7]=[C-:6][H:17])([H:15])[H:16])[H:14])([H:8])([H:9])[H:10]"
C       -1.81782183      -0.33772853       0.45863443
C       -1.10483921       0.77105133      -0.27206149
C        0.02573269       1.50593693       0.36320359
C        0.30221182       0.60094323      -0.80447932
C        1.03521807      -0.68304207      -0.67176929
C        1.73684014      -1.02517798       0.93102839
O        2.57510891      -0.49732773       0.10993854
H       -2.63559143       0.06805633       1.05733727
H       -1.14125082      -0.86202896       1.13496325
H       -2.24800454      -1.06129908      -0.23876959
H       -1.74541227       1.36248880      -0.91763995
H        0.12172018       2.57083959       0.19773108
H        0.37353474       1.14250975       1.32165490
H        0.51992531       1.10899381      -1.73626032
H        1.57156404      -0.96043123      -1.58284289
H        0.44956995      -1.58925480      -0.43868112
H        1.98149425      -2.11452939       1.08801252
17
Frame=3 idx=010111 GeodesicLength=0.21390411256349473 rxn_smarts="[C:1]([C@@:2]1([H:11])[C:3]([H:12])([H:13])[C@:4]1([C:5]([C:6](=[O:7])[H:17])([H:15])[H:16])[H:14])([H:8])([H:9])[H:10]>>[C:1]([C@@:2]1([H:11])[C:3]([H:12])([H:13])[C@:4]1([C:5]([O+:7]=[C-:6][H:17])([H:15])[H:16])[H:14])([H:8])([H:9])[H:10]"
C       -1.83969123      -0.32919638       0.44402787
C       -1.10756599       0.77323301      -0.27761636
C        0.02147904       1.49721474       0.37412827
C        0.30353793       0.59495484      -0.79406240
C        1.02769583      -0.69459522      -0.65983719
C        1.79114910      -1.02211673       0.92104626
O        2.59242895      -0.48141323       0.07724901
H       -2.65744306       0.08390534       1.03786885
H       -1.17397056      -0.86379773       1.12331630
H       -2.27281767      -1.04531728      -0.25925389
H       -1.73632674       1.37311354      -0.92700483
H        0.12687847       2.56232496       0.21591081
H        0.35295329       1.12873220       1.33652408
H        0.53646003       1.10702534      -1.72007820
H        1.52575943      -0.99648596      -1.58551205
H        0.43720100      -1.58751711      -0.39411260
H        2.07227218      -2.10006432       1.08740609
17
Frame=4 idx=010111 GeodesicLength=0.28423176673728223 rxn_smarts="[C:1]([C@@:2]1([H:11])[C:3]([H:12])([H:13])[C@:4]1([C:5]([C:6](=[O:7])[H:17])([H:15])[H:16])[H:14])([H:8])([H:9])[H:10]>>[C:1]([C@@:2]1([H:11])[C:3]([H:12])([H:13])[C@:4]1([C:5]([O+:7]=[C-:6][H:17])([H:15])[H:16])[H:14])([H:8])([H:9])[H:10]"
C       -1.86219397      -0.32027228       0.42837093
C       -1.11020285       0.77561164      -0.28301687
C        0.01717112       1.48785013       0.38574011
C        0.30476381       0.58841637      -0.78305057
C        1.02007645      -0.70657751      -0.64632310
C        1.84728219      -1.01828538       0.90900234
O        2.60938354      -0.46580803       0.04221129
H       -2.68059564       0.10017664       1.01623718
H       -1.20859090      -0.86499068       1.11160789
H       -2.29705835      -1.02902739      -0.28130207
H       -1.72643626       1.38433503      -0.93617613
H        0.13252690       2.55301990       0.23513586
H        0.33210321       1.11381981       1.35165151
H        0.55297211       1.10395603      -1.70325821
H        1.47730169      -1.03414704      -1.58490607
H        0.42592493      -1.58474870      -0.34543971
H        2.16557202      -2.08332856       1.08351562
17
Frame=5 idx=010111 GeodesicLength=0.35390362301212563 rxn_smarts="[C:1]([C@@:2]1([H:11])[C:3]([H:12])([H:13])[C@:4]1([C:5]([C:6](=[O:7])[H:17])([H:15])[H:16])[H:14])([H:8])([H:9])[H:10]>>[C:1]([C@@:2]1([H:11])[C:3]([H:12])([H:13])[C@:4]1([C:5]([O+:7]=[C-:6][H:17])([H:15])[H:16])[H:14])([H:8])([H:9])[H:10]"
C       -1.88523008      -0.31093924       0.41171387
C       -1.11275295       0.77816099      -0.28824042
C        0.01275099       1.47790278       0.39798060
C        0.30587026       0.58130347      -0.77142637
C        1.01230546      -0.71901604      -0.63101958
C        1.90490095      -1.01380389       0.89479733
O        2.62566692      -0.45066229       0.00501711
H       -2.70492577       0.11694721       0.99247750
H       -1.24504500      -0.86555598       1.09983373
H       -2.32059808      -1.01247031      -0.30476801
H       -1.71575478       1.39602805      -0.94515581
H        0.13855596       2.54296124       0.25526623
H        0.31094292       1.09795353       1.36701247
H        0.56936692       1.09967480      -1.68589055
H        1.42707774      -1.07321786      -1.58048604
H        0.41559522      -1.58066003      -0.29274911
H        2.26127332      -2.06460642       1.07563705
17
Frame=6 idx=010111 GeodesicLength=0.42276070210020017 rxn_smarts="[C:1]([C@@:2]1([H:11])[C:3]([H:12])([H:13])[C@:4]1([C:5]([C:6](=[O:7])[H:17])([H:15])[H:16])[H:14])([H:8])([H:9])[H:10]>>[C:1]([C@@:2]1([H:11])[C:3]([H:12])([H:13])[C@:4]1([C:5]([O+:7]=[C-:6][H:17])([H:15])[H:16])[H:14])([H:8])([H:9])[H:10]"
C       -1.90849031      -0.30133404       0.39403064
C       -1.11511726       0.78087823      -0.29326670
C        0.00822995       1.46750201       0.41081494
C        0.30694078       0.57374422      -0.75920273
C        1.00455855      -0.73173115      -0.61393611
C        1.96361533      -1.00887784       0.87823036
O        2.64106061      -0.43625971      -0.03418721
H       -2.73012401       0.13393860       0.96656826
H       -1.28297760      -0.86554610       1.08792381
H       -2.34303783      -0.99586054      -0.32969098
H       -1.70425823       1.40809099      -0.95390028
H        0.14484949       2.53227117       0.27624887
H        0.28951355       1.08134361       1.38257748
H        0.58559679       1.09426392      -1.66803190
H        1.37455109      -1.11365514      -1.57181717
H        0.40665354      -1.57486304      -0.23611083
H        2.35843556      -2.04390520       1.06374955
17
Frame=7 idx=010111 GeodesicLength=0.4907296516896813 rxn_smarts="[C:1]([C@@:2]1([H:11])[C:3]([H:12])([H:13])[C@:4]1([C:5]([C:6](=[O:7])[H:17])([H:15])[H:16])[H:14])([H:8])([H:9])[H:10]>>[C:1]([C@@:2]1([H:11])[C:3]([H:12])([H:13])[C@:4]1([C:5]([O+:7]=[C-:6][H:17])([H:15])[H:16])[H:14])([H:8])([H:9])[H:10]"
C       -1.93167753      -0.29156688       0.37537152
C       -1.11723526       0.78373299      -0.29808264
C        0.00358832       1.45680004       0.42415206
C        0.30802810       0.56583605      -0.74640186
C        0.99693105      -0.74459091      -0.59506923
C        2.02291029      -1.00379752       0.85921655
O        2.65529928      -0.42282197      -0.07506299
H       -2.75585277       0.15096972       0.93862356
H       -1.32199346      -0.86501652       1.07581268
H       -2.36407673      -0.97936261      -0.35595591
H       -1.69198247       1.42035347      -0.96239743
H        0.15124575       2.52109295       0.29791388
H        0.26781663       1.06429035       1.39829517
H        0.60159354       1.08778080      -1.64977897
H        1.31985292      -1.15518813      -1.55849770
H        0.39929015      -1.56700564      -0.17579795
H        2.45626218      -2.02150621       1.04765927
17
Frame=8 idx=010111 GeodesicLength=0.5577551716946998 rxn_smarts="[C:1]([C@@:2]1([H:11])[C:3]([H:12])([H:13])[C@:4]1([C:5]([C:6](=[O:7])[H:17])([H:15])[H:16])[H:14])([H:8])([H:9])[H:10]>>[C:1]([C@@:2]1([H:11])[C:3]([H:12])([H:13])[C@:4]1([C:5]([O+:7]=[C-:6][H:17])([H:15])[H:16])[H:14])([H:8])([H:9])[H:10]"
C       -1.95448416      -0.28175201       0.35585063
C       -1.11906602       0.78668767      -0.30269095
C       -0.00122039       1.44599747       0.43786111
C        0.30917212       0.55769879      -0.73306002
C        0.98949815      -0.75744683      -0.57442624
C        2.08216762      -0.99894525       0.83776113
O        2.66812931      -0.41055923      -0.11713107
H       -2.78172772       0.16785024       0.90886149
H       -1.36164353      -0.86403080       1.06344666
H       -2.38345477      -0.96314966      -0.38335364
H       -1.67900667       1.43261333      -0.97067415
H        0.15752751       2.50963127       0.32001508
H        0.24581672       1.04718561       1.41410327
H        0.61728941       1.08032078      -1.63124270
H        1.26342972      -1.19747142      -1.54018083
H        0.39361001      -1.55674109      -0.11225161
H        2.55396269      -1.99788886       1.02711184
17
Frame=9 idx=010111 GeodesicLength=0.623808241297759 rxn_smarts="[C:1]([C@@:2]1([H:11])[C:3]([H:12])([H:13])[C@:4]1([C:5]([C:6](=[O:7])[H:17])([H:15])[H:16])[H:14])([H:8])([H:9])[H:10]>>[C:1]([C@@:2]1([H:11])[C:3]([H:12])([H:13])[C@:4]1([C:5]([O+:7]=[C-:6][H:17])([H:15])[H:16])[H:14])([H:8])([H:9])[H:10]"
C       -1.97673169      -0.27193546       0.33568918
C       -1.12061000       0.78964424      -0.30710757
C       -0.00627604       1.43527797       0.45178482
C        0.31039213       0.54934901      -0.71917370
C        0.98227725      -0.77025749      -0.55187704
C        2.14076625      -0.99471138       0.81400708
O        2.67929799      -0.39949780      -0.15975376
H       -2.80744512       0.18461697       0.87764532
H       -1.40158473      -0.86263018       1.05084596
H       -2.40116479      -0.94728353      -0.41148367
H       -1.66543066       1.44457029      -0.97883653
H        0.16345617       2.49807315       0.34221148
H        0.22341231       1.03047257       1.42995555
H        0.63264934       1.07185828      -1.61250241
H        1.20675219      -1.23993481      -1.51678503
H        0.38925825      -1.54396714      -0.04616141
H        2.65098116      -1.97364468       1.00154172
17
Frame=10 idx=010111 GeodesicLength=0.6889545831130199 rxn_smarts="[C:1]([C@@:2]1([H:11])[C:3]([H:12])([H:13])[C@:4]1([C:5]([C:6](=[O:7])[H:17])([H:15])[H:16])[H:14])([H:8])([H:9])[H:10]>>[C:1]([C@@:2]1([H:11])[C:3]([H:12])([H:13])[C@:4]1([C:5]([O+:7]=[C-:6][H:17])([H:15])[H:16])[H:14])([H:8])([H:9])[H:10]"
C       -1.99800353      -0.26236436       0.31496561
C       -1.12179121       0.79260934      -0.31134333
C       -0.01156572       1.42490775       0.46579061
C        0.31177392       0.54105254      -0.70484851
C        0.97539793      -0.78273129      -0.52771534
C        2.19812148      -0.99157010       0.78801223
O        2.68868875      -0.38992824      -0.20246423
H       -2.83254448       0.20079175       0.84525297
H       -1.44112697      -0.86100207       1.03788377
H       -2.41684770      -0.93207818      -0.44026475
H       -1.65136889       1.45609951      -0.98686199
H        0.16884184       2.48672577       0.36431394
H        0.20062910       1.01456245       1.44577033
H        0.64766480       1.06272208      -1.59368448
H        1.14923006      -1.28226946      -1.48811473
H        0.38669951      -1.52832982       0.02183137
H        2.74620110      -1.94919766       0.97147653
17
Frame=11 idx=010111 GeodesicLength=0.7532996823663873 rxn_smarts="[C:1]([C@@:2]1([H:11])[C:3]([H:12])([H:13])[C@:4]1([C:5]([C:6](=[O:7])[H:17])([H:15])[H:16])[H:14])([H:8])([H:9])[H:10]>>[C:1]([C@@:2]1([H:11])[C:3]([H:12])([H:13])[C@:4]1([C:5]([O+:7]=[C-:6][H:17])([H:15])[H:16])[H:14])([H:8])([H:9])[H:10]"
C       -2.01805372      -0.25317166       0.29384888
C       -1.12259334       0.79552910      -0.31542535
C       -0.01712859       1.41509879       0.47973410
C        0.31335887       0.53294453      -0.69013336
C        0.96889553      -0.79471738      -0.50207371
C        2.25369886      -0.98998397       0.75995638
O        2.69622834      -0.38191737      -0.24468143
H       -2.85668153       0.21618402       0.81204991
H       -1.47978100      -0.85928959       1.02451432
H       -2.43041499      -0.91766655      -0.46942327
H       -1.63695106       1.46700048      -0.99481147
H        0.17347543       2.47582999       0.38606230
H        0.17740840       0.99985575       1.46148398
H        0.66234657       1.05308940      -1.57485109
H        1.09136011      -1.32399421      -1.45432287
H        0.38591476      -1.50974938       0.09101166
H        2.83891735      -1.92504194       0.93706101
17
Frame=12 idx=010111 GeodesicLength=0.8169398232347391 rxn_smarts="[C:1]([C@@:2]1([H:11])[C:3]([H:12])([H:13])[C@:4]1([C:5]([C:6](=[O:7])[H:17])([H:15])[H:16])[H:14])([H:8])([H:9])[H:10]>>[C:1]([C@@:2]1([H:11])[C:3]([H:12])([H:13])[C@:4]1([C:5]([O+:7]=[C-:6][H:17])([H:15])[H:16])[H:14])([H:8])([H:9])[H:10]"
C       -2.03671033      -0.24447868       0.27249555
C       -1.12302063       0.79836462      -0.31939221
C       -0.02301569       1.40604746       0.49348751
C        0.31517470       0.52515713      -0.67506694
C        0.96279270      -0.80608233      -0.47507693
C        2.30706937      -0.99039047       0.73003810
O        2.70192371      -0.37546118      -0.28589705
H       -2.87960238       0.23061556       0.77835354
H       -1.51714554      -0.85760387       1.01072934
H       -2.44182413      -0.90416616      -0.49870859
H       -1.62230541       1.47711568      -1.00277252
H        0.17716183       2.46561830       0.40722345
H        0.15366330       0.98670820       1.47703985
H        0.67672238       1.04314229      -1.55603885
H        1.03364489      -1.36464536      -1.41553464
H        0.38682309      -1.48820500       0.16071595
H        2.92864812      -1.90173618       0.89840445
17
Frame=13 idx=010111 GeodesicLength=0.8798987910291367 rxn_smarts="[C:1]([C@@:2]1([H:11])[C:3]([H:12])([H:13])[C@:4]1([C:5]([C:6](=[O:7])[H:17])([H:15])[H:16])[H:14])([H:8])([H:9])[H:10]>>[C:1]([C@@:2]1([H:11])[C:3]([H:12])([H:13])[C@:4]1([C:5]([O+:7]=[C-:6][H:17])([H:15])[H:16])[H:14])([H:8])([H:9])[H:10]"
C       -2.05394483      -0.23632841       0.25108319
C       -1.12309190       0.80102241      -0.32329331
C       -0.02929197       1.39789821       0.50695154
C        0.31724761       0.51770774      -0.65960916
C        0.95713374      -0.81676302      -0.44666114
C        2.35792867      -0.99311797       0.69848859
O        2.70582672      -0.37032232      -0.32554542
H       -2.90121516       0.24412128       0.74439652
H       -1.55303363      -0.85598130       0.99663892
H       -2.45119679      -0.89165727      -0.52782064
H       -1.60751850       1.48622365      -1.01090328
H        0.17973076       2.45627440       0.42755507
H        0.12928926       0.97543477       1.49241952
H        0.69085778       1.03291533      -1.53720311
H        0.97714355      -1.40371197      -1.37219049
H        0.38906892      -1.46386165       0.23053265
H        3.01506575      -1.87985387       0.85516055
17
Frame=14 idx=010111 GeodesicLength=0.9423625655626088 rxn_smarts="[C:1]([C@@:2]1([H:11])[C:3]([H:12])([H:13])[C@:4]1([C:5]([C:6](=[O:7])[H:17])([H:15])[H:16])[H:14])([H:8])([H:9])[H:10]>>[C:1]([C@@:2]1([H:11])[C:3]([H:12])([H:13])[C@:4]1([C:5]([O+:7]=[C-:6][H:17])([H:15])[H:16])[H:14])([H:8])([H:9])[H:10]"
C       -2.06953991      -0.22892063       0.22968185
C       -1.12278755       0.80352239      -0.32714367
C       -0.03593936       1.39081266       0.52005429
C        0.31961849       0.51082263      -0.64385537
C        0.95192791      -0.82655730      -0.41718950
C        2.40602170      -0.99856394       0.66538696
O        2.70808032      -0.36658963      -0.36340850
H       -2.92128908       0.25632854       0.71043765
H       -1.58698545      -0.85462780       0.98216796
H       -2.45837763      -0.88030868      -0.55669127
H       -1.59271582       1.49431880      -1.01917442
H        0.18108469       2.44801137       0.44699527
H        0.10431227       0.96622182       1.50755362
H        0.70480212       1.02275680      -1.51838455
H        0.92129910      -1.44091816      -1.32449556
H        0.39294290      -1.43670958       0.29982670
H        3.09754530      -1.85959930       0.80823852
17
Frame=15 idx=010111 GeodesicLength=1.0045456012677894 rxn_smarts="[C:1]([C@@:2]1([H:11])[C:3]([H:12])([H:13])[C@:4]1([C:5]([C:6](=[O:7])[H:17])([H:15])[H:16])[H:14])([H:8])([H:9])[H:10]>>[C:1]([C@@:2]1([H:11])[C:3]([H:12])([H:13])[C@:4]1([C:5]([O+:7]=[C-:6][H:17])([H:15])[H:16])[H:14])([H:8])([H:9])[H:10]"
C       -2.08349948      -0.22230407       0.20836369
C       -1.12212820       0.80585383      -0.33097128
C       -0.04298235       1.38484066       0.53276447
C        0.32229759       0.50456770      -0.62780595
C        0.94711394      -0.83544171      -0.38677425
C        2.45122124      -1.00699047       0.63081446
O        2.70880442      -0.36422184      -0.39926566
H       -2.93981782       0.26715658       0.67661202
H       -1.61889726      -0.85362526       0.96732763
H       -2.46342382      -0.87013785      -0.58522631
H       -1.57795289       1.50138580      -1.02763321
H        0.18117267       2.44090931       0.46549455
H        0.07865139       0.95913839       1.52240907
H        0.71863531       1.01279630      -1.49952491
H        0.86632999      -1.47598980      -1.27265746
H        0.39838189      -1.40684132       0.36820443
H        3.17609337      -1.84109625       0.75786872
17
Frame=16 idx=010111 GeodesicLength=1.0664567771625837 rxn_smarts="[C:1]([C@@:2]1([H:11])[C:3]([H:12])([H:13])[C@:4]1([C:5]([C:6](=[O:7])[H:17])([H:15])[H:16])[H:14])([H:8])([H:9])[H:10]>>[C:1]([C@@:2]1([H:11])[C:3]([H:12])([H:13])[C@:4]1([C:5]([O+:7]=[C-:6][H:17])([H:15])[H:16])[H:14])([H:8])([H:9])[H:10]"
C       -2.09580842      -0.21655449       0.18721351
C       -1.12112239       0.80797902      -0.33480182
C       -0.05043803       1.38005875       0.54505735
C        0.32530434       0.49901375      -0.61145104
C        0.94272795      -0.84332247      -0.35550758
C        2.49338068      -1.01862750       0.59482636
O        2.70819244      -0.36300746      -0.43289014
H       -2.95678542       0.27653338       0.64301684
H       -1.64864511      -0.85303316       0.95222506
H       -2.46637507      -0.86124807      -0.61329346
H       -1.56329192       1.50735951      -1.03634663
H        0.17992584       2.43508879       0.48298994
H        0.05229911       0.95427991       1.53696467
H        0.73242863       1.00317348      -1.48057132
H        0.81249562      -1.50862616      -1.21719166
H        0.40528304      -1.37446291       0.43545216
H        3.25042869      -1.82460436       0.70430777
