13
Frame=0 idx=002268 GeodesicLength=0.0 rxn_smarts="[C:1]1([H:7])([H:8])[C:2]([H:9])=[C:3]([H:10])[C@@:4]2([H:11])[N:5]([H:12])[C@@:6]12[H:13]>>[C:1]1([H:7])([H:8])[C:2]([H:9])=[C:3]([H:10])[C:4]([H:11])=[N:5][C:6]1([H:12])[H:13]"
C        0.47806284      -1.11889306      -0.04213661
C        1.21071091       0.02079215      -0.69347828
C        0.61113383       1.18555368      -0.50658067
C       -0.68351506       1.05404392       0.25296564
N       -1.79358852       0.54708059      -0.35618485
C       -0.75361809      -0.48317557       0.60269505
H        1.08592053      -1.60664044       0.72464205
H        0.20342722      -1.88796350      -0.76795304
H        2.11066728      -0.13323293      -1.27660189
H        0.96152684       2.14142781      -0.87437974
H       -0.80561605       1.72401328       1.11616140
H       -1.71661076      -0.86959669       0.14557934
H       -0.90850100      -0.57340928       1.67527166
13
Frame=1 idx=002268 GeodesicLength=0.08520435482591474 rxn_smarts="[C:1]1([H:7])([H:8])[C:2]([H:9])=[C:3]([H:10])[C@@:4]2([H:11])[N:5]([H:12])[C@@:6]12[H:13]>>[C:1]1([H:7])([H:8])[C:2]([H:9])=[C:3]([H:10])[C:4]([H:11])=[N:5][C:6]1([H:12])[H:13]"
C        0.47546011      -1.11921080      -0.04258669
C        1.20811750       0.02098237      -0.69243851
C        0.60646263       1.18646985      -0.51552039
C       -0.67881398       1.06465532       0.25744484
N       -1.79141837       0.53742416      -0.32709342
C       -0.75619904      -0.48659444       0.60339252
H        1.08428265      -1.61064561       0.72096226
H        0.20135598      -1.88535646      -0.77206387
H        2.11860788      -0.13091838      -1.25963856
H        0.96202223       2.14038259      -0.88348431
H       -0.80023317       1.74810682       1.10902886
H       -1.72278068      -0.88293476       0.12588597
H       -0.90686373      -0.58236067       1.67611130
13
Frame=2 idx=002268 GeodesicLength=0.17039528619022162 rxn_smarts="[C:1]1([H:7])([H:8])[C:2]([H:9])=[C:3]([H:10])[C@@:4]2([H:11])[N:5]([H:12])[C@@:6]12[H:13]>>[C:1]1([H:7])([H:8])[C:2]([H:9])=[C:3]([H:10])[C:4]([H:11])=[N:5][C:6]1([H:12])[H:13]"
C        0.47289586      -1.11969303      -0.04300445
C        1.20557369       0.02115849      -0.69111222
C        0.60164245       1.18721597      -0.52427771
C       -0.67416275       1.07509475       0.26190585
N       -1.78879001       0.52781323      -0.29760463
C       -0.75857307      -0.49035161       0.60455184
H        1.08277843      -1.61503233       0.71706948
H        0.19919371      -1.88271093      -0.77627751
H        2.12605511      -0.12844253      -1.24268404
H        0.96240741       2.13916496      -0.89232227
H       -0.79547231       1.77272250       1.10086701
H       -1.72881959      -0.89542296       0.10547614
H       -0.90472893      -0.59151650       1.67741249
13
Frame=3 idx=002268 GeodesicLength=0.25560931498685785 rxn_smarts="[C:1]1([H:7])([H:8])[C:2]([H:9])=[C:3]([H:10])[C@@:4]2([H:11])[N:5]([H:12])[C@@:6]12[H:13]>>[C:1]1([H:7])([H:8])[C:2]([H:9])=[C:3]([H:10])[C:4]([H:11])=[N:5][C:6]1([H:12])[H:13]"
C        0.47038894      -1.12035190      -0.04336910
C        1.20310709       0.02132417      -0.68944492
C        0.59672412       1.18780494      -0.53274755
C       -0.66957100       1.08535816       0.26635533
N       -1.78563975       0.51819224      -0.26776463
C       -0.76071668      -0.49446093       0.60620787
H        1.08142703      -1.61982800       0.71297544
H        0.19695095      -1.88002627      -0.78058561
H        2.13291597      -0.12584992      -1.22593714
H        0.96271696       2.13778287      -0.90081692
H       -0.79149492       1.79785718       1.09157920
H       -1.73474567      -0.90692211       0.08433484
H       -0.90206305      -0.60088045       1.67921320
13
Frame=4 idx=002268 GeodesicLength=0.34099217359965167 rxn_smarts="[C:1]1([H:7])([H:8])[C:2]([H:9])=[C:3]([H:10])[C@@:4]2([H:11])[N:5]([H:12])[C@@:6]12[H:13]>>[C:1]1([H:7])([H:8])[C:2]([H:9])=[C:3]([H:10])[C:4]([H:11])=[N:5][C:6]1([H:12])[H:13]"
C        0.46797118      -1.12120984      -0.04366076
C        1.20074180       0.02148091      -0.68738715
C        0.59174469       1.18826743      -0.54082026
C       -0.66504739       1.09544487       0.27081049
N       -1.78190328       0.50852952      -0.23759160
C       -0.76260160      -0.49892484       0.60841446
H        1.08028419      -1.62508011       0.70869729
H        0.19464070      -1.87732041      -0.78499889
H        2.13912574      -0.12320507      -1.20959423
H        0.96297133       2.13625243      -0.90889931
H       -0.78847855       1.82348509       1.08104183
H       -1.74060847      -0.91727613       0.06240676
H       -0.89884036      -0.61044385       1.68158139
13
Frame=5 idx=002268 GeodesicLength=0.4263604020645229 rxn_smarts="[C:1]1([H:7])([H:8])[C:2]([H:9])=[C:3]([H:10])[C@@:4]2([H:11])[N:5]([H:12])[C@@:6]12[H:13]>>[C:1]1([H:7])([H:8])[C:2]([H:9])=[C:3]([H:10])[C:4]([H:11])=[N:5][C:6]1([H:12])[H:13]"
C        0.46563652      -1.12224900      -0.04387804
C        1.19852659       0.02160751      -0.68488675
C        0.58687132       1.18847212      -0.54840274
C       -0.66059365       1.10533290       0.27530279
N       -1.77754692       0.49872600      -0.20717066
C       -0.76414077      -0.50384250       0.61118411
H        1.07928997      -1.63074262       0.70414316
H        0.19222394      -1.87450010      -0.78943947
H        2.14459791      -0.12054435      -1.19387000
H        0.96327055       2.13451456      -0.91648356
H       -0.78681686       1.84988105       1.06922219
H       -1.74634451      -0.92630851       0.03978084
H       -0.89497409      -0.62034706       1.68449813
13
Frame=6 idx=002268 GeodesicLength=0.5109787732865553 rxn_smarts="[C:1]1([H:7])([H:8])[C:2]([H:9])=[C:3]([H:10])[C@@:4]2([H:11])[N:5]([H:12])[C@@:6]12[H:13]>>[C:1]1([H:7])([H:8])[C:2]([H:9])=[C:3]([H:10])[C:4]([H:11])=[N:5][C:6]1([H:12])[H:13]"
C        0.46332848      -1.12340292      -0.04396379
C        1.19632040       0.02176765      -0.68200978
C        0.58199177       1.18866279      -0.55534158
C       -0.65629865       1.11509390       0.27973450
N       -1.77261892       0.48895742      -0.17668297
C       -0.76559149      -0.50906346       0.61432510
H        1.07838727      -1.63661752       0.69954787
H        0.18979670      -1.87165311      -0.79383239
H        2.14933356      -0.11782333      -1.17870471
H        0.96345526       2.13261630      -0.92361961
H       -0.78562384       1.87604113       1.05617099
H       -1.75190145      -0.93430664       0.01659843
H       -0.89057909      -0.63027220       1.68777792
13
Frame=7 idx=002268 GeodesicLength=0.5965588861487061 rxn_smarts="[C:1]1([H:7])([H:8])[C:2]([H:9])=[C:3]([H:10])[C@@:4]2([H:11])[N:5]([H:12])[C@@:6]12[H:13]>>[C:1]1([H:7])([H:8])[C:2]([H:9])=[C:3]([H:10])[C:4]([H:11])=[N:5][C:6]1([H:12])[H:13]"
C        0.46120411      -1.12485539      -0.04396386
C        1.19436153       0.02188368      -0.67855387
C        0.57726810       1.18871207      -0.56162122
C       -0.65204985       1.12463614       0.28429519
N       -1.76689308       0.47889118      -0.14579154
C       -0.76655553      -0.51474445       0.61829945
H        1.07783278      -1.64322325       0.69463394
H        0.18722604      -1.86873674      -0.79841801
H        2.15332143      -0.11530538      -1.16454068
H        0.96378280       2.13061473      -0.93009367
H       -0.78655082       1.90311311       1.04134245
H       -1.75752354      -0.94044580      -0.00750915
H       -0.88542396      -0.64053990       1.69192097
13
Frame=8 idx=002268 GeodesicLength=0.6810116982432097 rxn_smarts="[C:1]1([H:7])([H:8])[C:2]([H:9])=[C:3]([H:10])[C@@:4]2([H:11])[N:5]([H:12])[C@@:6]12[H:13]>>[C:1]1([H:7])([H:8])[C:2]([H:9])=[C:3]([H:10])[C:4]([H:11])=[N:5][C:6]1([H:12])[H:13]"
C        0.45906061      -1.12639621      -0.04386463
C        1.19239284       0.02202557      -0.67473282
C        0.57264046       1.18865112      -0.56713314
C       -0.64804181       1.13406294       0.28877806
N       -1.76061879       0.46881516      -0.11494089
C       -0.76740602      -0.52079860       0.62259033
H        1.07727525      -1.64997530       0.68957321
H        0.18458902      -1.86571505      -0.80291511
H        2.15669170      -0.11269362      -1.15083641
H        0.96392816       2.12842496      -0.93619159
H       -0.78793048       1.92991004       1.02525662
H       -1.76291287      -0.94540316      -0.03196733
H       -0.87966808      -0.65090785       1.69638370
13
Frame=9 idx=002268 GeodesicLength=0.7657866417521161 rxn_smarts="[C:1]1([H:7])([H:8])[C:2]([H:9])=[C:3]([H:10])[C@@:4]2([H:11])[N:5]([H:12])[C@@:6]12[H:13]>>[C:1]1([H:7])([H:8])[C:2]([H:9])=[C:3]([H:10])[C:4]([H:11])=[N:5][C:6]1([H:12])[H:13]"
C        0.45700941      -1.12818919      -0.04371092
C        1.19058255       0.02213819      -0.67039589
C        0.56819088       1.18852751      -0.57189184
C       -0.64414928       1.14330121       0.29335305
N       -1.75360745       0.45848218      -0.08376399
C       -0.76785922      -0.52726983       0.62759888
H        1.07692789      -1.65736627       0.68416887
H        0.18174250      -1.86257071      -0.80759309
H        2.15949228      -0.11023082      -1.13783325
H        0.96411015       2.12611411      -0.94174816
H       -0.79110941       1.95706027       1.00733453
H       -1.76827502      -0.94850980      -0.05707517
H       -0.87305529      -0.66148685       1.70155697
13
Frame=10 idx=002268 GeodesicLength=0.8505066359710513 rxn_smarts="[C:1]1([H:7])([H:8])[C:2]([H:9])=[C:3]([H:10])[C@@:4]2([H:11])[N:5]([H:12])[C@@:6]12[H:13]>>[C:1]1([H:7])([H:8])[C:2]([H:9])=[C:3]([H:10])[C:4]([H:11])=[N:5][C:6]1([H:12])[H:13]"
C        0.45500614      -1.13023004      -0.04358222
C        1.18891517       0.02221282      -0.66557456
C        0.56393414       1.18827175      -0.57590021
C       -0.64041691       1.15238537       0.29803037
N       -1.74587614       0.44795699      -0.05230402
C       -0.76790020      -0.53420335       0.63329513
H        1.07672610      -1.66541528       0.67825556
H        0.17859320      -1.85923421      -0.81251677
H        2.16191429      -0.10784727      -1.12522719
H        0.96429985       2.12364499      -0.94681843
H       -0.79611472       1.98452587       0.98745095
H       -1.77360421      -0.94976575      -0.08256445
H       -0.86547671      -0.67230191       1.70745585
13
Frame=11 idx=002268 GeodesicLength=0.935421194647358 rxn_smarts="[C:1]1([H:7])([H:8])[C:2]([H:9])=[C:3]([H:10])[C@@:4]2([H:11])[N:5]([H:12])[C@@:6]12[H:13]>>[C:1]1([H:7])([H:8])[C:2]([H:9])=[C:3]([H:10])[C:4]([H:11])=[N:5][C:6]1([H:12])[H:13]"
C        0.45304318      -1.13254076      -0.04350035
C        1.18742746       0.02224135      -0.66019391
C        0.55991352       1.18793346      -0.57908214
C       -0.63681193       1.16129810       0.30286383
N       -1.73735870       0.43710697      -0.02048363
C       -0.76748353      -0.54160411       0.63973562
H        1.07664952      -1.67423936       0.67175346
H        0.17507233      -1.85563888      -0.81777397
H        2.16400622      -0.10558744      -1.11295376
H        0.96447815       2.12102290      -0.95143586
H       -0.80320736       2.01222560       0.96534048
H       -1.77891910      -0.94887053      -0.10836661
H       -0.85680975      -0.68334729       1.71409684
13
Frame=12 idx=002268 GeodesicLength=1.0201719721753926 rxn_smarts="[C:1]1([H:7])([H:8])[C:2]([H:9])=[C:3]([H:10])[C@@:4]2([H:11])[N:5]([H:12])[C@@:6]12[H:13]>>[C:1]1([H:7])([H:8])[C:2]([H:9])=[C:3]([H:10])[C:4]([H:11])=[N:5][C:6]1([H:12])[H:13]"
C        0.45110676      -1.13506918      -0.04344484
C        1.18604167       0.02224401      -0.65434301
C        0.55610543       1.18753851      -0.58138838
C       -0.63344132       1.17008178       0.30773151
N       -1.72808125       0.42606723       0.01156510
C       -0.76667025      -0.54944102       0.64684242
H        1.07669533      -1.68365900       0.66472768
H        0.17121324      -1.85181059      -0.82325119
H        2.16574183      -0.10341181      -1.10105461
H        0.96467717       2.11828978      -0.95546838
H       -0.81200315       2.03970115       0.94101299
H       -1.78424084      -0.94599045      -0.13435233
H       -0.84714461      -0.69454040       1.72142304
13
Frame=13 idx=002268 GeodesicLength=1.1050078607533096 rxn_smarts="[C:1]1([H:7])([H:8])[C:2]([H:9])=[C:3]([H:10])[C@@:4]2([H:11])[N:5]([H:12])[C@@:6]12[H:13]>>[C:1]1([H:7])([H:8])[C:2]([H:9])=[C:3]([H:10])[C:4]([H:11])=[N:5][C:6]1([H:12])[H:13]"
C        0.44919120      -1.13788300      -0.04349886
C        1.18484700       0.02218183      -0.64798455
C        0.55256903       1.18711798      -0.58280446
C       -0.63026268       1.17872245       0.31275058
N       -1.71798370       0.41474357       0.04399056
C       -0.76537648      -0.55773255       0.65472298
H        1.07685951      -1.69389060       0.65696356
H        0.16687393      -1.84770751      -0.82911492
H        2.16731540      -0.10136662      -1.08936448
H        0.96495563       2.11549487      -0.95889022
H       -0.82304640       2.06703057       0.91404517
H       -1.78963749      -0.94082418      -0.16033740
H       -0.83630494      -0.70588680       1.72952204
13
Frame=14 idx=002268 GeodesicLength=1.1896666190904972 rxn_smarts="[C:1]1([H:7])([H:8])[C:2]([H:9])=[C:3]([H:10])[C@@:4]2([H:11])[N:5]([H:12])[C@@:6]12[H:13]>>[C:1]1([H:7])([H:8])[C:2]([H:9])=[C:3]([H:10])[C:4]([H:11])=[N:5][C:6]1([H:12])[H:13]"
C        0.44724992      -1.14089893      -0.04364162
C        1.18377364       0.02209252      -0.64103765
C        0.54941863       1.18660102      -0.58322250
C       -0.62728319       1.18723336       0.31790886
N       -1.70699149       0.40311364       0.07666460
C       -0.76350368      -0.56649744       0.66336489
H        1.07700031      -1.70489419       0.64843916
H        0.16201216      -1.84308736      -0.83532156
H        2.16849337      -0.09945818      -1.07798374
H        0.96545172       2.11251687      -0.96156578
H       -0.83654268       2.09391433       0.88416619
H       -1.79493657      -0.93319943      -0.18613540
H       -0.82414213      -0.71743621       1.73836456
13
Frame=15 idx=002268 GeodesicLength=1.2743625853346825 rxn_smarts="[C:1]1([H:7])([H:8])[C:2]([H:9])=[C:3]([H:10])[C@@:4]2([H:11])[N:5]([H:12])[C@@:6]12[H:13]>>[C:1]1([H:7])([H:8])[C:2]([H:9])=[C:3]([H:10])[C:4]([H:11])=[N:5][C:6]1([H:12])[H:13]"
C        0.44535145      -1.14424457      -0.04396747
C        1.18297250       0.02189807      -0.63358315
C        0.54666293       1.18612553      -0.58259692
C       -0.62461016       1.19575511       0.32324531
N       -1.69525540       0.39122923       0.10967860
C       -0.76110539      -0.57570002       0.67281444
H        1.07732849      -1.71680748       0.63900404
H        0.15656433      -1.83819783      -0.84202183
H        2.16968377      -0.09778210      -1.06680383
H        0.96619193       2.10956799      -0.96342805
H       -0.85265173       2.12031436       0.85121173
H       -1.80049069      -0.92312396      -0.21157123
H       -0.81064202      -0.72903434       1.74801836
13
Frame=16 idx=002268 GeodesicLength=1.3590592515785707 rxn_smarts="[C:1]1([H:7])([H:8])[C:2]([H:9])=[C:3]([H:10])[C@@:4]2([H:11])[N:5]([H:12])[C@@:6]12[H:13]>>[C:1]1([H:7])([H:8])[C:2]([H:9])=[C:3]([H:10])[C:4]([H:11])=[N:5][C:6]1([H:12])[H:13]"
C        0.44330448      -1.14769463      -0.04443918
C        1.18218844       0.02171770      -0.62561164
C        0.54427429       1.18562694      -0.58096506
C       -0.62210762       1.20405279       0.32857970
N       -1.68232641       0.37899870       0.14298082
C       -0.75806497      -0.58533616       0.68304912
H        1.07740997      -1.72941092       0.62862811
H        0.15039525      -1.83254304      -0.84903630
H        2.17056561      -0.09607946      -1.05550835
H        0.96717950       2.10651512      -0.96443742
H       -0.87108623       2.14527435       0.81475843
H       -1.80598448      -0.91031760      -0.23635151
H       -0.79574783      -0.74080378       1.75835328
