11
Frame=0 idx=004111 GeodesicLength=0.0 rxn_smarts="[C:1]([c:2]1[c:3]([H:10])[n:4][n:5][n:6]1[H:11])([H:7])([H:8])[H:9]>>[C:1](/[C:2]([C-:3]([N+:4]#[N:5])[H:10])=[N:6]\[H:11])([H:7])([H:8])[H:9]"
C       -1.45868002      -0.05971663       0.00120558
C        0.04336355      -0.13208264       0.02086861
C        0.80350001       1.06703012      -0.13198430
N        2.09167769       0.73924805      -0.08755334
N        2.63930056      -0.26200499       0.04252931
N        0.72711583      -1.21058473       0.16177248
H       -1.81060257       0.96861092      -0.07098078
H       -1.84717369      -0.61658720      -0.85266230
H       -1.86906500      -0.50246272       0.90943804
H        0.47327128       2.07980559      -0.26350194
H        0.20729232      -2.07125581       0.27086867
11
Frame=1 idx=004111 GeodesicLength=0.028580599015398174 rxn_smarts="[C:1]([c:2]1[c:3]([H:10])[n:4][n:5][n:6]1[H:11])([H:7])([H:8])[H:9]>>[C:1](/[C:2]([C-:3]([N+:4]#[N:5])[H:10])=[N:6]\[H:11])([H:7])([H:8])[H:9]"
C       -1.46083683      -0.06028502      -0.00118866
C        0.04059399      -0.13113467       0.00183067
C        0.80473201       1.06571895      -0.13869930
N        2.09320132       0.73981192      -0.08070777
N        2.63374851      -0.26892686       0.04934935
N        0.73067714      -1.20745953       0.14514294
H       -1.81552016       0.96438512      -0.10533357
H       -1.85975891      -0.64580983      -0.83070277
H       -1.86023326      -0.47021622       0.92723363
H        0.47725953       2.08409966      -0.22877252
H        0.21613666      -2.07018352       0.26184799
11
Frame=2 idx=004111 GeodesicLength=0.057065511892476606 rxn_smarts="[C:1]([c:2]1[c:3]([H:10])[n:4][n:5][n:6]1[H:11])([H:7])([H:8])[H:9]>>[C:1](/[C:2]([C-:3]([N+:4]#[N:5])[H:10])=[N:6]\[H:11])([H:7])([H:8])[H:9]"
C       -1.46287452      -0.06078435      -0.00375367
C        0.03783501      -0.12978682      -0.01513124
C        0.80582244       1.06501856      -0.14141106
N        2.09456337       0.74001032      -0.07674831
N        2.62805995      -0.27601171       0.05418476
N        0.73415230      -1.20397863       0.13043631
H       -1.82059873       0.95919702      -0.13921586
H       -1.87039006      -0.67353280      -0.80904334
H       -1.85239357      -0.43823739       0.94257178
H        0.48090073       2.08699019      -0.19507859
H        0.22492308      -2.06888438       0.25318922
11
Frame=3 idx=004111 GeodesicLength=0.08543967618512811 rxn_smarts="[C:1]([c:2]1[c:3]([H:10])[n:4][n:5][n:6]1[H:11])([H:7])([H:8])[H:9]>>[C:1](/[C:2]([C-:3]([N+:4]#[N:5])[H:10])=[N:6]\[H:11])([H:7])([H:8])[H:9]"
C       -1.46483418      -0.06117521      -0.00600673
C        0.03507133      -0.12825821      -0.03148531
C        0.80677951       1.06451593      -0.14295228
N        2.09587228       0.73974504      -0.07692329
N        2.62216893      -0.28249339       0.06273937
N        0.73756938      -1.20046330       0.11538963
H       -1.82578415       0.95320621      -0.17194021
H       -1.88035550      -0.69989732      -0.78660707
H       -1.84451250      -0.40629203       0.95661904
H        0.48435667       2.08873510      -0.16222268
H        0.23366823      -2.06762284       0.24338954
11
Frame=4 idx=004111 GeodesicLength=0.11374660589929059 rxn_smarts="[C:1]([c:2]1[c:3]([H:10])[n:4][n:5][n:6]1[H:11])([H:7])([H:8])[H:9]>>[C:1](/[C:2]([C-:3]([N+:4]#[N:5])[H:10])=[N:6]\[H:11])([H:7])([H:8])[H:9]"
C       -1.46674115      -0.06148502      -0.00805344
C        0.03231451      -0.12645332      -0.04606952
C        0.80762271       1.06423013      -0.14256726
N        2.09710955       0.73958008      -0.07627163
N        2.61624305      -0.28916383       0.06931646
N        0.74094578      -1.19685145       0.10132853
H       -1.83104238       0.94659408      -0.20323627
H       -1.88893286      -0.72456938      -0.76439016
H       -1.83746788      -0.37507383       0.96889444
H        0.48756009       2.08957852      -0.13235601
H        0.24238858      -2.06638597       0.23340486
11
Frame=5 idx=004111 GeodesicLength=0.14178262585266732 rxn_smarts="[C:1]([c:2]1[c:3]([H:10])[n:4][n:5][n:6]1[H:11])([H:7])([H:8])[H:9]>>[C:1](/[C:2]([C-:3]([N+:4]#[N:5])[H:10])=[N:6]\[H:11])([H:7])([H:8])[H:9]"
C       -1.46864375      -0.06185222      -0.01074060
C        0.02959284      -0.12433469      -0.05805531
C        0.80837224       1.06413641      -0.13944480
N        2.09831320       0.73959300      -0.07467654
N        2.61063073      -0.29655332       0.06815119
N        0.74422386      -1.19274847       0.09054646
H       -1.83612603       0.93894896      -0.23517467
H       -1.89543358      -0.74835301      -0.74310580
H       -1.83242466      -0.34396469       0.97837149
H        0.49057827       2.08974911      -0.10166237
H        0.25091689      -2.06462109       0.22579094
11
Frame=6 idx=004111 GeodesicLength=0.1698059986825115 rxn_smarts="[C:1]([c:2]1[c:3]([H:10])[n:4][n:5][n:6]1[H:11])([H:7])([H:8])[H:9]>>[C:1](/[C:2]([C-:3]([N+:4]#[N:5])[H:10])=[N:6]\[H:11])([H:7])([H:8])[H:9]"
C       -1.47045832      -0.06206736      -0.01221332
C        0.02687099      -0.12214178      -0.07001523
C        0.80910611       1.06390698      -0.13712686
N        2.09942597       0.73971993      -0.07110637
N        2.60477532      -0.30343070       0.07211352
N        0.74748570      -1.18895405       0.07748513
H       -1.84134260       0.93106591      -0.26379537
H       -1.90212477      -0.77022079      -0.72066041
H       -1.82655749      -0.31384206       0.98791409
H        0.49335911       2.08932287      -0.07736268
H        0.25945998      -2.06335895       0.21476749
11
Frame=7 idx=004111 GeodesicLength=0.1977841916171338 rxn_smarts="[C:1]([c:2]1[c:3]([H:10])[n:4][n:5][n:6]1[H:11])([H:7])([H:8])[H:9]>>[C:1](/[C:2]([C-:3]([N+:4]#[N:5])[H:10])=[N:6]\[H:11])([H:7])([H:8])[H:9]"
C       -1.47222514      -0.06223175      -0.01329562
C        0.02416068      -0.11982076      -0.08124401
C        0.80980898       1.06363347      -0.13467677
N        2.10049351       0.73984683      -0.06691549
N        2.59886404      -0.31024369       0.07673316
N        0.75071332      -1.18515193       0.06429786
H       -1.84660613       0.92261989      -0.29116987
H       -1.90825556      -0.79097760      -0.69771860
H       -1.82087229      -0.28401838       0.99659884
H        0.49597117       2.08852509      -0.05528045
H        0.26794740      -2.06218117       0.20267093
11
Frame=8 idx=004111 GeodesicLength=0.22576249304639912 rxn_smarts="[C:1]([c:2]1[c:3]([H:10])[n:4][n:5][n:6]1[H:11])([H:7])([H:8])[H:9]>>[C:1](/[C:2]([C-:3]([N+:4]#[N:5])[H:10])=[N:6]\[H:11])([H:7])([H:8])[H:9]"
C       -1.47395566      -0.06236108      -0.01416228
C        0.02146175      -0.11738148      -0.09175487
C        0.81047616       1.06333365      -0.13206653
N        2.10152272       0.73993946      -0.06270620
N        2.59292021      -0.31702444       0.08147223
N        0.75390711      -1.18130111       0.05133939
H       -1.85189789       0.91353777      -0.31787695
H       -1.91375838      -0.81091535      -0.67429831
H       -1.81550858      -0.25419498       1.00434367
H        0.49846067       2.08740961      -0.03418414
H        0.27637190      -2.06104206       0.18989399
11
Frame=9 idx=004111 GeodesicLength=0.2537505851692584 rxn_smarts="[C:1]([c:2]1[c:3]([H:10])[n:4][n:5][n:6]1[H:11])([H:7])([H:8])[H:9]>>[C:1](/[C:2]([C-:3]([N+:4]#[N:5])[H:10])=[N:6]\[H:11])([H:7])([H:8])[H:9]"
C       -1.47563412      -0.06244843      -0.01469684
C        0.01877009      -0.11484154      -0.10181240
C        0.81112399       1.06299408      -0.12956474
N        2.10250530       0.74000889      -0.05803483
N        2.58688298      -0.32374789       0.08696047
N        0.75706731      -1.17743228       0.03823077
H       -1.85725551       0.90381522      -0.34384377
H       -1.91880592      -0.83010707      -0.65011434
H       -1.81021614      -0.22427525       1.01140160
H        0.50082215       2.08603288      -0.01448589
H        0.28473988      -2.05999862       0.17595998
11
Frame=10 idx=004111 GeodesicLength=0.2817685372438249 rxn_smarts="[C:1]([c:2]1[c:3]([H:10])[n:4][n:5][n:6]1[H:11])([H:7])([H:8])[H:9]>>[C:1](/[C:2]([C-:3]([N+:4]#[N:5])[H:10])=[N:6]\[H:11])([H:7])([H:8])[H:9]"
C       -1.47725750      -0.06249788      -0.01492231
C        0.01608214      -0.11221003      -0.11158739
C        0.81175687       1.06261197      -0.12734764
N        2.10344816       0.74000691      -0.05334382
N        2.58069658      -0.33036534       0.09362549
N        0.76019722      -1.17352204       0.02486440
H       -1.86270628       0.89335554      -0.36929211
H       -1.92345736      -0.84870502      -0.62496094
H       -1.80490124      -0.19402654       1.01781410
H        0.50309018       2.08436344       0.00437115
H        0.29305124      -2.05901101       0.16077906
11
Frame=11 idx=004111 GeodesicLength=0.3098372337673712 rxn_smarts="[C:1]([c:2]1[c:3]([H:10])[n:4][n:5][n:6]1[H:11])([H:7])([H:8])[H:9]>>[C:1](/[C:2]([C-:3]([N+:4]#[N:5])[H:10])=[N:6]\[H:11])([H:7])([H:8])[H:9]"
C       -1.47880225      -0.06250230      -0.01469198
C        0.01339352      -0.10949751      -0.12134302
C        0.81239532       1.06218151      -0.12575849
N        2.10434548       0.73990757      -0.04852251
N        2.57421604      -0.33681502       0.10253321
N        0.76330811      -1.16959071       0.01082299
H       -1.86832906       0.88209428      -0.39413082
H       -1.92784570      -0.86677401      -0.59844450
H       -1.79927498      -0.16329388       1.02382146
H        0.50527664       2.08242397       0.02205323
H        0.30131687      -2.05813388       0.14366042
11
Frame=12 idx=004111 GeodesicLength=0.3379902148468183 rxn_smarts="[C:1]([c:2]1[c:3]([H:10])[n:4][n:5][n:6]1[H:11])([H:7])([H:8])[H:9]>>[C:1](/[C:2]([C-:3]([N+:4]#[N:5])[H:10])=[N:6]\[H:11])([H:7])([H:8])[H:9]"
C       -1.48026521      -0.06245989      -0.01411918
C        0.01071027      -0.10669857      -0.13099153
C        0.81303734       1.06173818      -0.12464530
N        2.10518200       0.73971839      -0.04348835
N        2.56745964      -0.34318640       0.11281780
N        0.76640538      -1.16560734      -0.00353324
H       -1.87410426       0.86988467      -0.41881277
H       -1.93183168      -0.88448840      -0.57045886
H       -1.79348922      -0.13176186       1.02926325
H        0.50736549       2.08020841       0.03918752
H        0.30953026      -2.05734719       0.12478067
11
Frame=13 idx=004111 GeodesicLength=0.3661868423021677 rxn_smarts="[C:1]([c:2]1[c:3]([H:10])[n:4][n:5][n:6]1[H:11])([H:7])([H:8])[H:9]>>[C:1](/[C:2]([C-:3]([N+:4]#[N:5])[H:10])=[N:6]\[H:11])([H:7])([H:8])[H:9]"
C       -1.48167667      -0.06239971      -0.01323363
C        0.00803785      -0.10379818      -0.14003201
C        0.81370436       1.06128474      -0.12349839
N        2.10598934       0.73948026      -0.03788525
N        2.56054463      -0.34964923       0.12337460
N        0.76947943      -1.16154710      -0.01766962
H       -1.87996977       0.85691852      -0.44283722
H       -1.93518088      -0.90148719      -0.54174266
H       -1.78797929      -0.10014706       1.03390762
H        0.50939581       2.07793940       0.05500497
H        0.31765519      -2.05659446       0.10461157
11
Frame=14 idx=004111 GeodesicLength=0.39444762636725755 rxn_smarts="[C:1]([c:2]1[c:3]([H:10])[n:4][n:5][n:6]1[H:11])([H:7])([H:8])[H:9]>>[C:1](/[C:2]([C-:3]([N+:4]#[N:5])[H:10])=[N:6]\[H:11])([H:7])([H:8])[H:9]"
C       -1.48301474      -0.06231744      -0.01196208
C        0.00537547      -0.10080351      -0.14868948
C        0.81441339       1.06082211      -0.12256709
N        2.10674707       0.73916473      -0.03157558
N        2.55336722      -0.35618239       0.13480159
N        0.77253522      -1.15741862      -0.03186602
H       -1.88597508       0.84308523      -0.46629021
H       -1.93797554      -0.91789676      -0.51191907
H       -1.78253892      -0.06820481       1.03789688
H        0.51136590       2.07562955       0.06948320
H        0.32570001      -2.05587809       0.08268785
11
Frame=15 idx=004111 GeodesicLength=0.4227593510886357 rxn_smarts="[C:1]([c:2]1[c:3]([H:10])[n:4][n:5][n:6]1[H:11])([H:7])([H:8])[H:9]>>[C:1](/[C:2]([C-:3]([N+:4]#[N:5])[H:10])=[N:6]\[H:11])([H:7])([H:8])[H:9]"
C       -1.48424567      -0.06221038      -0.01015541
C        0.00272200      -0.09771848      -0.15715896
C        0.81519344       1.06032967      -0.12211021
N        2.10742406       0.73872746      -0.02420355
N        2.54576940      -0.36277565       0.14791335
N        0.77558198      -1.15322011      -0.04645097
H       -1.89219903       0.82827299      -0.48906055
H       -1.94026526      -0.93375528      -0.48058415
H       -1.77692057      -0.03578698       1.04140691
H        0.51326639       2.07333932       0.08213729
H        0.33367325      -2.05520256       0.05826625
11
Frame=16 idx=004111 GeodesicLength=0.45118408205731986 rxn_smarts="[C:1]([c:2]1[c:3]([H:10])[n:4][n:5][n:6]1[H:11])([H:7])([H:8])[H:9]>>[C:1](/[C:2]([C-:3]([N+:4]#[N:5])[H:10])=[N:6]\[H:11])([H:7])([H:8])[H:9]"
C       -1.48532967      -0.06208141      -0.00770403
C        0.00007590      -0.09453667      -0.16565264
C        0.81608199       1.05981752      -0.12236658
N        2.10797895       0.73813365      -0.01545875
N        2.53753434      -0.36946405       0.16336128
N        0.77862458      -1.14894883      -0.06172089
H       -1.89872680       0.81231742      -0.51116144
H       -1.94204505      -0.94916394      -0.44728811
H       -1.77088465      -0.00265584       1.04456123
H        0.51510162       2.07111817       0.09272434
H        0.34158879      -2.05453601       0.03070558
