16
Frame=0 idx=001486 GeodesicLength=0.0 rxn_smarts="[C:1]([C@@:2]1([H:10])[C@@:3]2([H:11])[C:4]([H:12])([H:13])[C:5]([H:14])([H:15])[C@@:6]12[H:16])([H:7])([H:8])[H:9]>>[C:1]([C@@:2]1([H:10])[C:3]([H:11])([H:13])[C@:6]1([C:5]([C:4][H:12])([H:14])[H:15])[H:16])([H:7])([H:8])[H:9]"
C        1.60077629      -0.23731252       0.93797770
C        0.61758706      -0.94514157       0.04430405
C       -0.86148034      -0.85320961       0.24848978
C       -1.32403634       1.19424954       0.39851964
C       -0.45803182       1.22471713      -0.86156265
C       -0.21316284      -0.25976881      -0.99081866
H        1.81955161      -0.84014529       1.82117538
H        1.20470834       0.72029922       1.27977402
H        2.53987823      -0.05353156       0.41234330
H        0.92262319      -1.93721746      -0.27466315
H       -1.55242993      -1.68311586       0.26875490
H       -2.36019694       1.01081338       0.08037452
H       -1.05465109      -0.00950991       1.05932838
H        0.45440874       1.81613997      -0.75043458
H       -1.00427686       1.60534878      -1.72638764
H       -0.33126734      -0.75261546      -1.94717492
16
Frame=1 idx=001486 GeodesicLength=0.058334761498612754 rxn_smarts="[C:1]([C@@:2]1([H:10])[C@@:3]2([H:11])[C:4]([H:12])([H:13])[C:5]([H:14])([H:15])[C@@:6]12[H:16])([H:7])([H:8])[H:9]>>[C:1]([C@@:2]1([H:10])[C:3]([H:11])([H:13])[C@:6]1([C:5]([C:4][H:12])([H:14])[H:15])[H:16])([H:7])([H:8])[H:9]"
C        1.60372445      -0.23777676       0.93470634
C        0.61657067      -0.94495867       0.04482685
C       -0.86115682      -0.85063263       0.25474390
C       -1.33516078       1.18175782       0.38682695
C       -0.45548387       1.22781028      -0.86035998
C       -0.21631326      -0.25886706      -0.98863652
H        1.82606470      -0.84141702       1.81650696
H        1.20912883       0.71935465       1.27954004
H        2.54077335      -0.05360618       0.40553221
H        0.92101350      -1.93675014      -0.27556169
H       -1.54799887      -1.68430072       0.27075096
H       -2.36956183       1.00770487       0.05882720
H       -1.05630937      -0.00490362       1.08341332
H        0.45636078       1.81703630      -0.73553447
H       -0.99041416       1.61058162      -1.73124075
H       -0.34123734      -0.75103274      -1.94434133
16
Frame=2 idx=001486 GeodesicLength=0.11665910668446491 rxn_smarts="[C:1]([C@@:2]1([H:10])[C@@:3]2([H:11])[C:4]([H:12])([H:13])[C:5]([H:14])([H:15])[C@@:6]12[H:16])([H:7])([H:8])[H:9]>>[C:1]([C@@:2]1([H:10])[C:3]([H:11])([H:13])[C@:6]1([C:5]([C:4][H:12])([H:14])[H:15])[H:16])([H:7])([H:8])[H:9]"
C        1.60661165      -0.23826350       0.93145660
C        0.61557668      -0.94480032       0.04532363
C       -0.86078472      -0.84809757       0.26091905
C       -1.34599570       1.16902017       0.37513981
C       -0.45305690       1.23082684      -0.85908346
C       -0.21936830      -0.25801591      -0.98655481
H        1.83250805      -0.84273706       1.81182798
H        1.21355263       0.71838574       1.27935797
H        2.54161209      -0.05366467       0.39879208
H        0.91944033      -1.93631076      -0.27645646
H       -1.54355290      -1.68543883       0.27278239
H       -2.37855854       1.00471573       0.03738132
H       -1.05811989       0.00027174       1.10712750
H        0.45796652       1.81789930      -0.72062575
H       -0.97674343       1.61566897      -1.73580993
H       -0.35108756      -0.74945987      -1.94157793
16
Frame=3 idx=001486 GeodesicLength=0.17497346760084362 rxn_smarts="[C:1]([C@@:2]1([H:10])[C@@:3]2([H:11])[C:4]([H:12])([H:13])[C:5]([H:14])([H:15])[C@@:6]12[H:16])([H:7])([H:8])[H:9]>>[C:1]([C@@:2]1([H:10])[C:3]([H:11])([H:13])[C@:6]1([C:5]([C:4][H:12])([H:14])[H:15])[H:16])([H:7])([H:8])[H:9]"
C        1.60943576      -0.23877214       0.92822923
C        0.61460627      -0.94467022       0.04579296
C       -0.86036532      -0.84561562       0.26700616
C       -1.35653726       1.15605700       0.36346346
C       -0.45075451       1.23376325      -0.85773071
C       -0.22232816      -0.25721922      -0.98457465
H        1.83887947      -0.84410385       1.80713979
H        1.21797226       0.71739111       1.27922681
H        2.54239259      -0.05370256       0.39212490
H        0.91790992      -1.93590099      -0.27735042
H       -1.53909399      -1.68654357       0.27483533
H       -2.38718181       1.00184997       0.01606841
H       -1.06008812       0.00603361       1.13047732
H        0.45923113       1.81871972      -0.70571979
H       -0.96326961       1.62061091      -1.74009917
H       -0.36080861      -0.74789739      -1.93888964
16
Frame=4 idx=001486 GeodesicLength=0.2332778397943732 rxn_smarts="[C:1]([C@@:2]1([H:10])[C@@:3]2([H:11])[C:4]([H:12])([H:13])[C:5]([H:14])([H:15])[C@@:6]12[H:16])([H:7])([H:8])[H:9]>>[C:1]([C@@:2]1([H:10])[C:3]([H:11])([H:13])[C@:6]1([C:5]([C:4][H:12])([H:14])[H:15])[H:16])([H:7])([H:8])[H:9]"
C        1.61219442      -0.23930178       0.92502508
C        0.61366039      -0.94457181       0.04623338
C       -0.85990037      -0.84319706       0.27299593
C       -1.36678064       1.14288571       0.35180332
C       -0.44858016       1.23661613      -0.85630079
C       -0.22519288      -0.25648076      -0.98269769
H        1.84517590      -0.84551508       1.80244421
H        1.22238073       0.71637021       1.27914503
H        2.54311335      -0.05371606       0.38553312
H        0.91642827      -1.93552243      -0.27824620
H       -1.53462410      -1.68762766       0.27689515
H       -2.39542614       0.99911103      -0.00507785
H       -1.06222023       0.01240002       1.15346837
H        0.46015980       1.81948853      -0.69082830
H       -0.94999747       1.62540747      -1.74411084
H       -0.37039088      -0.74634647      -1.93628192
16
Frame=5 idx=001486 GeodesicLength=0.2915751440310793 rxn_smarts="[C:1]([C@@:2]1([H:10])[C@@:3]2([H:11])[C:4]([H:12])([H:13])[C:5]([H:14])([H:15])[C@@:6]12[H:16])([H:7])([H:8])[H:9]>>[C:1]([C@@:2]1([H:10])[C:3]([H:11])([H:13])[C@:6]1([C:5]([C:4][H:12])([H:14])[H:15])[H:16])([H:7])([H:8])[H:9]"
C        1.61488577      -0.23985184       0.92184482
C        0.61274011      -0.94450830       0.04664328
C       -0.85939148      -0.84085135       0.27888032
C       -1.37672297       1.12952162       0.34016566
C       -0.44653590       1.23938250      -0.85479322
C       -0.22796291      -0.25580387      -0.98092513
H        1.85139473      -0.84696895       1.79774288
H        1.22677150       0.71532213       1.27911132
H        2.54377324      -0.05370198       0.37901900
H        0.91500101      -1.93517645      -0.27914695
H       -1.53014344      -1.68870434       0.27894782
H       -2.40329148       0.99650226      -0.02602578
H       -1.06452188       0.01938852       1.17610895
H        0.46076046       1.82019753      -0.67596245
H       -0.93693083       1.63006055      -1.74785111
H       -0.37982594      -0.74480804      -1.93375941
16
Frame=6 idx=001486 GeodesicLength=0.3498632134590256 rxn_smarts="[C:1]([C@@:2]1([H:10])[C@@:3]2([H:11])[C:4]([H:12])([H:13])[C:5]([H:14])([H:15])[C@@:6]12[H:16])([H:7])([H:8])[H:9]>>[C:1]([C@@:2]1([H:10])[C:3]([H:11])([H:13])[C@:6]1([C:5]([C:4][H:12])([H:14])[H:15])[H:16])([H:7])([H:8])[H:9]"
C        1.61750698      -0.24042116       0.91868973
C        0.61184643      -0.94448261       0.04702073
C       -0.85884064      -0.83858786       0.28465065
C       -1.38635850       1.11598023       0.32855632
C       -0.44462430       1.24205957      -0.85320846
C       -0.23063830      -0.25519187      -0.97925902
H        1.85753202      -0.84846272       1.79303834
H        1.23113759       0.71424695       1.27912405
H        2.54437081      -0.05365698       0.37258590
H        0.91363387      -1.93486433      -0.28005552
H       -1.52565332      -1.68978579       0.28097780
H       -2.41077274       0.99402618      -0.04673912
H       -1.06700029       0.02701608       1.19840420
H        0.46104041       1.82083778      -0.66113522
H       -0.92407530       1.63457023      -1.75132254
H       -0.38910472      -0.74328370      -1.93132785
16
Frame=7 idx=001486 GeodesicLength=0.40814579326334843 rxn_smarts="[C:1]([C@@:2]1([H:10])[C@@:3]2([H:11])[C:4]([H:12])([H:13])[C:5]([H:14])([H:15])[C@@:6]12[H:16])([H:7])([H:8])[H:9]>>[C:1]([C@@:2]1([H:10])[C:3]([H:11])([H:13])[C@:6]1([C:5]([C:4][H:12])([H:14])[H:15])[H:16])([H:7])([H:8])[H:9]"
C        1.62005638      -0.24100901       0.91556022
C        0.61098029      -0.94449744       0.04736372
C       -0.85824955      -0.83641427       0.29029930
C       -1.39568674       1.10227355       0.31698237
C       -0.44284583       1.24464519      -0.85154867
C       -0.23321948      -0.25464739      -0.97770096
H        1.86358458      -0.84999412       1.78833239
H        1.23547282       0.71314423       1.27918139
H        2.54490552      -0.05357870       0.36623626
H        0.91233189      -1.93458701      -0.28097526
H       -1.52115416      -1.69088308       0.28297146
H       -2.41787292       0.99168435      -0.06718704
H       -1.06965950       0.03529848       1.22036474
H        0.46100904       1.82140206      -0.64635660
H       -0.91143246       1.63893831      -1.75453111
H       -0.39821989      -0.74177515      -1.92899220
16
Frame=8 idx=001486 GeodesicLength=0.46642206554748755 rxn_smarts="[C:1]([C@@:2]1([H:10])[C@@:3]2([H:11])[C:4]([H:12])([H:13])[C:5]([H:14])([H:15])[C@@:6]12[H:16])([H:7])([H:8])[H:9]>>[C:1]([C@@:2]1([H:10])[C:3]([H:11])([H:13])[C@:6]1([C:5]([C:4][H:12])([H:14])[H:15])[H:16])([H:7])([H:8])[H:9]"
C        1.62253118      -0.24161451       0.91245801
C        0.61014247      -0.94455568       0.04767051
C       -0.85762025      -0.83433935       0.29581752
C       -1.40470048       1.08841441       0.30545083
C       -0.44120306       1.24713649      -0.84981398
C       -0.23570622      -0.25417369      -0.97625330
H        1.86954803      -0.85156063       1.78362826
H        1.23977067       0.71201429       1.27928178
H        2.54537643      -0.05346497       0.35997412
H        0.91110051      -1.93434577      -0.28190888
H       -1.51664589      -1.69200838       0.28491223
H       -2.42458905       0.98947924      -0.08733190
H       -1.07250714       0.04425541       1.24199427
H        0.46067461       1.82188178      -0.63164007
H       -0.89901005       1.64316528      -1.75748068
H       -0.40716175      -0.74028393      -1.92675873
16
Frame=9 idx=001486 GeodesicLength=0.5246812606975296 rxn_smarts="[C:1]([C@@:2]1([H:10])[C@@:3]2([H:11])[C:4]([H:12])([H:13])[C:5]([H:14])([H:15])[C@@:6]12[H:16])([H:7])([H:8])[H:9]>>[C:1]([C@@:2]1([H:10])[C:3]([H:11])([H:13])[C@:6]1([C:5]([C:4][H:12])([H:14])[H:15])[H:16])([H:7])([H:8])[H:9]"
C        1.62492821      -0.24223666       0.90938508
C        0.60933449      -0.94466027       0.04793869
C       -0.85695410      -0.83237296       0.30119767
C       -1.41339018       1.07441777       0.29397073
C       -0.43969760       1.24953038      -0.84800542
C       -0.23809872      -0.25377440      -0.97491826
H        1.87541745      -0.85315962       1.77892945
H        1.24402378       0.71085694       1.27942488
H        2.54578263      -0.05331290       0.35380457
H        0.90994671      -1.93414136      -0.28286040
H       -1.51212693      -1.69317543       0.28678404
H       -2.43092044       0.98741557      -0.10713331
H       -1.07555379       0.05390622       1.26329176
H        0.46004617       1.82226750      -0.61700062
H       -0.88681564       1.64725185      -1.76017538
H       -0.41592204      -0.73881264      -1.92463348
16
Frame=10 idx=001486 GeodesicLength=0.5829346414917299 rxn_smarts="[C:1]([C@@:2]1([H:10])[C@@:3]2([H:11])[C:4]([H:12])([H:13])[C:5]([H:14])([H:15])[C@@:6]12[H:16])([H:7])([H:8])[H:9]>>[C:1]([C@@:2]1([H:10])[C:3]([H:11])([H:13])[C@:6]1([C:5]([C:4][H:12])([H:14])[H:15])[H:16])([H:7])([H:8])[H:9]"
C        1.62724595      -0.24287440       0.90634187
C        0.60855713      -0.94481308       0.04816574
C       -0.85625346      -0.83052040       0.30643279
C       -1.42175894       1.06028763       0.28254897
C       -0.43832839       1.25182546      -0.84612804
C       -0.24039727      -0.25345099      -0.97369795
H        1.88118919      -0.85478869       1.77423827
H        1.24822671       0.70967277       1.27960810
H        2.54612432      -0.05312130       0.34773077
H        0.90887439      -1.93397452      -0.28383323
H       -1.50759793      -1.69439282       0.28857313
H       -2.43687356       0.98549398      -0.12656180
H       -1.07880062       0.06426457       1.28427269
H        0.45913623       1.82255377      -0.60244766
H       -0.87484914       1.65120102      -1.76262234
H       -0.42449462      -0.73736298      -1.92262131
16
Frame=11 idx=001486 GeodesicLength=0.6411829321229494 rxn_smarts="[C:1]([C@@:2]1([H:10])[C@@:3]2([H:11])[C:4]([H:12])([H:13])[C:5]([H:14])([H:15])[C@@:6]12[H:16])([H:7])([H:8])[H:9]>>[C:1]([C@@:2]1([H:10])[C:3]([H:11])([H:13])[C@:6]1([C:5]([C:4][H:12])([H:14])[H:15])[H:16])([H:7])([H:8])[H:9]"
C        1.62948226      -0.24352729       0.90333023
C        0.60781233      -0.94501657       0.04834863
C       -0.85551949      -0.82878981       0.31151561
C       -1.42980385       1.04603239       0.27119357
C       -0.43709477       1.25401969      -0.84418519
C       -0.24260211      -0.25320594      -0.97259440
H        1.88685896      -0.85644597       1.76955814
H        1.25237256       0.70846116       1.27983078
H        2.54640162      -0.05288833       0.34175761
H        0.90788999      -1.93384577      -0.28483220
H       -1.50305807      -1.69567151       0.29026512
H       -2.44245440       0.98371784      -0.14558112
H       -1.08225409       0.07534961       1.30494229
H        0.45795764       1.82273401      -0.58799348
H       -0.86311592       1.65501367      -1.76482772
H       -0.43287266      -0.73593719      -1.92072786
16
Frame=12 idx=001486 GeodesicLength=0.6994268730021288 rxn_smarts="[C:1]([C@@:2]1([H:10])[C@@:3]2([H:11])[C:4]([H:12])([H:13])[C:5]([H:14])([H:15])[C@@:6]12[H:16])([H:7])([H:8])[H:9]>>[C:1]([C@@:2]1([H:10])[C:3]([H:11])([H:13])[C@:6]1([C:5]([C:4][H:12])([H:14])[H:15])[H:16])([H:7])([H:8])[H:9]"
C        1.63163441      -0.24419446       0.90035192
C        0.60710138      -0.94527297       0.04848446
C       -0.85475392      -0.82718874       0.31643907
C       -1.43752098       1.03165893       0.25991468
C       -0.43599712       1.25611075      -0.84218057
C       -0.24471359      -0.25304162      -0.97160990
H        1.89242177      -0.85812893       1.76489266
H        1.25645512       0.70722266       1.28009168
H        2.54661456      -0.05261253       0.33589019
H        0.90699913      -1.93375566      -0.28586163
H       -1.49850678      -1.69702194       0.29184440
H       -2.44766587       0.98208901      -0.16415709
H       -1.08591962       0.08717989       1.32530669
H        0.45652188       1.82280118      -0.57365086
H       -0.85162057       1.65869184      -1.76679681
H       -0.44104979      -0.73453740      -1.91895889
16
Frame=13 idx=001486 GeodesicLength=0.7576669361192324 rxn_smarts="[C:1]([C@@:2]1([H:10])[C@@:3]2([H:11])[C:4]([H:12])([H:13])[C:5]([H:14])([H:15])[C@@:6]12[H:16])([H:7])([H:8])[H:9]>>[C:1]([C@@:2]1([H:10])[C:3]([H:11])([H:13])[C@:6]1([C:5]([C:4][H:12])([H:14])[H:15])[H:16])([H:7])([H:8])[H:9]"
C        1.63370075      -0.24487544       0.89740861
C        0.60642573      -0.94558449       0.04857038
C       -0.85395805      -0.82572433       0.32119720
C       -1.44490923       1.01717206       0.24872196
C       -0.43503355       1.25809691      -0.84011854
C       -0.24673244      -0.25295991      -0.97074614
H        1.89787365      -0.85983580       1.76024507
H        1.26046798       0.70595668       1.28039040
H        2.54676386      -0.05229275       0.33013324
H        0.90620749      -1.93370436      -0.28692647
H       -1.49394206      -1.69845485       0.29329705
H       -2.45251832       0.98061011      -0.18225751
H       -1.08980124       0.09977376       1.34537236
H        0.45484194       1.82274967      -0.55943104
H       -0.84036512       1.66223873      -1.76853736
H       -0.44902139      -0.73316600      -1.91731920
16
Frame=14 idx=001486 GeodesicLength=0.8159039802473098 rxn_smarts="[C:1]([C@@:2]1([H:10])[C@@:3]2([H:11])[C:4]([H:12])([H:13])[C:5]([H:14])([H:15])[C@@:6]12[H:16])([H:7])([H:8])[H:9]>>[C:1]([C@@:2]1([H:10])[C:3]([H:11])([H:13])[C@:6]1([C:5]([C:4][H:12])([H:14])[H:15])[H:16])([H:7])([H:8])[H:9]"
C        1.63567849      -0.24556990       0.89450274
C        0.60578738      -0.94595333       0.04860301
C       -0.85313302      -0.82440420       0.32578279
C       -1.45196451       1.00257630       0.23762448
C       -0.43420314       1.25997582      -0.83800304
C       -0.24865818      -0.25296301      -0.97000586
H        1.90320952      -0.86156557       1.75561947
H        1.26440458       0.70466297       1.28072695
H        2.54684977      -0.05192771       0.32449335
H        0.90552147      -1.93369229      -0.28803175
H       -1.48936279      -1.69998057       0.29460719
H       -2.45701536       0.97928395      -0.19984509
H       -1.09390528       0.11315504       1.36514119
H        0.45293040       1.82257312      -0.54534683
H       -0.82935834       1.66565437      -1.77005368
H       -0.45678100      -0.73182498      -1.91581494
16
Frame=15 idx=001486 GeodesicLength=0.8741380346469265 rxn_smarts="[C:1]([C@@:2]1([H:10])[C@@:3]2([H:11])[C:4]([H:12])([H:13])[C:5]([H:14])([H:15])[C@@:6]12[H:16])([H:7])([H:8])[H:9]>>[C:1]([C@@:2]1([H:10])[C:3]([H:11])([H:13])[C@:6]1([C:5]([C:4][H:12])([H:14])[H:15])[H:16])([H:7])([H:8])[H:9]"
C        1.63756567      -0.24627780       0.89163653
C        0.60518825      -0.94638170       0.04857902
C       -0.85227967      -0.82323599       0.33019003
C       -1.45868576       0.98787510       0.22663236
C       -0.43350382       1.26174568      -0.83583831
C       -0.25049128      -0.25305268      -0.96939078
H        1.90842542      -0.86331751       1.75101937
H        1.26825840       0.70334053       1.28110179
H        2.54687302      -0.05151625       0.31897628
H        0.90494733      -1.93371953      -0.28918326
H       -1.48476702      -1.70160934       0.29576071
H       -2.46116574       0.97811253      -0.21688812
H       -1.09823578       0.12734637       1.38461654
H        0.45080076       1.82226627      -0.53140908
H       -0.81860510       1.66894053      -1.77135213
H       -0.46432467      -0.73051620      -1.91445095
16
Frame=16 idx=001486 GeodesicLength=0.9323685973742067 rxn_smarts="[C:1]([C@@:2]1([H:10])[C@@:3]2([H:11])[C:4]([H:12])([H:13])[C:5]([H:14])([H:15])[C@@:6]12[H:16])([H:7])([H:8])[H:9]>>[C:1]([C@@:2]1([H:10])[C:3]([H:11])([H:13])[C@:6]1([C:5]([C:4][H:12])([H:14])[H:15])[H:16])([H:7])([H:8])[H:9]"
C        1.63935997      -0.24699902       0.88881254
C        0.60463053      -0.94687190       0.04849479
C       -0.85139868      -0.82222812       0.33441275
C       -1.46507020       0.97307153       0.21575588
C       -0.43293422       1.26340412      -0.83362846
C       -0.25223206      -0.25323098      -0.96890291
H        1.91351703      -0.86509117       1.74644862
H        1.27202240       0.70198836       1.28151590
H        2.54683426      -0.05105699       0.31358857
H        0.90449201      -1.93378604      -0.29038712
H       -1.48015268      -1.70335204       0.29674272
H       -2.46497663       0.97709806      -0.23335169
H       -1.10279836       0.14237364       1.40379861
H        0.44846594       1.82182334      -0.51762980
H       -0.80811092       1.67209900      -1.77243790
H       -0.47164840      -0.72924179      -1.91323250
