13
Frame=0 idx=002758 GeodesicLength=0.0 rxn_smarts="[C:1]1([H:7])([H:8])[N:2]([H:9])[C@:3]1([C@@:4]1([H:11])[C:5]([H:12])([H:13])[O:6]1)[H:10]>>[C-:1]([N:2]([C+:3]([C@@:4]1([H:11])[C:5]([H:12])([H:13])[O:6]1)[H:10])[H:9])([H:7])[H:8]"
C       -2.09020652      -0.12132028       0.19223879
N       -1.03814464       0.71879472       0.14967643
C       -0.30368349       0.08262610      -0.80467371
C        1.06770576      -0.37309891      -0.54582665
C        1.83508222       0.06503688       0.62378719
O        1.28805152      -1.23409885       0.58518605
H       -1.91304219      -1.14364725       0.48575103
H       -3.11080335       0.23465581       0.06322969
H       -0.92087736       1.63307631       0.56004827
H       -0.73740846      -0.04339320      -1.78543837
H        1.62567961      -0.68127049      -1.42632369
H        2.91809898       0.12668843       0.55480791
H        1.37954796       0.73595078       1.34753708
13
Frame=1 idx=002758 GeodesicLength=0.04970297573784492 rxn_smarts="[C:1]1([H:7])([H:8])[N:2]([H:9])[C@:3]1([C@@:4]1([H:11])[C:5]([H:12])([H:13])[O:6]1)[H:10]>>[C-:1]([N:2]([C+:3]([C@@:4]1([H:11])[C:5]([H:12])([H:13])[O:6]1)[H:10])[H:9])([H:7])[H:8]"
C       -2.09417202      -0.13295184       0.16507454
N       -1.04997480       0.71890211       0.14893177
C       -0.30687049       0.09231847      -0.80366761
C        1.05643121      -0.38225958      -0.53279719
C        1.84671439       0.08769314       0.60846443
O        1.26106954      -1.19580480       0.63435724
H       -1.92845147      -1.16399939       0.43386832
H       -3.11388359       0.23022552       0.05462615
H       -0.89953559       1.57830316       0.65361239
H       -0.72046317      -0.00504563      -1.79651799
H        1.60041340      -0.74401947      -1.40188825
H        2.93061110       0.11267042       0.53147665
H        1.41811150       0.80396788       1.30445955
13
Frame=2 idx=002758 GeodesicLength=0.09867410178275816 rxn_smarts="[C:1]1([H:7])([H:8])[N:2]([H:9])[C@:3]1([C@@:4]1([H:11])[C:5]([H:12])([H:13])[O:6]1)[H:10]>>[C-:1]([N:2]([C+:3]([C@@:4]1([H:11])[C:5]([H:12])([H:13])[O:6]1)[H:10])[H:9])([H:7])[H:8]"
C       -2.09730386      -0.14210705       0.13897132
N       -1.06123489       0.72133422       0.14820668
C       -0.31025587       0.10157816      -0.80190283
C        1.04519875      -0.39050349      -0.51931790
C        1.85786498       0.10902300       0.59296803
O        1.23680494      -1.15590945       0.68086460
H       -1.94309355      -1.18080719       0.38443675
H       -3.11629197       0.22665596       0.04615709
H       -0.87974489       1.51501284       0.74122172
H       -0.70319297       0.03210502      -1.80565055
H        1.57435420      -0.80281660      -1.37524349
H        2.94151128       0.09914017       0.51000185
H        1.45538386       0.86729441       1.25928673
13
Frame=3 idx=002758 GeodesicLength=0.148362235768876 rxn_smarts="[C:1]1([H:7])([H:8])[N:2]([H:9])[C@:3]1([C@@:4]1([H:11])[C:5]([H:12])([H:13])[O:6]1)[H:10]>>[C-:1]([N:2]([C+:3]([C@@:4]1([H:11])[C:5]([H:12])([H:13])[O:6]1)[H:10])[H:9])([H:7])[H:8]"
C       -2.10115884      -0.14904012       0.11282305
N       -1.07174762       0.72407667       0.14997957
C       -0.31376629       0.10973842      -0.79801783
C        1.03416668      -0.39881691      -0.50445286
C        1.86987003       0.13026022       0.57651827
O        1.21666132      -1.11356957       0.72655979
H       -1.96079080      -1.19528930       0.33352308
H       -3.11889250       0.22582428       0.03704803
H       -0.86198830       1.44141126       0.82479928
H       -0.68471380       0.06984723      -1.81188799
H        1.54703087      -0.86035350      -1.34534701
H        2.95236598       0.08724184       0.48830926
H        1.49296326       0.92866948       1.21014536
13
Frame=4 idx=002758 GeodesicLength=0.19802793201604804 rxn_smarts="[C:1]1([H:7])([H:8])[N:2]([H:9])[C@:3]1([C@@:4]1([H:11])[C:5]([H:12])([H:13])[O:6]1)[H:10]>>[C-:1]([N:2]([C+:3]([C@@:4]1([H:11])[C:5]([H:12])([H:13])[O:6]1)[H:10])[H:9])([H:7])[H:8]"
C       -2.10429840      -0.15378011       0.08896673
N       -1.08047085       0.72666210       0.15376843
C       -0.31777842       0.11547335      -0.79266713
C        1.02370549      -0.40616590      -0.48939675
C        1.88082484       0.14998931       0.56042087
O        1.20074618      -1.07179128       0.76835360
H       -1.97961481      -1.20687585       0.28529810
H       -3.12008117       0.22753715       0.02839682
H       -0.84530378       1.36373668       0.89712725
H       -0.66656946       0.10560660      -1.81522117
H        1.52041306      -0.91155999      -1.31467097
H        2.96124737       0.07787386       0.46830631
H        1.52717995       0.98329409       1.16131790
13
Frame=5 idx=002758 GeodesicLength=0.248523181703602 rxn_smarts="[C:1]1([H:7])([H:8])[N:2]([H:9])[C@:3]1([C@@:4]1([H:11])[C:5]([H:12])([H:13])[O:6]1)[H:10]>>[C-:1]([N:2]([C+:3]([C@@:4]1([H:11])[C:5]([H:12])([H:13])[O:6]1)[H:10])[H:9])([H:7])[H:8]"
C       -2.10793866      -0.15663461       0.06660676
N       -1.08778538       0.72840269       0.16030771
C       -0.32216484       0.11886208      -0.78573810
C        1.01415627      -0.41330827      -0.47386879
C        1.89174450       0.16903861       0.54432437
O        1.18941584      -1.03034926       0.80737623
H       -2.00142752      -1.21625683       0.23718777
H       -3.12112422       0.23230636       0.02031439
H       -0.83019803       1.28214000       0.96108002
H       -0.64836426       0.13996874      -1.81571955
H        1.49491153      -0.95902135      -1.28289850
H        2.96979225       0.07128609       0.44898230
H        1.55898253       1.03356576       1.11204540
13
Frame=6 idx=002758 GeodesicLength=0.3002142839000232 rxn_smarts="[C:1]1([H:7])([H:8])[N:2]([H:9])[C@:3]1([C@@:4]1([H:11])[C:5]([H:12])([H:13])[O:6]1)[H:10]>>[C-:1]([N:2]([C+:3]([C@@:4]1([H:11])[C:5]([H:12])([H:13])[O:6]1)[H:10])[H:9])([H:7])[H:8]"
C       -2.11158948      -0.15793863       0.04600899
N       -1.09354644       0.72908153       0.16923201
C       -0.32683121       0.12006119      -0.77760758
C        1.00546789      -0.42021184      -0.45806931
C        1.90208492       0.18730101       0.52837234
O        1.18193885      -0.98984301       0.84349120
H       -2.02542651      -1.22350360       0.18934978
H       -3.12146250       0.23964365       0.01341893
H       -0.81650318       1.19867993       1.01640337
H       -0.63015400       0.17276694      -1.81359244
H        1.47086432      -1.00272696      -1.25040111
H        2.97757089       0.06731495       0.43038784
H        1.58758646       1.07937485       1.06300599
13
Frame=7 idx=002758 GeodesicLength=0.35249761828179316 rxn_smarts="[C:1]1([H:7])([H:8])[N:2]([H:9])[C@:3]1([C@@:4]1([H:11])[C:5]([H:12])([H:13])[O:6]1)[H:10]>>[C-:1]([N:2]([C+:3]([C@@:4]1([H:11])[C:5]([H:12])([H:13])[O:6]1)[H:10])[H:9])([H:7])[H:8]"
C       -2.11456525      -0.15822865       0.02777920
N       -1.09792080       0.72927656       0.17944316
C       -0.33177714       0.11967177      -0.76920130
C        0.99757418      -0.42645790      -0.44268769
C        1.91129054       0.20422047       0.51318193
O        1.17682859      -0.95126009       0.87598869
H       -2.04960010      -1.22873863       0.14348663
H       -3.12086202       0.24804098       0.00830058
H       -0.80386050       1.11692450       1.06225120
H       -0.61265251       0.20331799      -1.80964108
H        1.44877377      -1.04180329      -1.21836549
H        2.98423111       0.06507910       0.41352435
H        1.61254013       1.11995719       1.01593981
13
Frame=8 idx=002758 GeodesicLength=0.40521011625788883 rxn_smarts="[C:1]1([H:7])([H:8])[N:2]([H:9])[C@:3]1([C@@:4]1([H:11])[C:5]([H:12])([H:13])[O:6]1)[H:10]>>[C-:1]([N:2]([C+:3]([C@@:4]1([H:11])[C:5]([H:12])([H:13])[O:6]1)[H:10])[H:9])([H:7])[H:8]"
C       -2.11668506      -0.15787357       0.01181579
N       -1.10111334       0.72925024       0.19040693
C       -0.33687656       0.11828739      -0.76090843
C        0.99037096      -0.43199684      -0.42792947
C        1.91928132       0.21977202       0.49886105
O        1.17313694      -0.91472030       0.90503947
H       -2.07317784      -1.23220575       0.09980421
H       -3.11929889       0.25673110       0.00512122
H       -0.79215591       1.03810636       1.09959562
H       -0.59599148       0.23154868      -1.80438151
H        1.42862867      -1.07668010      -1.18714959
H        2.98977585       0.06394789       0.39850260
H        1.63410535       1.15583288       0.97122211
13
Frame=9 idx=002758 GeodesicLength=0.45834962723398115 rxn_smarts="[C:1]1([H:7])([H:8])[N:2]([H:9])[C@:3]1([C@@:4]1([H:11])[C:5]([H:12])([H:13])[O:6]1)[H:10]>>[C-:1]([N:2]([C+:3]([C@@:4]1([H:11])[C:5]([H:12])([H:13])[O:6]1)[H:10])[H:9])([H:7])[H:8]"
C       -2.11809762      -0.15712817      -0.00222594
N       -1.10334224       0.72884797       0.20211483
C       -0.34206988       0.11615745      -0.75270260
C        0.98374602      -0.43702947      -0.41364925
C        1.92628653       0.23418891       0.48523785
O        1.17059547      -0.87992305       0.93131683
H       -2.09626707      -1.23416704       0.05756541
H       -3.11692399       0.26549909       0.00359327
H       -0.78140197       0.96230291       1.12995453
H       -0.58001386       0.25794122      -1.79795381
H        1.41010321      -1.10831683      -1.15654855
H        2.99446388       0.06369660       0.38487502
H        1.65292152       1.18793041       0.92842242
13
Frame=10 idx=002758 GeodesicLength=0.5119115504124534 rxn_smarts="[C:1]1([H:7])([H:8])[N:2]([H:9])[C@:3]1([C@@:4]1([H:11])[C:5]([H:12])([H:13])[O:6]1)[H:10]>>[C-:1]([N:2]([C+:3]([C@@:4]1([H:11])[C:5]([H:12])([H:13])[O:6]1)[H:10])[H:9])([H:7])[H:8]"
C       -2.11888078      -0.15623691      -0.01459075
N       -1.10478571       0.72794206       0.21455926
C       -0.34733048       0.11345331      -0.74455270
C        0.97753966      -0.44168525      -0.39972671
C        1.93248896       0.24764798       0.47218429
O        1.16891725      -0.84659852       0.95537155
H       -2.11890515      -1.23483208       0.01622308
H       -3.11383281       0.27409696       0.00334445
H       -0.77149766       0.88954138       1.15451234
H       -0.56459483       0.28296293      -1.79039284
H        1.39278535      -1.13739131      -1.12636951
H        2.99847583       0.06414960       0.37232310
H        1.66962036       1.21694985       0.88711444
13
Frame=11 idx=002758 GeodesicLength=0.5659278243751977 rxn_smarts="[C:1]1([H:7])([H:8])[N:2]([H:9])[C@:3]1([C@@:4]1([H:11])[C:5]([H:12])([H:13])[O:6]1)[H:10]>>[C-:1]([N:2]([C+:3]([C@@:4]1([H:11])[C:5]([H:12])([H:13])[O:6]1)[H:10])[H:9])([H:7])[H:8]"
C       -2.11925058      -0.15523740      -0.02562380
N       -1.10557608       0.72633891       0.22785892
C       -0.35260052       0.11023617      -0.73632346
C        0.97174840      -0.44616126      -0.38594066
C        1.93808871       0.26040287       0.45946858
O        1.16821393      -0.81433322       0.97773222
H       -2.14146466      -1.23416180      -0.02502942
H       -3.11017248       0.28267961       0.00418133
H       -0.76252219       0.81911780       1.17453903
H       -0.54952697       0.30688035      -1.78169535
H        1.37651279      -1.16467227      -1.09623446
H        3.00201386       0.06530875       0.36036729
H        1.68453579       1.24360149       0.84669977
13
Frame=12 idx=002758 GeodesicLength=0.620325619543366 rxn_smarts="[C:1]1([H:7])([H:8])[N:2]([H:9])[C@:3]1([C@@:4]1([H:11])[C:5]([H:12])([H:13])[O:6]1)[H:10]>>[C-:1]([N:2]([C+:3]([C@@:4]1([H:11])[C:5]([H:12])([H:13])[O:6]1)[H:10])[H:9])([H:7])[H:8]"
C       -2.11917592      -0.15431539      -0.03543227
N       -1.10583128       0.72408130       0.24186471
C       -0.35784818       0.10668104      -0.72808965
C        0.96626402      -0.45043096      -0.37230186
C        1.94312734       0.27248058       0.44707660
O        1.16809916      -0.78299096       0.99859183
H       -2.16373262      -1.23223949      -0.06616675
H       -3.10598663       0.29093786       0.00592415
H       -0.75429956       0.75116072       1.19058691
H       -0.53480354       0.32989225      -1.77195622
H        1.36106491      -1.19032885      -1.06613187
H        3.00510735       0.06694701       0.34900182
H        1.69801496       1.26812490       0.80703260
13
Frame=13 idx=002758 GeodesicLength=0.6750309304056888 rxn_smarts="[C:1]1([H:7])([H:8])[N:2]([H:9])[C@:3]1([C@@:4]1([H:11])[C:5]([H:12])([H:13])[O:6]1)[H:10]>>[C-:1]([N:2]([C+:3]([C@@:4]1([H:11])[C:5]([H:12])([H:13])[O:6]1)[H:10])[H:9])([H:7])[H:8]"
C       -2.11871585      -0.15350085      -0.04419141
N       -1.10564079       0.72115194       0.25653138
C       -0.36304921       0.10289079      -0.71985850
C        0.96108197      -0.45454278      -0.35875695
C        1.94767409       0.28397701       0.43493719
O        1.16852244      -0.75237928       1.01816320
H       -2.18572281      -1.22897743      -0.10744005
H       -3.10133163       0.29885445       0.00856274
H       -0.74683505       0.68535628       1.20327742
H       -0.52040179       0.35202775      -1.76128386
H        1.34639169      -1.21466458      -1.03594388
H        3.00782296       0.06897193       0.33810689
H        1.71020399       1.29083476       0.76789582
13
Frame=14 idx=002758 GeodesicLength=0.7299246487224437 rxn_smarts="[C:1]1([H:7])([H:8])[N:2]([H:9])[C@:3]1([C@@:4]1([H:11])[C:5]([H:12])([H:13])[O:6]1)[H:10]>>[C-:1]([N:2]([C+:3]([C@@:4]1([H:11])[C:5]([H:12])([H:13])[O:6]1)[H:10])[H:9])([H:7])[H:8]"
C       -2.11781890      -0.15291356      -0.05197722
N       -1.10509764       0.71767607       0.27165924
C       -0.36818847       0.09905584      -0.71175676
C        0.95613914      -0.45842616      -0.34539002
C        1.95173448       0.29486201       0.42309948
O        1.16914087      -0.72245212       1.03649099
H       -2.20713793      -1.22442368      -0.14859168
H       -3.09624126       0.30614036       0.01208552
H       -0.73998269       0.62187647       1.21288781
H       -0.50639521       0.37333586      -1.74988048
H        1.33239804      -1.23768324      -1.00577983
H        3.01015480       0.07113699       0.32783852
H        1.72129478       1.31181517       0.72931443
13
Frame=15 idx=002758 GeodesicLength=0.7849121262231469 rxn_smarts="[C:1]1([H:7])([H:8])[N:2]([H:9])[C@:3]1([C@@:4]1([H:11])[C:5]([H:12])([H:13])[O:6]1)[H:10]>>[C-:1]([N:2]([C+:3]([C@@:4]1([H:11])[C:5]([H:12])([H:13])[O:6]1)[H:10])[H:9])([H:7])[H:8]"
C       -2.11646345      -0.15263931      -0.05886904
N       -1.10428201       0.71374967       0.28710714
C       -0.37325524       0.09533449      -0.70387005
C        0.95139235      -0.46203686      -0.33226509
C        1.95532797       0.30512602       0.41159119
O        1.16971179      -0.69314941       1.05363090
H       -2.22776630      -1.21863191      -0.18941714
H       -3.09075574       0.31259630       0.01644557
H       -0.73362367       0.56079073       1.21970162
H       -0.49284286       0.39387451      -1.73792387
H        1.31900350      -1.25942702      -0.97572469
H        3.01210591       0.07324805       0.31830681
H        1.73144776       1.33116473       0.69128665
13
Frame=16 idx=002758 GeodesicLength=0.8399115004474196 rxn_smarts="[C:1]1([H:7])([H:8])[N:2]([H:9])[C@:3]1([C@@:4]1([H:11])[C:5]([H:12])([H:13])[O:6]1)[H:10]>>[C-:1]([N:2]([C+:3]([C@@:4]1([H:11])[C:5]([H:12])([H:13])[O:6]1)[H:10])[H:9])([H:7])[H:8]"
C       -2.11463657      -0.15275347      -0.06493885
N       -1.10326472       0.70947077       0.30273645
C       -0.37824555       0.09185985      -0.69627994
C        0.94680308      -0.46533156      -0.31945821
C        1.95847541       0.31475354       0.40044888
O        1.17001107      -0.66443662       1.06961652
H       -2.24742256      -1.21169266      -0.22966943
H       -3.08492168       0.31804663       0.02159050
H       -0.72762619       0.50219917       1.22395268
H       -0.47980178       0.41370904      -1.72558856
H        1.30613639      -1.27991183      -0.94589084
H        3.01368127       0.07513635       0.30963897
H        1.74081183       1.34895079       0.65384183
