12
Frame=0 idx=001650 GeodesicLength=0.0 rxn_smarts="[O:1]([N:2]=[C:3]1[C:4]([H:8])([H:9])[N:5]([H:10])[C:6]1([H:11])[H:12])[H:7]>>[N:5](=[C:6]([H:11])[H:12])[H:10].[O:1]([N:2]=[C:3]=[C:4]([H:8])[H:9])[H:7]"
O        2.00781023      -0.63427164       0.97712065
N        1.25364082       0.51763587       0.93076100
C        0.32389247       0.43376585       0.04429963
C       -0.31295785       1.46634889      -0.57320365
N       -1.70537633      -0.58608358       0.19154948
C       -0.46464142      -0.98703325      -0.21058156
H        2.51655294      -0.53259535       1.78564838
H       -1.16200891       1.27252555      -1.20782550
H        0.11388204       2.46291657      -0.56592206
H       -2.31739614      -0.46367759      -0.61365446
H       -0.31066250      -1.30244467      -1.24625114
H        0.05726465      -1.64708667       0.48805927
12
Frame=1 idx=001650 GeodesicLength=0.08705278190664381 rxn_smarts="[O:1]([N:2]=[C:3]1[C:4]([H:8])([H:9])[N:5]([H:10])[C:6]1([H:11])[H:12])[H:7]>>[N:5](=[C:6]([H:11])[H:12])[H:10].[O:1]([N:2]=[C:3]=[C:4]([H:8])[H:9])[H:7]"
O        2.02601336      -0.63670672       0.97033374
N        1.27904589       0.52085946       0.91839106
C        0.34341713       0.43835815       0.04160909
C       -0.32340166       1.46629216      -0.55677571
N       -1.71244543      -0.55280997       0.17147211
C       -0.47787940      -0.99579579      -0.20495242
H        2.53912279      -0.53198458       1.77576972
H       -1.12552594       1.26711472      -1.24892293
H        0.06306771       2.47843888      -0.51133067
H       -2.32367657      -0.46639575      -0.63861623
H       -0.32097362      -1.34439040      -1.22965095
H        0.03323575      -1.64298015       0.51267321
12
Frame=2 idx=001650 GeodesicLength=0.17424868569724122 rxn_smarts="[O:1]([N:2]=[C:3]1[C:4]([H:8])([H:9])[N:5]([H:10])[C:6]1([H:11])[H:12])[H:7]>>[N:5](=[C:6]([H:11])[H:12])[H:10].[O:1]([N:2]=[C:3]=[C:4]([H:8])[H:9])[H:7]"
O        2.04409607      -0.63811370       0.96368961
N        1.30359061       0.52457980       0.90663149
C        0.36220856       0.44342944       0.03957031
C       -0.33333658       1.46555729      -0.54125907
N       -1.71885146      -0.52148761       0.14927261
C       -0.49129607      -1.00470069      -0.19999003
H        2.56123841      -0.53059750       1.76623509
H       -1.08960387       1.26527890      -1.28371609
H        0.01422357       2.48980257      -0.46033179
H       -2.32979959      -0.46925681      -0.66361456
H       -0.33214461      -1.38644786      -1.21265376
H        0.00967496      -1.63804383       0.53616617
12
Frame=3 idx=001650 GeodesicLength=0.2613574122478056 rxn_smarts="[O:1]([N:2]=[C:3]1[C:4]([H:8])([H:9])[N:5]([H:10])[C:6]1([H:11])[H:12])[H:7]>>[N:5](=[C:6]([H:11])[H:12])[H:10].[O:1]([N:2]=[C:3]=[C:4]([H:8])[H:9])[H:7]"
O        2.06209485      -0.63857088       0.95705975
N        1.32722782       0.52869680       0.89569711
C        0.38019286       0.44900831       0.03845670
C       -0.34273699       1.46430366      -0.52646484
N       -1.72458146      -0.49206112       0.12511450
C       -0.50491812      -1.01375260      -0.19558274
H        2.58310824      -0.52860214       1.75681924
H       -1.05460325       1.26657572      -1.31299593
H       -0.03246190       2.49758544      -0.41285619
H       -2.33567601      -0.47226945      -0.68875296
H       -0.34413081      -1.42851561      -1.19509309
H       -0.01351522      -1.63239814       0.55859845
12
Frame=4 idx=001650 GeodesicLength=0.3485007031534011 rxn_smarts="[O:1]([N:2]=[C:3]1[C:4]([H:8])([H:9])[N:5]([H:10])[C:6]1([H:11])[H:12])[H:7]>>[N:5](=[C:6]([H:11])[H:12])[H:10].[O:1]([N:2]=[C:3]=[C:4]([H:8])[H:9])[H:7]"
O        2.08011120      -0.63818845       0.95034888
N        1.35011869       0.53318505       0.88560351
C        0.39748088       0.45510372       0.03831371
C       -0.35160298       1.46263391      -0.51228937
N       -1.72967102      -0.46430912       0.09913429
C       -0.51882308      -1.02297969      -0.19162599
H        2.60499457      -0.52609036       1.74733124
H       -1.02026162       1.27044875      -1.33792907
H       -0.07738381       2.50246215      -0.36811437
H       -2.34135480      -0.47540078      -0.71410793
H       -0.35709629      -1.47077950      -1.17680064
H       -0.03651174      -1.62608569       0.58013574
12
Frame=5 idx=001650 GeodesicLength=0.43559427539384726 rxn_smarts="[O:1]([N:2]=[C:3]1[C:4]([H:8])([H:9])[N:5]([H:10])[C:6]1([H:11])[H:12])[H:7]>>[N:5](=[C:6]([H:11])[H:12])[H:10].[O:1]([N:2]=[C:3]=[C:4]([H:8])[H:9])[H:7]"
O        2.09817006      -0.63699075       0.94346428
N        1.37227759       0.53803662       0.87642467
C        0.41408277       0.46174891       0.03924649
C       -0.36005359       1.46063950      -0.49850228
N       -1.73406763      -0.43820649       0.07146379
C       -0.53303263      -1.03240841      -0.18807678
H        2.62694777      -0.52316184       1.73766706
H       -0.98650989       1.27654021      -1.35906731
H       -0.12050902       2.50488572      -0.32600365
H       -2.34678896      -0.47866253      -0.73968542
H       -0.37114782      -1.51321108      -1.15769370
H       -0.05936864      -1.61920987       0.60076285
12
Frame=6 idx=001650 GeodesicLength=0.5228353026928971 rxn_smarts="[O:1]([N:2]=[C:3]1[C:4]([H:8])([H:9])[N:5]([H:10])[C:6]1([H:11])[H:12])[H:7]>>[N:5](=[C:6]([H:11])[H:12])[H:10].[O:1]([N:2]=[C:3]=[C:4]([H:8])[H:9])[H:7]"
O        2.11643724      -0.63502070       0.93643389
N        1.39391996       0.54326318       0.86813626
C        0.43022322       0.46892915       0.04114070
C       -0.36808579       1.45835554      -0.48511559
N       -1.73774418      -0.41355475       0.04221725
C       -0.54755439      -1.04206705      -0.18496147
H        2.64901415      -0.51988792       1.72795933
H       -0.95334656       1.28458431      -1.37704040
H       -0.16213951       2.50523208      -0.28602810
H       -2.35211047      -0.48201937      -0.76546194
H       -0.38651920      -1.55601085      -1.13776822
H       -0.08209446      -1.61180363       0.62048831
12
Frame=7 idx=001650 GeodesicLength=0.6100572997831881 rxn_smarts="[O:1]([N:2]=[C:3]1[C:4]([H:8])([H:9])[N:5]([H:10])[C:6]1([H:11])[H:12])[H:7]>>[N:5](=[C:6]([H:11])[H:12])[H:10].[O:1]([N:2]=[C:3]=[C:4]([H:8])[H:9])[H:7]"
O        2.13489548      -0.63228816       0.92915225
N        1.41501014       0.54886273       0.86078577
C        0.44587415       0.47667836       0.04409255
C       -0.37577957       1.45582286      -0.47198656
N       -1.74059755      -0.39035108       0.01143700
C       -0.56240164      -1.05198091      -0.18223397
H        2.67122320      -0.51633663       1.71807220
H       -0.92065054       1.29435635      -1.39211535
H       -0.20231925       2.50378313      -0.24814738
H       -2.35719411      -0.48545652      -0.79147662
H       -0.40331454      -1.59913422      -1.11688651
H       -0.10474577      -1.60395592       0.63930662
12
Frame=8 idx=001650 GeodesicLength=0.6972930278487494 rxn_smarts="[O:1]([N:2]=[C:3]1[C:4]([H:8])([H:9])[N:5]([H:10])[C:6]1([H:11])[H:12])[H:7]>>[N:5](=[C:6]([H:11])[H:12])[H:10].[O:1]([N:2]=[C:3]=[C:4]([H:8])[H:9])[H:7]"
O        2.15361804      -0.62880779       0.92158320
N        1.43564652       0.55484732       0.85436768
C        0.46113681       0.48500610       0.04807961
C       -0.38314498       1.45305181      -0.45910063
N       -1.74254828      -0.36849341      -0.02086015
C       -0.57758527      -1.06217370      -0.17989179
H        2.69362034      -0.51255147       1.70799859
H       -0.88832941       1.30568332      -1.40463022
H       -0.24128564       2.50075697      -0.21206832
H       -2.36203685      -0.48894595      -0.81776249
H       -0.42172561      -1.64267755      -1.09495061
H       -0.12736569      -1.59569565       0.65723514
12
Frame=9 idx=001650 GeodesicLength=0.7845684023371341 rxn_smarts="[O:1]([N:2]=[C:3]1[C:4]([H:8])([H:9])[N:5]([H:10])[C:6]1([H:11])[H:12])[H:7]>>[N:5](=[C:6]([H:11])[H:12])[H:10].[O:1]([N:2]=[C:3]=[C:4]([H:8])[H:9])[H:7]"
O        2.17268313      -0.62456587       0.91370716
N        1.45592338       0.56123743       0.84886994
C        0.47612582       0.49392112       0.05305358
C       -0.39019102       1.45004394      -0.44645361
N       -1.74347640      -0.34790846      -0.05464175
C       -0.59309152      -1.07267280      -0.17796695
H        2.71616587      -0.50857603       1.69781112
H       -0.85633325       1.31844032      -1.41483349
H       -0.27923505       2.49631160      -0.17759392
H       -2.36665096      -0.49245602      -0.84427752
H       -0.44198675      -1.68670285      -1.07190193
H       -0.14993324      -1.58707238       0.67422737
12
Frame=10 idx=001650 GeodesicLength=0.8718652531822878 rxn_smarts="[O:1]([N:2]=[C:3]1[C:4]([H:8])([H:9])[N:5]([H:10])[C:6]1([H:11])[H:12])[H:7]>>[N:5](=[C:6]([H:11])[H:12])[H:10].[O:1]([N:2]=[C:3]=[C:4]([H:8])[H:9])[H:7]"
O        2.19213938      -0.61954614       0.90546858
N        1.47588337       0.56805109       0.84431597
C        0.49089145       0.50344707       0.05903532
C       -0.39692048       1.44679339      -0.43403190
N       -1.74325851      -0.32855031      -0.08994921
C       -0.60892665      -1.08350385      -0.17646294
H        2.73890414      -0.50443389       1.68746764
H       -0.82455581       1.33251432      -1.42290829
H       -0.31636108       2.49055293      -0.14454681
H       -2.37099468      -0.49595804      -0.87105485
H       -0.46432032      -1.73124658      -1.04760815
H       -0.17248080      -1.57811998       0.69027464
12
Frame=11 idx=001650 GeodesicLength=0.9591670602297153 rxn_smarts="[O:1]([N:2]=[C:3]1[C:4]([H:8])([H:9])[N:5]([H:10])[C:6]1([H:11])[H:12])[H:7]>>[N:5](=[C:6]([H:11])[H:12])[H:10].[O:1]([N:2]=[C:3]=[C:4]([H:8])[H:9])[H:7]"
O        2.21204361      -0.61370512       0.89680941
N        1.49555760       0.57531328       0.84076198
C        0.50546474       0.51361433       0.06608151
C       -0.40335312       1.44328328      -0.42180676
N       -1.74175994      -0.31040352      -0.12682613
C       -0.62509343      -1.09469707      -0.17540189
H        2.76186389      -0.50014668       1.67694389
H       -0.79291122       1.34780025      -1.42897982
H       -0.35278683       2.48356155      -0.11285041
H       -2.37504726      -0.49943135      -0.89809414
H       -0.48896547      -1.77629414      -1.02196491
H       -0.19501258      -1.56889482       0.70532728
12
Frame=12 idx=001650 GeodesicLength=1.046504251375195 rxn_smarts="[O:1]([N:2]=[C:3]1[C:4]([H:8])([H:9])[N:5]([H:10])[C:6]1([H:11])[H:12])[H:7]>>[N:5](=[C:6]([H:11])[H:12])[H:10].[O:1]([N:2]=[C:3]=[C:4]([H:8])[H:9])[H:7]"
O        2.23248371      -0.60698018       0.88772652
N        1.51502587       0.58306359       0.83820447
C        0.51996097       0.52444104       0.07413358
C       -0.40946248       1.43948967      -0.40981828
N       -1.73878246      -0.29343796      -0.16529364
C       -0.64155255      -1.10629041      -0.17486547
H        2.78496155      -0.49573160       1.66637001
H       -0.76136491       1.36424108      -1.43317998
H       -0.38870497       2.47536053      -0.08237154
H       -2.37884635      -0.50283237      -0.92526578
H       -0.51627029      -1.82186124      -0.99490808
H       -0.21744808      -1.55946213       0.71926818
12
Frame=13 idx=001650 GeodesicLength=1.1338630217074748 rxn_smarts="[O:1]([N:2]=[C:3]1[C:4]([H:8])([H:9])[N:5]([H:10])[C:6]1([H:11])[H:12])[H:7]>>[N:5](=[C:6]([H:11])[H:12])[H:10].[O:1]([N:2]=[C:3]=[C:4]([H:8])[H:9])[H:7]"
O        2.25350675      -0.59931186       0.87819671
N        1.53434204       0.59133035       0.83663232
C        0.53447299       0.53594807       0.08314715
C       -0.41520313       1.43537971      -0.39810965
N       -1.73408138      -0.27763810      -0.20546771
C       -0.65825829      -1.11831783      -0.17492182
H        2.80815910      -0.49118414       1.65577882
H       -0.72982566       1.38182807      -1.43562030
H       -0.42437116       2.46588659      -0.05291471
H       -2.38237674      -0.50611515      -0.95248713
H       -0.54661241      -1.86796086      -0.96626493
H       -0.23975211      -1.54984485       0.73203126
12
Frame=14 idx=001650 GeodesicLength=1.2212048435184477 rxn_smarts="[O:1]([N:2]=[C:3]1[C:4]([H:8])([H:9])[N:5]([H:10])[C:6]1([H:11])[H:12])[H:7]>>[N:5](=[C:6]([H:11])[H:12])[H:10].[O:1]([N:2]=[C:3]=[C:4]([H:8])[H:9])[H:7]"
O        2.27517057      -0.59057797       0.86811663
N        1.55344484       0.60014687       0.83629450
C        0.54889908       0.54819945       0.09341443
C       -0.42062394       1.43089532      -0.38661360
N       -1.72750692      -0.26307999      -0.24746555
C       -0.67525253      -1.13083143      -0.17561225
H        2.83160461      -0.48649974       1.64502308
H       -0.69814249       1.40037590      -1.43630693
H       -0.45974726       2.45518688      -0.02468011
H       -2.38568213      -0.50926288      -0.97968983
H       -0.58022447      -1.91436834      -0.93597130
H       -0.26193937      -1.54018407       0.74349092
12
Frame=15 idx=001650 GeodesicLength=1.3085872115021275 rxn_smarts="[O:1]([N:2]=[C:3]1[C:4]([H:8])([H:9])[N:5]([H:10])[C:6]1([H:11])[H:12])[H:7]>>[N:5](=[C:6]([H:11])[H:12])[H:10].[O:1]([N:2]=[C:3]=[C:4]([H:8])[H:9])[H:7]"
O        2.29755685      -0.58070366       0.85757982
N        1.57242828       0.60955137       0.83716549
C        0.56340092       0.56119809       0.10480106
C       -0.42564453       1.42598827      -0.37543626
N       -1.71870589      -0.24976968      -0.29147373
C       -0.69243767      -1.14390078      -0.17710756
H        2.85525989      -0.48161396       1.63427740
H       -0.66628971       1.41994206      -1.43534988
H       -0.49514543       2.44311256       0.00254607
H       -2.38886711      -0.51217007      -1.00661170
H       -0.61767263      -1.96109738      -0.90388006
H       -0.28388297      -1.53053681       0.75348934
12
Frame=16 idx=001650 GeodesicLength=1.3959904808984973 rxn_smarts="[O:1]([N:2]=[C:3]1[C:4]([H:8])([H:9])[N:5]([H:10])[C:6]1([H:11])[H:12])[H:7]>>[N:5](=[C:6]([H:11])[H:12])[H:10].[O:1]([N:2]=[C:3]=[C:4]([H:8])[H:9])[H:7]"
O        2.32071634      -0.56954104       0.84659810
N        1.59126893       0.61958341       0.83940769
C        0.57798297       0.57497946       0.11743467
C       -0.43022622       1.42057021      -0.36461606
N       -1.70732341      -0.23780224      -0.33773883
C       -0.70975816      -1.15760839      -0.17957582
H        2.87918034      -0.47644896       1.62353881
H       -0.63412024       1.44045521      -1.43278233
H       -0.53070168       2.42953359       0.02870822
H       -2.39207468      -0.51473768      -1.03290357
H       -0.65944065      -2.00794123      -0.86988046
H       -0.30550355      -1.52104234       0.76180957
