14
Frame=0 idx=007128 GeodesicLength=0.0 rxn_smarts="[N:1](=[C:2]1\[O:3][C:4]([H:9])([H:10])[C@@:5]2([H:11])[C:6]([H:12])([H:13])[C@@:7]12[H:14])\[H:8]>>[N:1](=[C:2](\[O+:3]=[C-:4][H:10])[C:7]1([H:14])[C:5]([H:9])([H:11])[C:6]1([H:12])[H:13])\[H:8]"
N        1.76433843      -1.61424226       0.65012383
C        1.02958188      -0.70133681       0.21363840
O        1.41750221       0.26855934      -0.69311428
C        0.92971095       1.52609479      -0.48834972
C       -0.98062726       0.78084978       0.09869012
C       -1.37922732      -0.45950011      -0.62079445
C       -0.41345531      -0.52752411       0.53029231
H        2.71654391      -1.51485406       0.30670583
H       -0.38099123       1.51963978      -0.68887648
H        1.03725641       1.79379608       0.57591040
H       -1.63871272       1.35694616       0.73333709
H       -0.98418618      -0.60705611      -1.61871350
H       -2.37423334      -0.85135050      -0.45786521
H       -0.74350046      -0.97002196       1.45901564
14
Frame=1 idx=007128 GeodesicLength=0.07009385968887318 rxn_smarts="[N:1](=[C:2]1\[O:3][C:4]([H:9])([H:10])[C@@:5]2([H:11])[C:6]([H:12])([H:13])[C@@:7]12[H:14])\[H:8]>>[N:1](=[C:2](\[O+:3]=[C-:4][H:10])[C:7]1([H:14])[C:5]([H:9])([H:11])[C:6]1([H:12])[H:13])\[H:8]"
N        1.76993007      -1.60224388       0.65895503
C        1.01969351      -0.71628617       0.19471970
O        1.40129155       0.25587542      -0.71459253
C        0.94062265       1.51900749      -0.49023741
C       -0.97935544       0.77753604       0.10365123
C       -1.39078538      -0.45486609      -0.62301377
C       -0.41965335      -0.53971115       0.52244674
H        2.73113434      -1.46610395       0.35521953
H       -0.38637693       1.53209868      -0.69241440
H        1.08631694       1.78105382       0.57107883
H       -1.63598699       1.34431114       0.74849070
H       -1.00380813      -0.59578343      -1.62501927
H       -2.38607039      -0.84479015      -0.45751428
H       -0.74695245      -0.99009777       1.44822989
14
Frame=2 idx=007128 GeodesicLength=0.14024940357015264 rxn_smarts="[N:1](=[C:2]1\[O:3][C:4]([H:9])([H:10])[C@@:5]2([H:11])[C:6]([H:12])([H:13])[C@@:7]12[H:14])\[H:8]>>[N:1](=[C:2](\[O+:3]=[C-:4][H:10])[C:7]1([H:14])[C:5]([H:9])([H:11])[C:6]1([H:12])[H:13])\[H:8]"
N        1.77509371      -1.58953492       0.66765775
C        1.01027045      -0.73057450       0.17737093
O        1.38536910       0.24403141      -0.73443165
C        0.95170608       1.51202969      -0.49148335
C       -0.97808614       0.77397812       0.10849027
C       -1.40155096      -0.45071181      -0.62505956
C       -0.42569261      -0.55168309       0.51511023
H        2.74145852      -1.41750858       0.40036060
H       -0.39167443       1.54450752      -0.69590196
H        1.13644821       1.76819824       0.56539188
H       -1.63374942       1.33135090       0.76283010
H       -1.02198287      -0.58516472      -1.63077463
H       -2.39703358      -0.83906848      -0.45736894
H       -0.75057607      -1.00984977       1.43780832
14
Frame=3 idx=007128 GeodesicLength=0.21043601691904973 rxn_smarts="[N:1](=[C:2]1\[O:3][C:4]([H:9])([H:10])[C@@:5]2([H:11])[C:6]([H:12])([H:13])[C@@:7]12[H:14])\[H:8]>>[N:1](=[C:2](\[O+:3]=[C-:4][H:10])[C:7]1([H:14])[C:5]([H:9])([H:11])[C:6]1([H:12])[H:13])\[H:8]"
N        1.77969147      -1.57656998       0.67577976
C        1.00130565      -0.74411160       0.16158247
O        1.36973543       0.23307886      -0.75266623
C        0.96287756       1.50523465      -0.49207793
C       -0.97687617       0.77022114       0.11322942
C       -1.41157670      -0.44700898      -0.62692219
C       -0.43159310      -0.56340960       0.50828152
H        2.74808200      -1.36919548       0.44266263
H       -0.39697262       1.55691036      -0.69935990
H        1.18765437       1.75534540       0.55871795
H       -1.63204243       1.31811190       0.77640529
H       -1.03878264      -0.57516637      -1.63597724
H       -2.40716310      -0.83416871      -0.45740788
H       -0.75433971      -1.02927157       1.42775232
14
Frame=4 idx=007128 GeodesicLength=0.28065436641766717 rxn_smarts="[N:1](=[C:2]1\[O:3][C:4]([H:9])([H:10])[C@@:5]2([H:11])[C:6]([H:12])([H:13])[C@@:7]12[H:14])\[H:8]>>[N:1](=[C:2](\[O+:3]=[C-:4][H:10])[C:7]1([H:14])[C:5]([H:9])([H:11])[C:6]1([H:12])[H:13])\[H:8]"
N        1.78372160      -1.56345204       0.68338925
C        0.99281694      -0.75673478       0.14746286
O        1.35442318       0.22313347      -0.76921675
C        0.97405478       1.49876524      -0.49193967
C       -0.97581871       0.76630932       0.11786305
C       -1.42085315      -0.44377293      -0.62861283
C       -0.43737299      -0.57482243       0.50200970
H        2.75138408      -1.32183833       0.48191317
H       -0.40237641       1.56934807      -0.70282768
H        1.23988747       1.74268687       0.55097664
H       -1.63101126       1.30463024       0.78917777
H       -1.05415315      -0.56580988      -1.64063416
H       -2.41644261      -0.83015127      -0.45767849
H       -0.75825976      -1.04829157       1.41811714
14
Frame=5 idx=007128 GeodesicLength=0.3509520035458834 rxn_smarts="[N:1](=[C:2]1\[O:3][C:4]([H:9])([H:10])[C@@:5]2([H:11])[C:6]([H:12])([H:13])[C@@:7]12[H:14])\[H:8]>>[N:1](=[C:2](\[O+:3]=[C-:4][H:10])[C:7]1([H:14])[C:5]([H:9])([H:11])[C:6]1([H:12])[H:13])\[H:8]"
N        1.78720392      -1.55027781       0.69046860
C        0.98477040      -0.76836865       0.13500555
O        1.33940111       0.21423841      -0.78410595
C        0.98518888       1.49270612      -0.49098973
C       -0.97499792       0.76227083       0.12241329
C       -1.42943075      -0.44098114      -0.63015912
C       -0.44306264      -0.58589724       0.49630864
H        2.75185358      -1.27579952       0.51828043
H       -0.40799185       1.58185334      -0.70630935
H        1.29322191       1.73029891       0.54200712
H       -1.63076485       1.29091799       0.80118398
H       -1.06813651      -0.55704652      -1.64481042
H       -2.42492323      -0.82700685      -0.45821921
H       -0.76233204      -1.06690787       1.40892619
14
Frame=6 idx=007128 GeodesicLength=0.42125766737604975 rxn_smarts="[N:1](=[C:2]1\[O:3][C:4]([H:9])([H:10])[C@@:5]2([H:11])[C:6]([H:12])([H:13])[C@@:7]12[H:14])\[H:8]>>[N:1](=[C:2](\[O+:3]=[C-:4][H:10])[C:7]1([H:14])[C:5]([H:9])([H:11])[C:6]1([H:12])[H:13])\[H:8]"
N        1.79015530      -1.53713180       0.69704402
C        0.97714205      -0.77902278       0.12408511
O        1.32467998       0.20642083      -0.79739280
C        0.99622322       1.48709489      -0.48918554
C       -0.97445656       0.75813402       0.12690461
C       -1.43737492      -0.43860535      -0.63157506
C       -0.44868298      -0.59664716       0.49113162
H        2.74990636      -1.23124316       0.55206682
H       -0.41388398       1.59447450      -0.70979291
H        1.34766366       1.71819923       0.53166594
H       -1.63131161       1.27700012       0.81249277
H       -1.08084957      -0.54881578      -1.64853566
H       -2.43266862      -0.82470386      -0.45903606
H       -0.76654233      -1.08515371       1.40012715
14
Frame=7 idx=007128 GeodesicLength=0.4915775102262147 rxn_smarts="[N:1](=[C:2]1\[O:3][C:4]([H:9])([H:10])[C@@:5]2([H:11])[C:6]([H:12])([H:13])[C@@:7]12[H:14])\[H:8]>>[N:1](=[C:2](\[O+:3]=[C-:4][H:10])[C:7]1([H:14])[C:5]([H:9])([H:11])[C:6]1([H:12])[H:13])\[H:8]"
N        1.79263823      -1.52404710       0.70323182
C        0.96988588      -0.78871031       0.11457856
O        1.31023708       0.19969335      -0.80914716
C        1.00713006       1.48196299      -0.48645911
C       -0.97424793       0.75391369       0.13136941
C       -1.44475674      -0.43661206      -0.63289115
C       -0.45426049      -0.60709215       0.48644085
H        2.74594411      -1.18832167       0.58354616
H       -0.42012520       1.60725566      -0.71324516
H        1.40328160       1.70639807       0.51974588
H       -1.63268731       1.26287671       0.82318550
H       -1.09240592      -0.54103184      -1.65187270
H       -2.43975126      -0.82320417      -0.46015883
H       -0.77088209      -1.10308116       1.39167593
14
Frame=8 idx=007128 GeodesicLength=0.5618722607774018 rxn_smarts="[N:1](=[C:2]1\[O:3][C:4]([H:9])([H:10])[C@@:5]2([H:11])[C:6]([H:12])([H:13])[C@@:7]12[H:14])\[H:8]>>[N:1](=[C:2](\[O+:3]=[C-:4][H:10])[C:7]1([H:14])[C:5]([H:9])([H:11])[C:6]1([H:12])[H:13])\[H:8]"
N        1.79465222      -1.51096341       0.70927078
C        0.96296727      -0.79741960       0.10648426
O        1.29605868       0.19407417      -0.81934413
C        1.01788489       1.47735067      -0.48268305
C       -0.97442835       0.74962792       0.13582175
C       -1.45160845      -0.43498740      -0.63413376
C       -0.45983575      -0.61723021       0.48223284
H        2.74035275      -1.14728666       0.61259485
H       -0.42674914       1.62021725      -0.71665245
H        1.46010302       1.69492271       0.50607888
H       -1.63495974       1.24855230       0.83326929
H       -1.10282796      -0.53366043      -1.65485449
H       -2.44620492      -0.82250091      -0.46164439
H       -0.77540451      -1.12069641       1.38355964
14
Frame=9 idx=007128 GeodesicLength=0.632248897975712 rxn_smarts="[N:1](=[C:2]1\[O:3][C:4]([H:9])([H:10])[C@@:5]2([H:11])[C:6]([H:12])([H:13])[C@@:7]12[H:14])\[H:8]>>[N:1](=[C:2](\[O+:3]=[C-:4][H:10])[C:7]1([H:14])[C:5]([H:9])([H:11])[C:6]1([H:12])[H:13])\[H:8]"
N        1.79619740      -1.49790127       0.71528098
C        0.95634523      -0.80515585       0.09974740
O        1.28211538       0.18957509      -0.82802832
C        1.02852010       1.47328562      -0.47768997
C       -0.97506508       0.74527463       0.14032777
C       -1.45799289      -0.43369128      -0.63535364
C       -0.46543612      -0.62708533       0.47849734
H        2.73345817      -1.10809778       0.63945857
H       -0.43383397       1.63338845      -0.71993203
H        1.51831620       1.68365445       0.49023392
H       -1.63821599       1.23398573       0.84285529
H       -1.11216916      -0.52660323      -1.65759046
H       -2.45211522      -0.82255657      -0.46356796
H       -0.78012405      -1.13807266       1.37576112
14
Frame=10 idx=007128 GeodesicLength=0.7025946113031913 rxn_smarts="[N:1](=[C:2]1\[O:3][C:4]([H:9])([H:10])[C@@:5]2([H:11])[C:6]([H:12])([H:13])[C@@:7]12[H:14])\[H:8]>>[N:1](=[C:2](\[O+:3]=[C-:4][H:10])[C:7]1([H:14])[C:5]([H:9])([H:11])[C:6]1([H:12])[H:13])\[H:8]"
N        1.79730984      -1.48491395       0.72127568
C        0.94997822      -0.81201123       0.09419876
O        1.26839217       0.18617512      -0.83526042
C        1.03901631       1.46973464      -0.47143831
C       -0.97614971       0.74085670       0.14491628
C       -1.46396862      -0.43268259      -0.63655460
C       -0.47108044      -0.63671172       0.47515676
H        2.72550585      -1.07067714       0.66455635
H       -0.44137077       1.64680787      -0.72304090
H        1.57786719       1.67261927       0.47199263
H       -1.64237889       1.21917024       0.85201776
H       -1.12056055      -0.51976653      -1.66007722
H       -2.45752791      -0.82330671      -0.46591919
H       -0.78503269      -1.15529397       1.36817642
14
Frame=11 idx=007128 GeodesicLength=0.7728910341201174 rxn_smarts="[N:1](=[C:2]1\[O:3][C:4]([H:9])([H:10])[C@@:5]2([H:11])[C:6]([H:12])([H:13])[C@@:7]12[H:14])\[H:8]>>[N:1](=[C:2](\[O+:3]=[C-:4][H:10])[C:7]1([H:14])[C:5]([H:9])([H:11])[C:6]1([H:12])[H:13])\[H:8]"
N        1.79800826      -1.47204722       0.72729405
C        0.94383529      -0.81804602       0.08972808
O        1.25487284       0.18385087      -0.84110441
C        1.04941801       1.46666358      -0.46382214
C       -0.97768861       0.73636951       0.14963654
C       -1.46958225      -0.43191616      -0.63775810
C       -0.47678097      -0.64615336       0.47216301
H        2.71668935      -1.03491027       0.68824508
H       -0.44935699       1.66050607      -0.72590047
H        1.63871541       1.66178818       0.45101151
H       -1.64742667       1.20407638       0.86084873
H       -1.12808706      -0.51305212      -1.66236202
H       -2.46249343      -0.82468973      -0.46872011
H       -0.79012319      -1.17243971       1.36074024
14
Frame=12 idx=007128 GeodesicLength=0.8431437508482614 rxn_smarts="[N:1](=[C:2]1\[O:3][C:4]([H:9])([H:10])[C@@:5]2([H:11])[C:6]([H:12])([H:13])[C@@:7]12[H:14])\[H:8]>>[N:1](=[C:2](\[O+:3]=[C-:4][H:10])[C:7]1([H:14])[C:5]([H:9])([H:11])[C:6]1([H:12])[H:13])\[H:8]"
N        1.79833857      -1.45935521       0.73335195
C        0.93788435      -0.82333641       0.08620760
O        1.24153528       0.18258160      -0.84562279
C        1.05979281       1.46403012      -0.45471859
C       -0.97967356       0.73179812       0.15455233
C       -1.47487706      -0.43134078      -0.63898469
C       -0.48254296      -0.65546755       0.46946240
H        2.70708962      -1.00061690       0.71096905
H       -0.45777359       1.67450864      -0.72841369
H        1.70082148       1.65113756       0.42684933
H       -1.65332242       1.18865607       0.86946242
H       -1.13482880      -0.50634228      -1.66449133
H       -2.46706379      -0.82663560      -0.47199620
H       -0.79537994      -1.18961739       1.35337222
14
Frame=13 idx=007128 GeodesicLength=0.9133028600032018 rxn_smarts="[N:1](=[C:2]1\[O:3][C:4]([H:9])([H:10])[C@@:5]2([H:11])[C:6]([H:12])([H:13])[C@@:7]12[H:14])\[H:8]>>[N:1](=[C:2](\[O+:3]=[C-:4][H:10])[C:7]1([H:14])[C:5]([H:9])([H:11])[C:6]1([H:12])[H:13])\[H:8]"
N        1.79832032      -1.44687255       0.73945649
C        0.93210492      -0.82796724       0.08355475
O        1.22836093       0.18233065      -0.84883809
C        1.07020307       1.46176354      -0.44396683
C       -0.98208194       0.72712525       0.15972138
C       -1.47987108      -0.43090090      -0.64025218
C       -0.48837280      -0.66471705       0.46700476
H        2.69674575      -0.96757494       0.73310765
H       -0.46656222       1.68885047      -0.73045792
H        1.76405911       1.64061386       0.39900366
H       -1.66000898       1.17286283       0.87794903
H       -1.14083364      -0.49951911      -1.66649148
H       -2.47125873      -0.82906273      -0.47578031
H       -0.80080472      -1.20693208       1.34598909
14
Frame=14 idx=007128 GeodesicLength=0.9833540795515479 rxn_smarts="[N:1](=[C:2]1\[O:3][C:4]([H:9])([H:10])[C@@:5]2([H:11])[C:6]([H:12])([H:13])[C@@:7]12[H:14])\[H:8]>>[N:1](=[C:2](\[O+:3]=[C-:4][H:10])[C:7]1([H:14])[C:5]([H:9])([H:11])[C:6]1([H:12])[H:13])\[H:8]"
N        1.79799851      -1.43469939       0.74557757
C        0.92646814      -0.83205159       0.08162441
O        1.21532856       0.18305571      -0.85081780
C        1.08078720       1.45976424      -0.43144194
C       -0.98484546       0.72231844       0.16522320
C       -1.48457591      -0.43052574      -0.64156326
C       -0.49425886      -0.67398305       0.46471633
H        2.68551730      -0.93546223       0.75522075
H       -0.47561842       1.70355544      -0.73188788
H        1.82817972       1.63023267       0.36689608
H       -1.66736420       1.15662157       0.88643739
H       -1.14615982      -0.49242758      -1.66837178
H       -2.47509092      -0.83186835      -0.48008053
H       -0.80636584      -1.22453014       1.33846746
14
Frame=15 idx=007128 GeodesicLength=1.053219688909509 rxn_smarts="[N:1](=[C:2]1\[O:3][C:4]([H:9])([H:10])[C@@:5]2([H:11])[C:6]([H:12])([H:13])[C@@:7]12[H:14])\[H:8]>>[N:1](=[C:2](\[O+:3]=[C-:4][H:10])[C:7]1([H:14])[C:5]([H:9])([H:11])[C:6]1([H:12])[H:13])\[H:8]"
N        1.79738447      -1.42285338       0.75172300
C        0.92095942      -0.83571795       0.08031141
O        1.20241945       0.18468771      -0.85157990
C        1.09167696       1.45789626      -0.41696574
C       -0.98787413       0.71734822       0.17113577
C       -1.48897659      -0.43014119      -0.64292629
C       -0.50018310      -0.68335241       0.46252003
H        2.67325706      -0.90393476       0.77777323
H       -0.48479492       1.71866526      -0.73250603
H        1.89280714       1.61993332       0.32987241
H       -1.67524414       1.13987305       0.89503508
H       -1.15083440      -0.48492304      -1.67013579
H       -2.47854880      -0.83493412      -0.48492852
H       -0.81204842      -1.24254696       1.33067133
14
Frame=16 idx=007128 GeodesicLength=1.123105442153307 rxn_smarts="[N:1](=[C:2]1\[O:3][C:4]([H:9])([H:10])[C@@:5]2([H:11])[C:6]([H:12])([H:13])[C@@:7]12[H:14])\[H:8]>>[N:1](=[C:2](\[O+:3]=[C-:4][H:10])[C:7]1([H:14])[C:5]([H:9])([H:11])[C:6]1([H:12])[H:13])\[H:8]"
N        1.79656713      -1.41141447       0.75779382
C        0.91560544      -0.83914349       0.07941531
O        1.18965981       0.18715386      -0.85123801
C        1.10309051       1.45597764      -0.40042348
C       -0.99107948       0.71215369       0.17759782
C       -1.49311433      -0.42965247      -0.64437248
C       -0.50610128      -0.69295881       0.46031361
H        2.65954972      -0.87239101       0.80168470
H       -0.49398686       1.73422303      -0.73207598
H        1.95776948       1.60966924       0.28710720
H       -1.68350551       1.12250059       0.90398712
H       -1.15496142      -0.47679387      -1.67187469
H       -2.48171369      -0.83811210      -0.49036132
H       -0.81777952      -1.26121183       1.32244636
