14
Frame=0 idx=010956 GeodesicLength=0.0 rxn_smarts="[C:1]([c:2]1[c:3]([N:4]([H:11])[H:12])[c:5]([H:13])[c:6]([H:14])[o:7]1)([H:8])([H:9])[H:10]>>[C:1](=[C:2]1/[C:3](=[N:4]\[H:12])[C:5]([H:13])=[C:6]([H:14])[O:7]1)([H:8])[H:9].[H:10][H:11]"
C       -1.49855393      -0.87741967      -0.01949027
C       -0.16488186      -0.65813461      -0.28874567
C        0.37638809       0.64322163      -0.38456401
N       -0.36483581       1.74486851      -0.35681289
C        1.77128981       0.49373859      -0.03970044
C        1.96278658      -0.81737421       0.17263476
O        0.81721768      -1.53940703       0.06384499
H       -2.24926189      -0.42699039      -0.65436730
H       -1.79691825      -1.80113784       0.46360907
H       -1.70740337       0.45637636       0.89378826
H       -1.32039294       1.26362942       0.71980859
H       -1.18512786       1.63828128      -0.94753942
H        2.51085655       1.27545385      -0.00483200
H        2.84883714      -1.39510586       0.38236632
14
Frame=1 idx=010956 GeodesicLength=0.06690648213079765 rxn_smarts="[C:1]([c:2]1[c:3]([N:4]([H:11])[H:12])[c:5]([H:13])[c:6]([H:14])[o:7]1)([H:8])([H:9])[H:10]>>[C:1](=[C:2]1/[C:3](=[N:4]\[H:12])[C:5]([H:13])=[C:6]([H:14])[O:7]1)([H:8])[H:9].[H:10][H:11]"
C       -1.49927568      -0.87763983      -0.01015218
C       -0.16570700      -0.66100403      -0.29416109
C        0.37790305       0.64063605      -0.39918174
N       -0.36266928       1.74395650      -0.35951449
C        1.77213597       0.49193551      -0.05045447
C        1.96344282      -0.81829378       0.16667634
O        0.81686789      -1.53941936       0.06603780
H       -2.24841529      -0.43088517      -0.65034356
H       -1.79501732      -1.81387376       0.45020588
H       -1.71431123       0.45777584       0.90685340
H       -1.31585903       1.28086502       0.72723255
H       -1.18317981       1.64237587      -0.95079798
H        2.50684250       1.27706107       0.00536132
H        2.84724240      -1.39348992       0.39223820
14
Frame=2 idx=010956 GeodesicLength=0.13369786396756217 rxn_smarts="[C:1]([c:2]1[c:3]([N:4]([H:11])[H:12])[c:5]([H:13])[c:6]([H:14])[o:7]1)([H:8])([H:9])[H:10]>>[C:1](=[C:2]1/[C:3](=[N:4]\[H:12])[C:5]([H:13])=[C:6]([H:14])[O:7]1)([H:8])[H:9].[H:10][H:11]"
C       -1.49987392      -0.87797989      -0.00085506
C       -0.16647667      -0.66390459      -0.29933890
C        0.37939088       0.63801824      -0.41333568
N       -0.36050526       1.74292624      -0.36194712
C        1.77296667       0.49017146      -0.06072734
C        1.96422005      -0.81925538       0.16060272
O        0.81658757      -1.53936110       0.06850850
H       -2.24731453      -0.43487420      -0.64645666
H       -1.79326276      -1.82621499       0.43626237
H       -1.72173472       0.45885100       0.92006916
H       -1.31134838       1.29850542       0.73468799
H       -1.18103461       1.64640860      -0.95402992
H        2.50274202       1.27834160       0.01449597
H        2.84564366      -1.39163242       0.40206397
14
Frame=3 idx=010956 GeodesicLength=0.200410368792316 rxn_smarts="[C:1]([c:2]1[c:3]([N:4]([H:11])[H:12])[c:5]([H:13])[c:6]([H:14])[o:7]1)([H:8])([H:9])[H:10]>>[C:1](=[C:2]1/[C:3](=[N:4]\[H:12])[C:5]([H:13])=[C:6]([H:14])[O:7]1)([H:8])[H:9].[H:10][H:11]"
C       -1.50033623      -0.87845712       0.00835308
C       -0.16720971      -0.66683201      -0.30446582
C        0.38083573       0.63538036      -0.42716788
N       -0.35835486       1.74178898      -0.36407285
C        1.77378831       0.48841280      -0.07077935
C        1.96513785      -0.82031577       0.15403608
O        0.81639401      -1.53927484       0.07086168
H       -2.24603104      -0.43889792      -0.64260377
H       -1.79158110      -1.83815310       0.42179495
H       -1.72955942       0.45947166       0.93354661
H       -1.30672792       1.31651324       0.74229809
H       -1.17877873       1.65044385      -0.95709891
H        2.49861659       1.27930950       0.02246627
H        2.84380653      -1.38938963       0.41283182
14
Frame=4 idx=010956 GeodesicLength=0.26709903685900704 rxn_smarts="[C:1]([c:2]1[c:3]([N:4]([H:11])[H:12])[c:5]([H:13])[c:6]([H:14])[o:7]1)([H:8])([H:9])[H:10]>>[C:1](=[C:2]1/[C:3](=[N:4]\[H:12])[C:5]([H:13])=[C:6]([H:14])[O:7]1)([H:8])[H:9].[H:10][H:11]"
C       -1.50068392      -0.87908995       0.01745550
C       -0.16787975      -0.66979962      -0.30936132
C        0.38226615       0.63270904      -0.44053820
N       -0.35621755       1.74052305      -0.36595739
C        1.77456576       0.48669597      -0.08020969
C        1.96611295      -0.82139017       0.14773175
O        0.81627088      -1.53913094       0.07349114
H       -2.24449964      -0.44301986      -0.63893306
H       -1.79003421      -1.84960182       0.40693201
H       -1.73798814       0.45965920       0.94714512
H       -1.30213553       1.33499578       0.74989769
H       -1.17632701       1.65439589      -0.96017439
H        2.49454330       1.28001057       0.02938053
H        2.84200672      -1.38695711       0.42314031
14
Frame=5 idx=010956 GeodesicLength=0.3337964602124951 rxn_smarts="[C:1]([c:2]1[c:3]([N:4]([H:11])[H:12])[c:5]([H:13])[c:6]([H:14])[o:7]1)([H:8])([H:9])[H:10]>>[C:1](=[C:2]1/[C:3](=[N:4]\[H:12])[C:5]([H:13])=[C:6]([H:14])[O:7]1)([H:8])[H:9].[H:10][H:11]"
C       -1.50090128      -0.87989064       0.02638821
C       -0.16851853      -0.67280006      -0.31430525
C        0.38365225       0.63002137      -0.45366828
N       -0.35410195       1.73914794      -0.36754001
C        1.77533302       0.48496100      -0.08953578
C        1.96716922      -0.82254700       0.14113753
O        0.81623852      -1.53899542       0.07581435
H       -2.24282923      -0.44714065      -0.63528835
H       -1.78852244      -1.86059703       0.39165535
H       -1.74682449       0.45923256       0.96104583
H       -1.29733920       1.35388695       0.75769519
H       -1.17380743       1.65837125      -0.96304065
H        2.49055685       1.28046034       0.03509891
H        2.83989469      -1.38411063       0.43454298
14
Frame=6 idx=010956 GeodesicLength=0.40056323431849783 rxn_smarts="[C:1]([c:2]1[c:3]([N:4]([H:11])[H:12])[c:5]([H:13])[c:6]([H:14])[o:7]1)([H:8])([H:9])[H:10]>>[C:1](=[C:2]1/[C:3](=[N:4]\[H:12])[C:5]([H:13])=[C:6]([H:14])[O:7]1)([H:8])[H:9].[H:10][H:11]"
C       -1.50103007      -0.88086189       0.03517685
C       -0.16908371      -0.67585701      -0.31895669
C        0.38504375       0.62728207      -0.46633585
N       -0.35200545       1.73762515      -0.36899221
C        1.77605047       0.48326964      -0.09815930
C        1.96818477      -0.82363211       0.13541626
O        0.81626251      -1.53880104       0.07857498
H       -2.24091079      -0.45138061      -0.63189454
H       -1.78715115      -1.87102994       0.37620493
H       -1.75639980       0.45830934       0.97499727
H       -1.29256959       1.37340183       0.76536591
H       -1.17107644       1.66219914      -0.96604161
H        2.48664419       1.28075536       0.04011487
H        2.83804130      -1.38127992       0.44452914
14
Frame=7 idx=010956 GeodesicLength=0.4674014660295698 rxn_smarts="[C:1]([c:2]1[c:3]([N:4]([H:11])[H:12])[c:5]([H:13])[c:6]([H:14])[o:7]1)([H:8])([H:9])[H:10]>>[C:1](=[C:2]1/[C:3](=[N:4]\[H:12])[C:5]([H:13])=[C:6]([H:14])[O:7]1)([H:8])[H:9].[H:10][H:11]"
C       -1.50105927      -0.88201336       0.04376516
C       -0.16960107      -0.67896151      -0.32354626
C        0.38641547       0.62450881      -0.47871807
N       -0.34993396       1.73597359      -0.37025982
C        1.77674737       0.48157648      -0.10650323
C        1.96920285      -0.82471403       0.12999516
O        0.81635730      -1.53860190       0.08129816
H       -2.23883508      -0.45565423      -0.62862921
H       -1.78584127      -1.88094182       0.36056620
H       -1.76656032       0.45672362       0.98915816
H       -1.28762036       1.39350142       0.77308694
H       -1.16824141       1.66597120      -0.96898875
H        2.48282370       1.28090120       0.04429410
H        2.83614605      -1.37826947       0.45448144
14
Frame=8 idx=010956 GeodesicLength=0.5343472604866001 rxn_smarts="[C:1]([c:2]1[c:3]([N:4]([H:11])[H:12])[c:5]([H:13])[c:6]([H:14])[o:7]1)([H:8])([H:9])[H:10]>>[C:1](=[C:2]1/[C:3](=[N:4]\[H:12])[C:5]([H:13])=[C:6]([H:14])[O:7]1)([H:8])[H:9].[H:10][H:11]"
C       -1.50100809      -0.88335182       0.05215442
C       -0.17005510      -0.68212482      -0.32795033
C        0.38778826       0.62168390      -0.49075221
N       -0.34788901       1.73417562      -0.37143372
C        1.77741338       0.47990218      -0.11437604
C        1.97017992      -0.82573419       0.12527613
O        0.81650980      -1.53837400       0.08425115
H       -2.23656908      -0.46000691      -0.62557548
H       -1.78462354      -1.89027515       0.34489180
H       -1.77745911       0.45448307       1.00343846
H       -1.28253932       1.41432489       0.78072074
H       -1.16526078       1.66961280      -0.97202243
H        2.47906665       1.28095924       0.04794657
H        2.83444602      -1.37527482       0.46343094
14
Frame=9 idx=010956 GeodesicLength=0.6014163111969633 rxn_smarts="[C:1]([c:2]1[c:3]([N:4]([H:11])[H:12])[c:5]([H:13])[c:6]([H:14])[o:7]1)([H:8])([H:9])[H:10]>>[C:1](=[C:2]1/[C:3](=[N:4]\[H:12])[C:5]([H:13])=[C:6]([H:14])[O:7]1)([H:8])[H:9].[H:10][H:11]"
C       -1.50086794      -0.88488469       0.06028393
C       -0.17046795      -0.68533690      -0.33235822
C        0.38913989       0.61882538      -0.50258517
N       -0.34587716       1.73224992      -0.37246631
C        1.77807049       0.47820943      -0.12211953
C        1.97115823      -0.82675432       0.12074003
O        0.81673208      -1.53816184       0.08704437
H       -2.23418872      -0.46436465      -0.62264518
H       -1.78343644      -1.89906718       0.32917422
H       -1.78898106       0.45141016       1.01797752
H       -1.27712186       1.43586490       0.78842598
H       -1.16222600       1.67320244      -0.97498044
H        2.47538630       1.28091659       0.05092886
H        2.83268016      -1.37210923       0.47257995
14
Frame=10 idx=010956 GeodesicLength=0.6686091040959836 rxn_smarts="[C:1]([c:2]1[c:3]([N:4]([H:11])[H:12])[c:5]([H:13])[c:6]([H:14])[o:7]1)([H:8])([H:9])[H:10]>>[C:1](=[C:2]1/[C:3](=[N:4]\[H:12])[C:5]([H:13])=[C:6]([H:14])[O:7]1)([H:8])[H:9].[H:10][H:11]"
C       -1.50066233      -0.88661081       0.06815742
C       -0.17082676      -0.68860318      -0.33667726
C        0.39048583       0.61592382      -0.51416278
N       -0.34389757       1.73018869      -0.37341830
C        1.77871131       0.47651855      -0.12958363
C        1.97211495      -0.82773553       0.11665318
O        0.81700961      -1.53794197       0.08990028
H       -2.23167250      -0.46874974      -0.61990476
H       -1.78230483      -1.90732840       0.31348134
H       -1.80125510       0.44748433       1.03272687
H       -1.27137423       1.45825706       0.79610824
H       -1.15910914       1.67668996      -0.97795314
H        2.47177355       1.28080964       0.05340587
H        2.83100722      -1.36890241       0.48126667
14
Frame=11 idx=010956 GeodesicLength=0.7358981387798776 rxn_smarts="[C:1]([c:2]1[c:3]([N:4]([H:11])[H:12])[c:5]([H:13])[c:6]([H:14])[o:7]1)([H:8])([H:9])[H:10]>>[C:1](=[C:2]1/[C:3](=[N:4]\[H:12])[C:5]([H:13])=[C:6]([H:14])[O:7]1)([H:8])[H:9].[H:10][H:11]"
C       -1.50039931      -0.88853286       0.07575620
C       -0.17113149      -0.69192265      -0.34090215
C        0.39182860       0.61297833      -0.52549653
N       -0.34194843       1.72799217      -0.37430965
C        1.77934033       0.47482978      -0.13678870
C        1.97305731      -0.82867805       0.11299482
O        0.81733409      -1.53771099       0.09285184
H       -2.22902782      -0.47315645      -0.61736981
H       -1.78122733      -1.91509126       0.29785023
H       -1.81433791       0.44263246       1.04770030
H       -1.26522346       1.48159997       0.80375563
H       -1.15592095       1.68006899      -0.98094245
H        2.46822713       1.28066103       0.05544215
H        2.82942927      -1.36567047       0.48945812
14
Frame=12 idx=010956 GeodesicLength=0.8032875616750529 rxn_smarts="[C:1]([c:2]1[c:3]([N:4]([H:11])[H:12])[c:5]([H:13])[c:6]([H:14])[o:7]1)([H:8])([H:9])[H:10]>>[C:1](=[C:2]1/[C:3](=[N:4]\[H:12])[C:5]([H:13])=[C:6]([H:14])[O:7]1)([H:8])[H:9].[H:10][H:11]"
C       -1.50009268      -0.89064017       0.08305302
C       -0.17139529      -0.69529001      -0.34512799
C        0.39315355       0.60999865      -0.53667108
N       -0.34003462       1.72567644      -0.37512758
C        1.77996837       0.47312202      -0.14392839
C        1.97400667      -0.82961672       0.10946612
O        0.81770724      -1.53748330       0.09572412
H       -2.22630591      -0.47753335      -0.61499794
H       -1.78016959      -1.92244527       0.28223155
H       -1.82820547       0.43670996       1.06299595
H       -1.25847953       1.50596501       0.81146228
H       -1.15272140       1.68337956      -0.98385678
H        2.46475386       1.28045382       0.05694025
H        2.82781480      -1.36229664       0.49783648
14
Frame=13 idx=010956 GeodesicLength=0.8707319980682496 rxn_smarts="[C:1]([c:2]1[c:3]([N:4]([H:11])[H:12])[c:5]([H:13])[c:6]([H:14])[o:7]1)([H:8])([H:9])[H:10]>>[C:1](=[C:2]1/[C:3](=[N:4]\[H:12])[C:5]([H:13])=[C:6]([H:14])[O:7]1)([H:8])[H:9].[H:10][H:11]"
C       -1.49975484      -0.89294501       0.09003810
C       -0.17161138      -0.69870844      -0.34929626
C        0.39446770       0.60697804      -0.54765675
N       -0.33815630       1.72323435      -0.37590948
C        1.78059345       0.47140580      -0.15093139
C        1.97495405      -0.83052976       0.10620651
O        0.81811872      -1.53724168       0.09865869
H       -2.22349297      -0.48189713      -0.61283628
H       -1.77915016      -1.92938416       0.26666586
H       -1.84296996       0.42964471       1.07859736
H       -1.25108659       1.53149584       0.81916744
H       -1.14950624       1.68658587      -0.98673759
H        2.46134536       1.28021510       0.05800731
H        2.82624916      -1.35885353       0.50602651
14
Frame=14 idx=010956 GeodesicLength=0.9381693804626853 rxn_smarts="[C:1]([c:2]1[c:3]([N:4]([H:11])[H:12])[c:5]([H:13])[c:6]([H:14])[o:7]1)([H:8])([H:9])[H:10]>>[C:1](=[C:2]1/[C:3](=[N:4]\[H:12])[C:5]([H:13])=[C:6]([H:14])[O:7]1)([H:8])[H:9].[H:10][H:11]"
C       -1.49940406      -0.89544864       0.09669954
C       -0.17177911      -0.70217892      -0.35339294
C        0.39577056       0.60391418      -0.55845685
N       -0.33631424       1.72066762      -0.37666489
C        1.78121869       0.46968071      -0.15781283
C        1.97589011      -0.83140407       0.10326644
O        0.81856099      -1.53697519       0.10170533
H       -2.22059399      -0.48624244      -0.61090630
H       -1.77817089      -1.93595937       0.25112645
H       -1.85871515       0.42133884       1.09452423
H       -1.24292800       1.55832107       0.82686664
H       -1.14629332       1.68968030      -0.98956993
H        2.45801194       1.27995489       0.05862658
H        2.82474646      -1.35534898       0.51398854
14
Frame=15 idx=010956 GeodesicLength=1.005545777658285 rxn_smarts="[C:1]([c:2]1[c:3]([N:4]([H:11])[H:12])[c:5]([H:13])[c:6]([H:14])[o:7]1)([H:8])([H:9])[H:10]>>[C:1](=[C:2]1/[C:3](=[N:4]\[H:12])[C:5]([H:13])=[C:6]([H:14])[O:7]1)([H:8])[H:9].[H:10][H:11]"
C       -1.49905537      -0.89815482       0.10301628
C       -0.17190334      -0.70570065      -0.35743744
C        0.39705405       0.60080875      -0.56909680
N       -0.33450928       1.71798114      -0.37738782
C        1.78184986       0.46793818      -0.16465062
C        1.97681940      -0.83224510       0.10057579
O        0.81902690      -1.53667935       0.10485273
H       -2.21762832      -0.49054956      -0.60921076
H       -1.77722622      -1.94223414       0.23555672
H       -1.87550025       0.41165390       1.11082836
H       -1.23383623       1.58656944       0.83458876
H       -1.14311732       1.69266998      -0.99230269
H        2.45477070       1.27967286       0.05872253
H        2.82325541      -1.35173062       0.52194496
14
Frame=16 idx=010956 GeodesicLength=1.0727867036738432 rxn_smarts="[C:1]([c:2]1[c:3]([N:4]([H:11])[H:12])[c:5]([H:13])[c:6]([H:14])[o:7]1)([H:8])([H:9])[H:10]>>[C:1](=[C:2]1/[C:3](=[N:4]\[H:12])[C:5]([H:13])=[C:6]([H:14])[O:7]1)([H:8])[H:9].[H:10][H:11]"
C       -1.49872755      -0.90107123       0.10897692
C       -0.17198422      -0.70927536      -0.36141364
C        0.39831452       0.59765865      -0.57957874
N       -0.33274319       1.71517495      -0.37808182
C        1.78248923       0.46617626      -0.17146486
C        1.97773862      -0.83304548       0.09815389
O        0.81950780      -1.53634022       0.10815759
H       -2.21460092      -0.49481682      -0.60777017
H       -1.77631848      -1.94825151       0.21991648
H       -1.89342505       0.40046461       1.12753327
H       -1.22366062       1.61639631       0.84232412
H       -1.14000187       1.69554407      -0.99491179
H        2.45163166       1.27937739       0.05827196
H        2.82178007      -1.34799160       0.52988680
