15
Frame=0 idx=009049 GeodesicLength=0.0 rxn_smarts="[N:1]([C@@:2]([C:3]#[N:4])([C:5]1([H:11])[C:6]([H:12])([H:13])[C:7]1([H:14])[H:15])[H:10])([H:8])[H:9]>>[C:5]1([H:11])=[C:7]([H:14])[C:6]1([H:12])[H:13].[N:1]([C@:2]1([H:10])[C:3]([H:15])=[N:4]1)([H:8])[H:9]"
N        1.85118488       0.40571817      -0.46278598
C        1.09842736      -0.35024552       0.35147988
C        0.38809324       0.23742717       1.59108233
N        1.21898685       0.24976752       2.45346580
C       -0.75715656      -0.81414893      -0.62605291
C       -1.35648445       0.50865648      -0.98786773
C       -1.78904615      -0.40804918       0.09956347
H        2.79213251       0.14510374      -0.69483624
H        1.59231093       1.35949827      -0.64024712
H        1.49912371      -1.34431167       0.51765435
H       -0.37780639      -1.68809047      -1.12798285
H       -0.80902514       1.42010641      -0.73081138
H       -1.96113297       0.61441608      -1.88707994
H       -2.64921555      -0.71634212       0.66654237
H       -0.74039228       0.38049401       1.47787601
15
Frame=1 idx=009049 GeodesicLength=0.1170834007454189 rxn_smarts="[N:1]([C@@:2]([C:3]#[N:4])([C:5]1([H:11])[C:6]([H:12])([H:13])[C:7]1([H:14])[H:15])[H:10])([H:8])[H:9]>>[C:5]1([H:11])=[C:7]([H:14])[C:6]1([H:12])[H:13].[N:1]([C@:2]1([H:10])[C:3]([H:15])=[N:4]1)([H:8])[H:9]"
N        1.86371966       0.37370267      -0.47558708
C        1.10266955      -0.35244068       0.36539851
C        0.40218006       0.25399018       1.59229720
N        1.25156024       0.31355670       2.43394383
C       -0.75178067      -0.79704244      -0.63166132
C       -1.37286770       0.52097387      -0.97440709
C       -1.79398185      -0.41719785       0.10039854
H        2.81800456       0.12226399      -0.65938779
H        1.60281415       1.32251706      -0.67708724
H        1.49186507      -1.34853738       0.54944534
H       -0.36928211      -1.65000598      -1.16628493
H       -0.84453566       1.43818804      -0.70036631
H       -1.97650225       0.63014684      -1.87355718
H       -2.66257311      -0.76044681       0.63354804
H       -0.76128996       0.35033177       1.48330748
15
Frame=2 idx=009049 GeodesicLength=0.23407661802814927 rxn_smarts="[N:1]([C@@:2]([C:3]#[N:4])([C:5]1([H:11])[C:6]([H:12])([H:13])[C:7]1([H:14])[H:15])[H:10])([H:8])[H:9]>>[C:5]1([H:11])=[C:7]([H:14])[C:6]1([H:12])[H:13].[N:1]([C@:2]1([H:10])[C:3]([H:15])=[N:4]1)([H:8])[H:9]"
N        1.87699677       0.34074734      -0.48712243
C        1.10709220      -0.35411110       0.37949586
C        0.41645869       0.27161971       1.59314519
N        1.28267030       0.37646637       2.41236600
C       -0.74616679      -0.77927213      -0.63689786
C       -1.38944862       0.53316344      -0.96050962
C       -1.79871268      -0.42662569       0.10107547
H        2.84194408       0.09987250      -0.62570338
H        1.61396745       1.28381670      -0.71333073
H        1.48426427      -1.35189332       0.58198239
H       -0.36057844      -1.61037526      -1.20291233
H       -0.88085945       1.45564589      -0.66917800
H       -1.99186825       0.64575783      -1.85972672
H       -2.67430507      -0.80424098       0.59863457
H       -0.78145447       0.31942870       1.48868159
15
Frame=3 idx=009049 GeodesicLength=0.35097146420034137 rxn_smarts="[N:1]([C@@:2]([C:3]#[N:4])([C:5]1([H:11])[C:6]([H:12])([H:13])[C:7]1([H:14])[H:15])[H:10])([H:8])[H:9]>>[C:5]1([H:11])=[C:7]([H:14])[C:6]1([H:12])[H:13].[N:1]([C@:2]1([H:10])[C:3]([H:15])=[N:4]1)([H:8])[H:9]"
N        1.89091272       0.30687138      -0.49743008
C        1.11164874      -0.35523005       0.39370777
C        0.43092956       0.29028079       1.59355938
N        1.31252507       0.43837625       2.38875647
C       -0.74035542      -0.76079955      -0.64180024
C       -1.40635120       0.54516533      -0.94620948
C       -1.80323318      -0.43638221       0.10156220
H        2.86426241       0.07777093      -0.59358038
H        1.62595689       1.24350208      -0.74868071
H        1.47625285      -1.35430776       0.61517432
H       -0.35176443      -1.56923963      -1.23791392
H       -0.91824954       1.47243072      -0.63725672
H       -2.00737552       0.66116432      -1.84560567
H       -2.68422974      -0.84763540       0.56192493
H       -0.80092919       0.28803279       1.49379214
15
Frame=4 idx=009049 GeodesicLength=0.4677652646170327 rxn_smarts="[N:1]([C@@:2]([C:3]#[N:4])([C:5]1([H:11])[C:6]([H:12])([H:13])[C:7]1([H:14])[H:15])[H:10])([H:8])[H:9]>>[C:5]1([H:11])=[C:7]([H:14])[C:6]1([H:12])[H:13].[N:1]([C@:2]1([H:10])[C:3]([H:15])=[N:4]1)([H:8])[H:9]"
N        1.90538952       0.27204402      -0.50651685
C        1.11628534      -0.35575366       0.40798344
C        0.44560237       0.31000412       1.59345527
N        1.34135707       0.49925597       2.36309585
C       -0.73437456      -0.74153857      -0.64642611
C       -1.42372039       0.55692824      -0.93152120
C       -1.80750336      -0.44653442       0.10179469
H        2.88522079       0.05567400      -0.56281253
H        1.63900851       1.20164055      -0.78286415
H        1.46771921      -1.35568568       0.64896011
H       -0.34288143      -1.52652124      -1.27141348
H       -0.95699950       1.48848039      -0.60456124
H       -2.02319881       0.67627900      -1.83117863
H       -2.69208734      -0.89061063       0.52352708
H       -0.81981742       0.25633792       1.49847774
15
Frame=5 idx=009049 GeodesicLength=0.5843646726124395 rxn_smarts="[N:1]([C@@:2]([C:3]#[N:4])([C:5]1([H:11])[C:6]([H:12])([H:13])[C:7]1([H:14])[H:15])[H:10])([H:8])[H:9]>>[C:5]1([H:11])=[C:7]([H:14])[C:6]1([H:12])[H:13].[N:1]([C@:2]1([H:10])[C:3]([H:15])=[N:4]1)([H:8])[H:9]"
N        1.92036668       0.23620690      -0.51440841
C        1.12103786      -0.35565590       0.42234075
C        0.46052582       0.33087792       1.59281930
N        1.36928313       0.55918749       2.33548653
C       -0.72817443      -0.72145757      -0.65082519
C       -1.44154908       0.56843791      -0.91644440
C       -1.81147940      -0.45718230       0.10169488
H        2.90493364       0.03333599      -0.53341817
H        1.65313928       1.15825977      -0.81586108
H        1.45873710      -1.35597627       0.68334526
H       -0.33387381      -1.48224610      -1.30355012
H       -0.99732282       1.50372958      -0.57087218
H       -2.03936623       0.69118400      -1.81644367
H       -2.69806928      -0.93314226       0.48345897
H       -0.83818845       0.22444083       1.50267753
15
Frame=6 idx=009049 GeodesicLength=0.7008453273697278 rxn_smarts="[N:1]([C@@:2]([C:3]#[N:4])([C:5]1([H:11])[C:6]([H:12])([H:13])[C:7]1([H:14])[H:15])[H:10])([H:8])[H:9]>>[C:5]1([H:11])=[C:7]([H:14])[C:6]1([H:12])[H:13].[N:1]([C@:2]1([H:10])[C:3]([H:15])=[N:4]1)([H:8])[H:9]"
N        1.93576018       0.19926835      -0.52107698
C        1.12580666      -0.35488192       0.43673046
C        0.47573184       0.35298382       1.59150810
N        1.39658464       0.61828101       2.30575985
C       -0.72179629      -0.70037688      -0.65506522
C       -1.46002212       0.57967396      -0.90095049
C       -1.81511106      -0.46838841       0.10115769
H        2.92360005       0.01033853      -0.50512972
H        1.66860687       1.11336023      -0.84742635
H        1.44905730      -1.35504490       0.71835530
H       -0.32477792      -1.43614216      -1.33446698
H       -1.03951592       1.51808750      -0.53614528
H       -2.05606834       0.70581920      -1.80133704
H       -2.70164773      -0.97533529       0.44180249
H       -0.85620818       0.19235697       1.50628415
15
Frame=7 idx=009049 GeodesicLength=0.8173877874501827 rxn_smarts="[N:1]([C@@:2]([C:3]#[N:4])([C:5]1([H:11])[C:6]([H:12])([H:13])[C:7]1([H:14])[H:15])[H:10])([H:8])[H:9]>>[C:5]1([H:11])=[C:7]([H:14])[C:6]1([H:12])[H:13].[N:1]([C@:2]1([H:10])[C:3]([H:15])=[N:4]1)([H:8])[H:9]"
N        1.95149625       0.16112147      -0.52652559
C        1.13057047      -0.35338362       0.45114897
C        0.49131138       0.37646698       1.58945158
N        1.42347564       0.67665729       2.27386431
C       -0.71521786      -0.67818458      -0.65918963
C       -1.47921023       0.59064618      -0.88499705
C       -1.81837203      -0.48023600       0.10007221
H        2.94132255      -0.01359656      -0.47784577
H        1.68548407       1.06689567      -0.87754934
H        1.43859486      -1.35278082       0.75405165
H       -0.31556578      -1.38808337      -1.36426753
H       -1.08378658       1.53145910      -0.50021849
H       -2.07333956       0.72025750      -1.78582519
H       -2.70272003      -1.01724183       0.39855011
H       -0.87404316       0.16000258       1.50927975
15
Frame=8 idx=009049 GeodesicLength=0.9339399491147975 rxn_smarts="[N:1]([C@@:2]([C:3]#[N:4])([C:5]1([H:11])[C:6]([H:12])([H:13])[C:7]1([H:14])[H:15])[H:10])([H:8])[H:9]>>[C:5]1([H:11])=[C:7]([H:14])[C:6]1([H:12])[H:13].[N:1]([C@:2]1([H:10])[C:3]([H:15])=[N:4]1)([H:8])[H:9]"
N        1.96748107       0.12164296      -0.53069731
C        1.13528997      -0.35108580       0.46560439
C        0.50730353       0.40152781       1.58651021
N        1.45022718       0.73446964       2.23963164
C       -0.70844303      -0.65470426      -0.66324572
C       -1.49920477       0.60133087      -0.86852222
C       -1.82116089      -0.49279707       0.09830007
H        2.95815898      -0.03887876      -0.45140467
H        1.70386281       1.01876651      -0.90617190
H        1.42722559      -1.34901440       0.79052754
H       -0.30621469      -1.33778945      -1.39307927
H       -1.13039999       1.54367623      -0.46288897
H       -2.09127760       0.73452861      -1.76982938
H       -2.70104554      -1.05890897       0.35361890
H       -0.89180265       0.12723609       1.51164671
15
Frame=9 idx=009049 GeodesicLength=1.050585064064636 rxn_smarts="[N:1]([C@@:2]([C:3]#[N:4])([C:5]1([H:11])[C:6]([H:12])([H:13])[C:7]1([H:14])[H:15])[H:10])([H:8])[H:9]>>[C:5]1([H:11])=[C:7]([H:14])[C:6]1([H:12])[H:13].[N:1]([C@:2]1([H:10])[C:3]([H:15])=[N:4]1)([H:8])[H:9]"
N        1.98358825       0.08065194      -0.53361416
C        1.14003118      -0.34792581       0.48013875
C        0.52386258       0.42839490       1.58257965
N        1.47687971       0.79197574       2.20297913
C       -0.70138787      -0.62986375      -0.66723556
C       -1.51991753       0.61175649      -0.85145989
C       -1.82337884      -0.50617850       0.09571153
H        2.97410816      -0.06572084      -0.42570241
H        1.72358741       0.96876359      -0.93350452
H        1.41505096      -1.34358147       0.82790050
H       -0.29658512      -1.28512646      -1.42099811
H       -1.17946723       1.55450502      -0.42379263
H       -2.10985796       0.74888764      -1.75326341
H       -2.69697369      -1.10034327       0.30685561
H       -0.90954002       0.09380477       1.51340554
15
Frame=10 idx=009049 GeodesicLength=1.167310307320871 rxn_smarts="[N:1]([C@@:2]([C:3]#[N:4])([C:5]1([H:11])[C:6]([H:12])([H:13])[C:7]1([H:14])[H:15])[H:10])([H:8])[H:9]>>[C:5]1([H:11])=[C:7]([H:14])[C:6]1([H:12])[H:13].[N:1]([C@:2]1([H:10])[C:3]([H:15])=[N:4]1)([H:8])[H:9]"
N        1.99966031       0.03801291      -0.53514243
C        1.14467565      -0.34381851       0.49474553
C        0.54102939       0.45725584       1.57745918
N        1.50382908       0.84925461       2.16358675
C       -0.69412573      -0.60340653      -0.67117651
C       -1.54152917       0.62188540      -0.83372372
C       -1.82493636      -0.52040124       0.09214773
H        2.98915551      -0.09459125      -0.40055785
H        1.74478812       0.91679288      -0.95930598
H        1.40179544      -1.33624874       0.86628400
H       -0.28672238      -1.22965550      -1.44805735
H       -1.23124882       1.56371614      -0.38285763
H       -2.12919856       0.76327011      -1.73602518
H       -2.68979679      -1.14159624       0.25813692
H       -0.92737570       0.05953011       1.51448655
15
Frame=11 idx=009049 GeodesicLength=1.2841655141212813 rxn_smarts="[N:1]([C@@:2]([C:3]#[N:4])([C:5]1([H:11])[C:6]([H:12])([H:13])[C:7]1([H:14])[H:15])[H:10])([H:8])[H:9]>>[C:5]1([H:11])=[C:7]([H:14])[C:6]1([H:12])[H:13].[N:1]([C@:2]1([H:10])[C:3]([H:15])=[N:4]1)([H:8])[H:9]"
N        2.01548844      -0.00643953      -0.53521885
C        1.14921325      -0.33869209       0.50945507
C        0.55893188       0.48831050       1.57101119
N        1.53129900       0.90647205       2.12119169
C       -0.68664669      -0.57520239      -0.67504464
C       -1.56403910       0.63171563      -0.81521822
C       -1.82573267      -0.53552191       0.08743353
H        3.00321913      -0.12573687      -0.37585121
H        1.76733000       0.86267282      -0.98358935
H        1.38742317      -1.32678073       0.90583456
H       -0.27655339      -1.17111073      -1.47426594
H       -1.28583486       1.57101858      -0.33986519
H       -2.14926567       0.77782020      -1.71801118
H       -2.67943659      -1.18264174       0.20727666
H       -0.94539590       0.02411620       1.51486188
15
Frame=12 idx=009049 GeodesicLength=1.401130896232414 rxn_smarts="[N:1]([C@@:2]([C:3]#[N:4])([C:5]1([H:11])[C:6]([H:12])([H:13])[C:7]1([H:14])[H:15])[H:10])([H:8])[H:9]>>[C:5]1([H:11])=[C:7]([H:14])[C:6]1([H:12])[H:13].[N:1]([C@:2]1([H:10])[C:3]([H:15])=[N:4]1)([H:8])[H:9]"
N        2.03079985      -0.05289273      -0.53373239
C        1.15361179      -0.33244184       0.52431578
C        0.57769265       0.52180831       1.56301944
N        1.55958193       0.96378816       2.07539373
C       -0.67897158      -0.54507840      -0.67878962
C       -1.58743992       0.64120255      -0.79584067
C       -1.82563061      -0.55159422       0.08138208
H        3.01618318      -0.15948137      -0.35139568
H        1.79105917       0.80617842      -1.00629611
H        1.37189784      -1.31485633       0.94672251
H       -0.26602224      -1.10909456      -1.49959016
H       -1.34331781       1.57599181      -0.29455426
H       -2.17008233       0.79264911      -1.69907413
H       -2.66571125      -1.22339628       0.15395220
H       -0.96365067      -0.01278264       1.51448728
15
Frame=13 idx=009049 GeodesicLength=1.5182218373704113 rxn_smarts="[N:1]([C@@:2]([C:3]#[N:4])([C:5]1([H:11])[C:6]([H:12])([H:13])[C:7]1([H:14])[H:15])[H:10])([H:8])[H:9]>>[C:5]1([H:11])=[C:7]([H:14])[C:6]1([H:12])[H:13].[N:1]([C@:2]1([H:10])[C:3]([H:15])=[N:4]1)([H:8])[H:9]"
N        2.04522873      -0.10154931      -0.53057462
C        1.15790426      -0.32492151       0.53939660
C        0.59749908       0.55806727       1.55321958
N        1.58883427       1.02141802       2.02576340
C       -0.67105464      -0.51291567      -0.68233059
C       -1.61165884       0.65028183      -0.77542223
C       -1.82446102      -0.56868386       0.07376791
H        3.02785690      -0.19610829      -0.32697639
H        1.81565700       0.74694967      -1.02750734
H        1.35535008      -1.30006039       0.98918371
H       -0.25496230      -1.04319186      -1.52396718
H       -1.40369781       1.57807208      -0.24654625
H       -2.19158278       0.80797028      -1.67900052
H       -2.64878242      -1.26367356       0.09772767
H       -0.98213051      -0.05165472       1.51326625
15
Frame=14 idx=009049 GeodesicLength=1.6352840988068202 rxn_smarts="[N:1]([C@@:2]([C:3]#[N:4])([C:5]1([H:11])[C:6]([H:12])([H:13])[C:7]1([H:14])[H:15])[H:10])([H:8])[H:9]>>[C:5]1([H:11])=[C:7]([H:14])[C:6]1([H:12])[H:13].[N:1]([C@:2]1([H:10])[C:3]([H:15])=[N:4]1)([H:8])[H:9]"
N        2.05837756      -0.15253325      -0.52555550
C        1.16199404      -0.31604361       0.55477286
C        0.61845941       0.59724450       1.54145412
N        1.61942766       1.07940650       1.97174650
C       -0.66299287      -0.47858854      -0.68554837
C       -1.63669371       0.65889079      -0.75386409
C       -1.82212419      -0.58679015       0.06437049
H        3.03798455      -0.23589081      -0.30257739
H        1.84085048       0.68488625      -1.04694945
H        1.33773627      -1.28205023       1.03342413
H       -0.24335638      -0.97301720      -1.54719648
H       -1.46691230       1.57678530      -0.19577904
H       -2.21368834       0.82386841      -1.65767662
H       -2.62814531      -1.30329070       0.03828535
H       -1.00091686      -0.09287726       1.51109348
15
Frame=15 idx=009049 GeodesicLength=1.7522085677891974 rxn_smarts="[N:1]([C@@:2]([C:3]#[N:4])([C:5]1([H:11])[C:6]([H:12])([H:13])[C:7]1([H:14])[H:15])[H:10])([H:8])[H:9]>>[C:5]1([H:11])=[C:7]([H:14])[C:6]1([H:12])[H:13].[N:1]([C@:2]1([H:10])[C:3]([H:15])=[N:4]1)([H:8])[H:9]"
N        2.06972802      -0.20594039      -0.51850708
C        1.16585950      -0.30566277       0.57054229
C        0.64077279       0.63958794       1.52747982
N        1.65159573       1.13780168       1.91280235
C       -0.65481601      -0.44206657      -0.68828426
C       -1.66241458       0.66693432      -0.73102847
C       -1.81850442      -0.60592675       0.05293262
H        3.04626073      -0.27899656      -0.27808876
H        1.86612856       0.61977348      -1.06452475
H        1.31920833      -1.26036153       1.07969236
H       -0.23108534      -0.89824048      -1.56901511
H       -1.53271613       1.57151871      -0.14209740
H       -2.23622593       0.84053277      -1.63491220
H       -2.60376144      -1.34193476      -0.02480316
H       -1.02002982      -0.13701909       1.50781177
15
Frame=16 idx=009049 GeodesicLength=1.8688465592960477 rxn_smarts="[N:1]([C@@:2]([C:3]#[N:4])([C:5]1([H:11])[C:6]([H:12])([H:13])[C:7]1([H:14])[H:15])[H:10])([H:8])[H:9]>>[C:5]1([H:11])=[C:7]([H:14])[C:6]1([H:12])[H:13].[N:1]([C@:2]1([H:10])[C:3]([H:15])=[N:4]1)([H:8])[H:9]"
N        2.07867377      -0.26188380      -0.50918029
C        1.16946991      -0.29358714       0.58682520
C        0.66464490       0.68540597       1.51097839
N        1.68557248       1.19667946       1.84815727
C       -0.64657082      -0.40331889      -0.69035585
C       -1.68870120       0.67426750      -0.70672462
C       -1.81343974      -0.62610862       0.03914222
H        3.05230116      -0.32569734      -0.25332149
H        1.89092134       0.55130867      -1.08006417
H        1.29995895      -1.23436990       1.12830205
H       -0.21801231      -0.81837021      -1.58909595
H       -1.60079855       1.56151503      -0.08530793
H       -2.25906087       0.85816401      -1.61042350
H       -2.57552546      -1.37920289      -0.09211150
H       -1.03943356      -0.18480184       1.50318015
