11
Frame=0 idx=002656 GeodesicLength=0.0 rxn_smarts="[C:1]([n:2]1[c:3]([H:10])[n:4][n:5][c:6]1[H:11])([H:7])([H:8])[H:9]>>[C-:1]([N+:2]1([H:8])[C:3]([H:10])=[N:4][N:5]=[C:6]1[H:11])([H:7])[H:9]"
C       -1.94108643      -0.32764172       0.02661626
N        0.03625881       0.15486242      -0.45855746
C        0.63990788       1.19198165       0.20486367
N        1.81679963       0.85039300       0.61111855
N        2.02600840      -0.46022217       0.22011575
C        0.96668648      -0.85041568      -0.40623608
H       -1.69014441      -1.34716775       0.35358921
H       -0.88854938       0.17480510      -0.99567922
H       -1.94876197       0.28503824       0.93891385
H        0.17296898       2.15383848       0.34596494
H        0.80991204      -1.82547158      -0.84070947
11
Frame=1 idx=002656 GeodesicLength=0.09642616598802173 rxn_smarts="[C:1]([n:2]1[c:3]([H:10])[n:4][n:5][c:6]1[H:11])([H:7])([H:8])[H:9]>>[C-:1]([N+:2]1([H:8])[C:3]([H:10])=[N:4][N:5]=[C:6]1[H:11])([H:7])[H:9]"
C       -1.91258189      -0.30894502       0.03238031
N        0.02318011       0.14805860      -0.44240729
C        0.63751628       1.19578256       0.19731076
N        1.81443529       0.85690650       0.60405286
N        2.01995772      -0.45954705       0.22847418
C        0.95867289      -0.85442219      -0.39084379
H       -1.70126722      -1.35246099       0.30554279
H       -0.89703172       0.18954032      -1.01488895
H       -1.91869308       0.25626689       0.97427069
H        0.17184340       2.15955241       0.32949005
H        0.80396821      -1.83073204      -0.82338160
11
Frame=2 idx=002656 GeodesicLength=0.19310526683747026 rxn_smarts="[C:1]([n:2]1[c:3]([H:10])[n:4][n:5][c:6]1[H:11])([H:7])([H:8])[H:9]>>[C-:1]([N+:2]1([H:8])[C:3]([H:10])=[N:4][N:5]=[C:6]1[H:11])([H:7])[H:9]"
C       -1.88427066      -0.29180490       0.03855550
N        0.01097064       0.14200395      -0.42769430
C        0.63507304       1.19920284       0.19012836
N        1.81234022       0.86324392       0.59659094
N        2.01442224      -0.45865929       0.23587274
C        0.95087163      -0.85827347      -0.37574630
H       -1.71205719      -1.35438541       0.25866838
H       -0.90597816       0.20366409      -1.03215515
H       -1.88921982       0.22680961       1.00637752
H        0.17019630       2.16443620       0.31461804
H        0.79765178      -1.83623753      -0.80521573
11
Frame=3 idx=002656 GeodesicLength=0.289928593074663 rxn_smarts="[C:1]([n:2]1[c:3]([H:10])[n:4][n:5][c:6]1[H:11])([H:7])([H:8])[H:9]>>[C-:1]([N+:2]1([H:8])[C:3]([H:10])=[N:4][N:5]=[C:6]1[H:11])([H:7])[H:9]"
C       -1.85618857      -0.27621014       0.04498234
N       -0.00041095       0.13659681      -0.41429487
C        0.63258266       1.20225096       0.18335716
N        1.81050462       0.86937916       0.58876222
N        2.00933740      -0.45763270       0.24246044
C        0.94335686      -0.86194229      -0.36104586
H       -1.72234878      -1.35325849       0.21312781
H       -0.91557760       0.21734057      -1.04772593
H       -1.86037869       0.19688050       1.03537791
H        0.16809526       2.16856930       0.30122746
H        0.79102781      -1.84197368      -0.78622866
11
Frame=4 idx=002656 GeodesicLength=0.3868511997666133 rxn_smarts="[C:1]([n:2]1[c:3]([H:10])[n:4][n:5][c:6]1[H:11])([H:7])([H:8])[H:9]>>[C-:1]([N+:2]1([H:8])[C:3]([H:10])=[N:4][N:5]=[C:6]1[H:11])([H:7])[H:9]"
C       -1.82836467      -0.26217210       0.05149796
N       -0.01100572       0.13174254      -0.40210542
C        0.63006013       1.20494634       0.17701478
N        1.80885692       0.87522388       0.58076031
N        2.00473310      -0.45647507       0.24822202
C        0.93619820      -0.86542188      -0.34683998
H       -1.73200954      -1.34935392       0.16916128
H       -0.92599405       0.23070569      -1.06182047
H       -1.83223170       0.16672587       1.06134757
H        0.16559693       2.17203469       0.28921404
H        0.78416039      -1.84795604      -0.76645209
11
Frame=5 idx=002656 GeodesicLength=0.483506174221724 rxn_smarts="[C:1]([n:2]1[c:3]([H:10])[n:4][n:5][c:6]1[H:11])([H:7])([H:8])[H:9]>>[C-:1]([N+:2]1([H:8])[C:3]([H:10])=[N:4][N:5]=[C:6]1[H:11])([H:7])[H:9]"
C       -1.80086718      -0.24955100       0.05792450
N       -0.02086458       0.12737197      -0.39103808
C        0.62749569       1.20729886       0.17107785
N        1.80732876       0.88079050       0.57267344
N        2.00049022      -0.45526794       0.25331602
C        0.92938450      -0.86872463      -0.33317575
H       -1.74082980      -1.34316723       0.12690176
H       -0.93721414       0.24393235      -1.07450707
H       -1.80475330       0.13659553       1.08447806
H        0.16275601       2.17485403       0.27838015
H        0.77707383      -1.85413244      -0.74603088
11
Frame=6 idx=002656 GeodesicLength=0.5801295243065493 rxn_smarts="[C:1]([n:2]1[c:3]([H:10])[n:4][n:5][c:6]1[H:11])([H:7])([H:8])[H:9]>>[C-:1]([N+:2]1([H:8])[C:3]([H:10])=[N:4][N:5]=[C:6]1[H:11])([H:7])[H:9]"
C       -1.77369894      -0.23833961       0.06415866
N       -0.03002086       0.12337059      -0.38099201
C        0.62491991       1.20933918       0.16554490
N        1.80590331       0.88602778       0.56460400
N        1.99666799      -0.45400877       0.25772829
C        0.92299823      -0.87186169      -0.32011654
H       -1.74882930      -1.33488356       0.08642490
H       -0.94942176       0.25715788      -1.08597332
H       -1.77799621       0.10661383       1.10488166
H        0.15961354       2.17711625       0.26865939
H        0.76986409      -1.86053186      -0.72491991
11
Frame=7 idx=002656 GeodesicLength=0.6766407717140467 rxn_smarts="[C:1]([n:2]1[c:3]([H:10])[n:4][n:5][c:6]1[H:11])([H:7])([H:8])[H:9]>>[C-:1]([N+:2]1([H:8])[C:3]([H:10])=[N:4][N:5]=[C:6]1[H:11])([H:7])[H:9]"
C       -1.74688461      -0.22845170       0.07009559
N       -0.03851870       0.11966372      -0.37189619
C        0.62235060       1.21108529       0.16037697
N        1.80455687       0.89094532       0.55661089
N        1.99322089      -0.45274007       0.26155159
C        0.91705594      -0.87484493      -0.30769556
H       -1.75595272      -1.32482938       0.04776208
H       -0.96266445       0.27051780      -1.09627627
H       -1.75196995       0.07692558       1.12271293
H        0.15622089       2.17885889       0.25992995
H        0.76258524      -1.86713052      -0.70317197
11
Frame=8 idx=002656 GeodesicLength=0.7731197107324623 rxn_smarts="[C:1]([n:2]1[c:3]([H:10])[n:4][n:5][c:6]1[H:11])([H:7])([H:8])[H:9]>>[C-:1]([N+:2]1([H:8])[C:3]([H:10])=[N:4][N:5]=[C:6]1[H:11])([H:7])[H:9]"
C       -1.72043852      -0.21980711       0.07562912
N       -0.04638516       0.11617051      -0.36367940
C        0.61980232       1.21255887       0.15554209
N        1.80325429       0.89552432       0.54878635
N        1.99014938      -0.45148965       0.26481697
C        0.91158272      -0.87771023      -0.29591928
H       -1.76216962      -1.31328625       0.01097456
H       -0.97701941       0.28412711      -1.10551015
H       -1.72668483       0.04768538       1.13809696
H        0.15260380       2.18014757       0.25210980
H        0.75530503      -1.87392053      -0.68084701
11
Frame=9 idx=002656 GeodesicLength=0.8692472697806559 rxn_smarts="[C:1]([n:2]1[c:3]([H:10])[n:4][n:5][c:6]1[H:11])([H:7])([H:8])[H:9]>>[C-:1]([N+:2]1([H:8])[C:3]([H:10])=[N:4][N:5]=[C:6]1[H:11])([H:7])[H:9]"
C       -1.69443972      -0.21218040       0.08063291
N       -0.05365415       0.11285820      -0.35634657
C        0.61726907       1.21378269       0.15094835
N        1.80191451       0.89977098       0.54124682
N        1.98734226      -0.45031178       0.26767540
C        0.90650803      -0.88051110      -0.28476916
H       -1.76731746      -1.30072825      -0.02395124
H       -0.99241690       0.29811918      -1.11365435
H       -1.70198156       0.01901611       1.15126799
H        0.14879118       2.18100769       0.24502123
H        0.74798474      -1.88082331      -0.65807138
11
Frame=10 idx=002656 GeodesicLength=0.9653519087990429 rxn_smarts="[C:1]([n:2]1[c:3]([H:10])[n:4][n:5][c:6]1[H:11])([H:7])([H:8])[H:9]>>[C-:1]([N+:2]1([H:8])[C:3]([H:10])=[N:4][N:5]=[C:6]1[H:11])([H:7])[H:9]"
C       -1.66883042      -0.20559342       0.08508603
N       -0.06034040       0.10964270      -0.34979639
C        0.61478809       1.21476514       0.14659049
N        1.80059176       0.90369787       0.53394262
N        1.98487238      -0.44918247       0.27010642
C        0.90190705      -0.88325033      -0.27423286
H       -1.77158038      -1.28716991      -0.05710349
H       -1.00900719       0.31257325      -1.12077573
H       -1.67797149      -0.00906875       1.16229739
H        0.14481265       2.18145596       0.23864698
H        0.74075794      -1.88787005      -0.63476145
11
Frame=11 idx=002656 GeodesicLength=1.0614728340229251 rxn_smarts="[C:1]([n:2]1[c:3]([H:10])[n:4][n:5][c:6]1[H:11])([H:7])([H:8])[H:9]>>[C-:1]([N+:2]1([H:8])[C:3]([H:10])=[N:4][N:5]=[C:6]1[H:11])([H:7])[H:9]"
C       -1.64360704      -0.19993755       0.08894076
N       -0.06646919       0.10646963      -0.34398392
C        0.61237171       1.21551685       0.14241607
N        1.79928807       0.90733182       0.52686876
N        1.98272181      -0.44811505       0.27216726
C        0.89777240      -0.88596202      -0.26427391
H       -1.77497507      -1.27284263      -0.08861755
H       -1.02682980       0.32758975      -1.12685767
H       -1.65461610      -0.03652662       1.17133170
H        0.14069427       2.18151270       0.23290831
H        0.73364895      -1.89503687      -0.61089980
11
Frame=12 idx=002656 GeodesicLength=1.1576524807851472 rxn_smarts="[C:1]([n:2]1[c:3]([H:10])[n:4][n:5][c:6]1[H:11])([H:7])([H:8])[H:9]>>[C-:1]([N+:2]1([H:8])[C:3]([H:10])=[N:4][N:5]=[C:6]1[H:11])([H:7])[H:9]"
C       -1.61876846      -0.19511523       0.09214575
N       -0.07205660       0.10328948      -0.33887402
C        0.61003291       1.21605104       0.13837567
N        1.79799500       0.91068276       0.52004119
N        1.98087154      -0.44713083       0.27390514
C        0.89408800      -0.88869115      -0.25483775
H       -1.77750540      -1.25796244      -0.11857408
H       -1.04592114       0.34324288      -1.13189549
H       -1.63189357      -0.06328788       1.17849650
H        0.13645581       2.18121562       0.22774188
H        0.72670191      -1.90229427      -0.58652478
11
Frame=13 idx=002656 GeodesicLength=1.2538762739266784 rxn_smarts="[C:1]([n:2]1[c:3]([H:10])[n:4][n:5][c:6]1[H:11])([H:7])([H:8])[H:9]>>[C-:1]([N+:2]1([H:8])[C:3]([H:10])=[N:4][N:5]=[C:6]1[H:11])([H:7])[H:9]"
C       -1.59430420      -0.19104889       0.09467792
N       -0.07712138       0.10007690      -0.33444797
C        0.60778486       1.21637145       0.13441138
N        1.79672415       0.91377507       0.51343749
N        1.97930822      -0.44623218       0.27537304
C        0.89084466      -0.89145502      -0.24588530
H       -1.77920320      -1.24267445      -0.14714609
H       -1.06631717       0.35958672      -1.13581869
H       -1.60976924      -0.08934465       1.18390800
H        0.13212223       2.18056132       0.22308599
H        0.71993106      -1.90961626      -0.56159576
11
Frame=14 idx=002656 GeodesicLength=1.35021507959996 rxn_smarts="[C:1]([n:2]1[c:3]([H:10])[n:4][n:5][c:6]1[H:11])([H:7])([H:8])[H:9]>>[C-:1]([N+:2]1([H:8])[C:3]([H:10])=[N:4][N:5]=[C:6]1[H:11])([H:7])[H:9]"
C       -1.57020483      -0.18765214       0.09648564
N       -0.08167523       0.09679131      -0.33068335
C        0.60564392       1.21648816       0.13046990
N        1.79547377       0.91661211       0.50705038
N        1.97801210      -0.44543609       0.27664778
C        0.88802487      -0.89429141      -0.23735705
H       -1.78007631      -1.22715246      -0.17440458
H       -1.08806271       0.37668759      -1.13859989
H       -1.58822406      -0.11466044       1.18766707
H        0.12771428       2.17957870       0.21888571
H        0.71337419      -1.91696533      -0.53616162
11
Frame=15 idx=002656 GeodesicLength=1.4466436874850646 rxn_smarts="[C:1]([n:2]1[c:3]([H:10])[n:4][n:5][c:6]1[H:11])([H:7])([H:8])[H:9]>>[C-:1]([N+:2]1([H:8])[C:3]([H:10])=[N:4][N:5]=[C:6]1[H:11])([H:7])[H:9]"
C       -1.54645411      -0.18485915       0.09753559
N       -0.08572750       0.09341718      -0.32758590
C        0.60362066       1.21640667       0.12649248
N        1.79425282       0.91921537       0.50085214
N        1.97696385      -0.44474833       0.27777999
C        0.88561685      -0.89721507      -0.22921302
H       -1.78014918      -1.21149721      -0.20049870
H       -1.11118309       0.39459014      -1.14014171
H       -1.56722227      -0.13925735       1.18985868
H        0.12324884       2.17826381       0.21509467
H        0.70703312      -1.92431605      -0.51017423
11
Frame=16 idx=002656 GeodesicLength=1.5431776022144272 rxn_smarts="[C:1]([n:2]1[c:3]([H:10])[n:4][n:5][c:6]1[H:11])([H:7])([H:8])[H:9]>>[C-:1]([N+:2]1([H:8])[C:3]([H:10])=[N:4][N:5]=[C:6]1[H:11])([H:7])[H:9]"
C       -1.52303869      -0.18259855       0.09779370
N       -0.08928657       0.08992993      -0.32515658
C        0.60173119       1.21613368       0.12241747
N        1.79306687       0.92159599       0.49482216
N        1.97614263      -0.44418096       0.27885218
C        0.88360355      -0.90025212      -0.22139645
H       -1.77944088      -1.19582756      -0.22553322
H       -1.13571431       0.41332286      -1.14036244
H       -1.54674083      -0.16312833       1.19055786
H        0.11874742       2.17663389       0.21166758
H        0.70092962      -1.93162883      -0.48366227
