9
Frame=0 idx=001204 GeodesicLength=0.0 rxn_smarts="[C:1]([C:2]#[C:3][C:4](=[O:5])[H:9])([H:6])([H:7])[H:8]>>[C:1](=[C:2]=[C:3]([C:4](=[O:5])[H:9])[H:7])([H:6])[H:8]"
C       -1.32696683       0.24194171      -0.28029420
C       -0.29308025       1.16194747      -0.83354729
C        0.27502858       0.42099313       0.13335377
C        1.54280750      -0.34654225       0.18733395
O        2.61284597       0.14357536      -0.01280256
H       -2.01276647       0.59048013       0.48617795
H       -0.52597016      -0.23579416       0.80358410
H       -1.69252996      -0.55681844      -0.92227152
H        1.42063159      -1.41978297       0.43846576
9
Frame=1 idx=001204 GeodesicLength=0.11616061172811543 rxn_smarts="[C:1]([C:2]#[C:3][C:4](=[O:5])[H:9])([H:6])([H:7])[H:8]>>[C:1](=[C:2]=[C:3]([C:4](=[O:5])[H:9])[H:7])([H:6])[H:8]"
C       -1.34691727       0.24521959      -0.28293136
C       -0.29318702       1.14624852      -0.80968715
C        0.28922082       0.39973140       0.13621987
C        1.56625601      -0.34849443       0.18772866
O        2.62806638       0.14991838      -0.03750112
H       -2.03732069       0.60982101       0.47191707
H       -0.54377011      -0.25278367       0.80838583
H       -1.72526916      -0.53328104      -0.94185781
H        1.46292104      -1.41637976       0.46772601
9
Frame=2 idx=001204 GeodesicLength=0.23230086642556858 rxn_smarts="[C:1]([C:2]#[C:3][C:4](=[O:5])[H:9])([H:6])([H:7])[H:8]>>[C:1](=[C:2]=[C:3]([C:4](=[O:5])[H:9])[H:7])([H:6])[H:8]"
C       -1.36778616       0.24887447      -0.28545465
C       -0.29342077       1.12886584      -0.78516542
C        0.30347834       0.37639439       0.13873627
C        1.59047465      -0.35070598       0.18767840
O        2.64303343       0.15672220      -0.06240419
H       -2.06195521       0.63055299       0.45748974
H       -0.56241056      -0.27138029       0.81249774
H       -1.75909796      -0.50767057      -0.96187706
H        1.50768425      -1.41165305       0.49849917
9
Frame=3 idx=001204 GeodesicLength=0.3484127375187014 rxn_smarts="[C:1]([C:2]#[C:3][C:4](=[O:5])[H:9])([H:6])([H:7])[H:8]>>[C:1](=[C:2]=[C:3]([C:4](=[O:5])[H:9])[H:7])([H:6])[H:8]"
C       -1.38962541       0.25297669      -0.28785196
C       -0.29380434       1.10958669      -0.75993937
C        0.31775952       0.35065563       0.14077719
C        1.61547792      -0.35320879       0.18719893
O        2.65766418       0.16403524      -0.08760568
H       -2.08652620       0.65283912       0.44297305
H       -0.58199341      -0.29197608       0.81567607
H       -1.79410091      -0.47966714      -0.98235134
H        1.55514865      -1.40524135       0.53112311
9
Frame=4 idx=001204 GeodesicLength=0.4644839764273091 rxn_smarts="[C:1]([C:2]#[C:3][C:4](=[O:5])[H:9])([H:6])([H:7])[H:8]>>[C:1](=[C:2]=[C:3]([C:4](=[O:5])[H:9])[H:7])([H:6])[H:8]"
C       -1.41249122       0.25758477      -0.29007468
C       -0.29436977       1.08800381      -0.73418004
C        0.33202657       0.32214378       0.14209881
C        1.64128038      -0.35601282       0.18637790
O        2.67189821       0.17205631      -0.11275212
H       -2.11080446       0.67701816       0.42844786
H       -0.60261312      -0.31483524       0.81773583
H       -1.83039012      -0.44909120      -1.00307224
H        1.60546353      -1.39686757       0.56541869
9
Frame=5 idx=001204 GeodesicLength=0.5805061416261976 rxn_smarts="[C:1]([C:2]#[C:3][C:4](=[O:5])[H:9])([H:6])([H:7])[H:8]>>[C:1](=[C:2]=[C:3]([C:4](=[O:5])[H:9])[H:7])([H:6])[H:8]"
C       -1.43641870       0.26274546      -0.29205854
C       -0.29515245       1.06362256      -0.70812958
C        0.34623812       0.29045693       0.14242024
C        1.66790145      -0.35903804       0.18549654
O        2.68566748       0.18102915      -0.13743264
H       -2.13450166       0.70349444       0.41395668
H       -0.62438303      -0.34014721       0.81854280
H       -1.86802314      -0.41584931      -1.02374153
H        1.65867195      -1.38631398       0.60094603
9
Frame=6 idx=001204 GeodesicLength=0.6964578934416824 rxn_smarts="[C:1]([C:2]#[C:3][C:4](=[O:5])[H:9])([H:6])([H:7])[H:8]>>[C:1](=[C:2]=[C:3]([C:4](=[O:5])[H:9])[H:7])([H:6])[H:8]"
C       -1.46144643       0.26856314      -0.29373503
C       -0.29619906       1.03594047      -0.68202159
C        0.36033450       0.25501379       0.14131736
C        1.69536692      -0.36219905       0.18474925
O        2.69887288       0.19122380      -0.16136740
H       -2.15716895       0.73265036       0.39970023
H       -0.64741971      -0.36843599       0.81769013
H       -1.90719587      -0.37961065      -1.04412962
H        1.71485572      -1.37314587       0.63779667
9
Frame=7 idx=001204 GeodesicLength=0.8123068158545979 rxn_smarts="[C:1]([C:2]#[C:3][C:4](=[O:5])[H:9])([H:6])([H:7])[H:8]>>[C:1](=[C:2]=[C:3]([C:4](=[O:5])[H:9])[H:7])([H:6])[H:8]"
C       -1.48760563       0.27514437      -0.29496692
C       -0.29757590       1.00416394      -0.65645298
C        0.37426570       0.21506467       0.13806803
C        1.72368656      -0.36540204       0.18424741
O        2.71147370       0.20327412      -0.18354688
H       -2.17811679       0.76512477       0.38593159
H       -0.67180199      -0.40010167       0.81478841
H       -1.94824359      -0.34020656      -1.06366630
H        1.77391793      -1.35706160       0.67559765
9
Frame=8 idx=001204 GeodesicLength=0.9280326876496068 rxn_smarts="[C:1]([C:2]#[C:3][C:4](=[O:5])[H:9])([H:6])([H:7])[H:8]>>[C:1](=[C:2]=[C:3]([C:4](=[O:5])[H:9])[H:7])([H:6])[H:8]"
C       -1.51483055       0.28252389      -0.29557360
C       -0.29935886       0.96731142      -0.63224356
C        0.38799495       0.16986199       0.13186602
C        1.75286362      -0.36814593       0.18475695
O        2.72339480       0.21798871      -0.20279027
H       -2.19651466       0.80169080       0.37267566
H       -0.69761022      -0.43507624       0.80981087
H       -1.99131681      -0.29787391      -1.08152939
H        1.83537774      -1.33828073       0.71302733
9
Frame=9 idx=001204 GeodesicLength=1.0436606737953857 rxn_smarts="[C:1]([C:2]#[C:3][C:4](=[O:5])[H:9])([H:6])([H:7])[H:8]>>[C:1](=[C:2]=[C:3]([C:4](=[O:5])[H:9])[H:7])([H:6])[H:8]"
C       -1.54288087       0.29074063      -0.29539782
C       -0.30168363       0.92502056      -0.60942486
C        0.40153816       0.11884713       0.12212023
C        1.78269413      -0.36972413       0.18709811
O        2.73428742       0.23538405      -0.21943778
H       -2.21165166       0.84242259       0.35995575
H       -0.72491019      -0.47357087       0.80259314
H       -2.03593506      -0.25255367      -1.09746935
H        1.89854168      -1.31656629       0.74996259
9
Frame=10 idx=001204 GeodesicLength=1.1589125257521753 rxn_smarts="[C:1]([C:2]#[C:3][C:4](=[O:5])[H:9])([H:6])([H:7])[H:8]>>[C:1](=[C:2]=[C:3]([C:4](=[O:5])[H:9])[H:7])([H:6])[H:8]"
C       -1.57147998       0.30006171      -0.29419150
C       -0.30470140       0.87663143      -0.58844983
C        0.41485376       0.06068634       0.10724966
C        1.81279334      -0.36948584       0.19182178
O        2.74356803       0.25548628      -0.23393792
H       -2.22185026       0.88740340       0.34881248
H       -0.75357027      -0.51746177       0.79133322
H       -2.08252764      -0.20300063      -1.11109523
H        1.96291442      -1.29032092       0.78845734
9
Frame=11 idx=001204 GeodesicLength=1.2739645639943527 rxn_smarts="[C:1]([C:2]#[C:3][C:4](=[O:5])[H:9])([H:6])([H:7])[H:8]>>[C:1](=[C:2]=[C:3]([C:4](=[O:5])[H:9])[H:7])([H:6])[H:8]"
C       -1.59981441       0.31022638      -0.29178850
C       -0.30861993       0.82354081      -0.56732983
C        0.42836519      -0.00281263       0.08845399
C        1.84214661      -0.36582109       0.20040905
O        2.75060162       0.27510797      -0.25054091
H       -2.22732230       0.93464190       0.33917766
H       -0.78349079      -0.56747113       0.77543027
H       -2.12825777      -0.14914726      -1.12329881
H        2.02639178      -1.25826493       0.82948708
9
Frame=12 idx=001204 GeodesicLength=1.3885329405456273 rxn_smarts="[C:1]([C:2]#[C:3][C:4](=[O:5])[H:9])([H:6])([H:7])[H:8]>>[C:1](=[C:2]=[C:3]([C:4](=[O:5])[H:9])[H:7])([H:6])[H:8]"
C       -1.62720426       0.32096103      -0.28790904
C       -0.31366657       0.76569171      -0.54644498
C        0.44260457      -0.06793561       0.06872614
C        1.86961969      -0.35824121       0.21248492
O        2.75534481       0.29267730      -0.27025882
H       -2.22735675       0.98364362       0.33085920
H       -0.81451197      -0.62474673       0.75334792
H       -2.17179156      -0.09195017      -1.13338139
H        2.08696205      -1.22009993       0.87257605
9
Frame=13 idx=001204 GeodesicLength=1.503114751744386 rxn_smarts="[C:1]([C:2]#[C:3][C:4](=[O:5])[H:9])([H:6])([H:7])[H:8]>>[C:1](=[C:2]=[C:3]([C:4](=[O:5])[H:9])[H:7])([H:6])[H:8]"
C       -1.65324535       0.33137323      -0.28258841
C       -0.32034980       0.70387474      -0.52471863
C        0.45830307      -0.12889450       0.05452015
C        1.89459314      -0.34412416       0.22939513
O        2.75808180       0.30731017      -0.29217903
H       -2.22401822       1.03477167       0.31916484
H       -0.84702215      -0.68462131       0.72959652
H       -2.20954027      -0.03699179      -1.14107846
H        2.14319779      -1.18269804       0.90788788
9
Frame=14 idx=001204 GeodesicLength=1.6173215219330057 rxn_smarts="[C:1]([C:2]#[C:3][C:4](=[O:5])[H:9])([H:6])([H:7])[H:8]>>[C:1](=[C:2]=[C:3]([C:4](=[O:5])[H:9])[H:7])([H:6])[H:8]"
C       -1.67813360       0.34239837      -0.27526476
C       -0.32904906       0.63440668      -0.50632785
C        0.47493142      -0.18513880       0.04837250
C        1.91757779      -0.33610530       0.23628723
O        2.75832352       0.32779982      -0.30737147
H       -2.21267662       1.09145685       0.30464747
H       -0.88238584      -0.74968788       0.70121791
H       -2.24566712       0.01641166      -1.14365511
H        2.19707952      -1.14154141       0.94209409
9
Frame=15 idx=001204 GeodesicLength=1.7315948054440704 rxn_smarts="[C:1]([C:2]#[C:3][C:4](=[O:5])[H:9])([H:6])([H:7])[H:8]>>[C:1](=[C:2]=[C:3]([C:4](=[O:5])[H:9])[H:7])([H:6])[H:8]"
C       -1.70168842       0.35412855      -0.26607639
C       -0.34002994       0.56016628      -0.48568448
C        0.49188027      -0.23787785       0.05093629
C        1.93886631      -0.32566971       0.24431610
O        2.75516720       0.34684684      -0.32698013
H       -2.19522914       1.15055368       0.28704873
H       -0.92201755      -0.82119538       0.66669760
H       -2.27693297       0.07016096      -1.14444210
H        2.24998423      -1.09711335       0.97418438
9
Frame=16 idx=001204 GeodesicLength=1.8455492304656709 rxn_smarts="[C:1]([C:2]#[C:3][C:4](=[O:5])[H:9])([H:6])([H:7])[H:8]>>[C:1](=[C:2]=[C:3]([C:4](=[O:5])[H:9])[H:7])([H:6])[H:8]"
C       -1.72368418       0.36617854      -0.25563853
C       -0.35354068       0.48451434      -0.45770787
C        0.50820311      -0.28442292       0.06673791
C        1.95837998      -0.31285573       0.25267261
O        2.74749646       0.36502933      -0.35031698
H       -2.17482070       1.21063145       0.26187982
H       -0.96643741      -0.89400816       0.63132835
H       -2.29899193       0.12045985      -1.14573374
H        2.30339535      -1.05552671       0.99677843
