13
Frame=0 idx=003275 GeodesicLength=0.0 rxn_smarts="[C:1]([C@@:2]1([C:5](=[O:6])[H:13])[C:3]([H:10])([H:11])[N:4]1[H:12])([H:7])([H:8])[H:9]>>[C:1]([C@@:2]1([C:5]#[O+:6])[C-:3]([H:10])[N:4]1[H:12])([H:7])([H:8])[H:9].[H:11][H:13]"
C        1.35646091      -0.72563723      -0.21798164
C       -0.03518615      -0.21130916      -0.43084778
C       -0.34838586       1.22540215       0.01513120
N       -0.20875028       0.89972976      -1.35413211
C       -1.08844221      -0.71583065       0.39085618
O       -2.08967368      -1.28327027       0.53424577
H        1.53409470      -1.62419461      -0.81021800
H        2.06202907       0.04714731      -0.51807839
H        1.51962135      -0.96625909       0.83389570
H       -1.38921834       1.41986085       0.31775981
H        0.07461569       0.88495262       1.36318209
H       -1.04989922       0.97441656      -1.91539185
H       -0.33726599       0.07499170       1.79157904
13
Frame=1 idx=003275 GeodesicLength=0.06823587621766607 rxn_smarts="[C:1]([C@@:2]1([C:5](=[O:6])[H:13])[C:3]([H:10])([H:11])[N:4]1[H:12])([H:7])([H:8])[H:9]>>[C:1]([C@@:2]1([C:5]#[O+:6])[C-:3]([H:10])[N:4]1[H:12])([H:7])([H:8])[H:9].[H:11][H:13]"
C        1.36183956      -0.72556840      -0.21932755
C       -0.02968042      -0.20794964      -0.42498584
C       -0.33981865       1.23232889       0.01417877
N       -0.21590665       0.89461905      -1.35565284
C       -1.08285450      -0.72218236       0.39118317
O       -2.09991218      -1.26943075       0.50589239
H        1.53368873      -1.62310858      -0.81484085
H        2.06687709       0.04725621      -0.52071134
H        1.53201544      -0.96877550       0.83087760
H       -1.37926519       1.43416704       0.31638700
H        0.07221820       0.89737803       1.37677717
H       -1.06930442       0.94551969      -1.90186104
H       -0.34989700       0.06574631       1.80208334
13
Frame=2 idx=003275 GeodesicLength=0.13629649703044366 rxn_smarts="[C:1]([C@@:2]1([C:5](=[O:6])[H:13])[C:3]([H:10])([H:11])[N:4]1[H:12])([H:7])([H:8])[H:9]>>[C:1]([C@@:2]1([C:5]#[O+:6])[C-:3]([H:10])[N:4]1[H:12])([H:7])([H:8])[H:9].[H:11][H:13]"
C        1.36701017      -0.72559440      -0.22076489
C       -0.02436144      -0.20461029      -0.41911553
C       -0.33139373       1.23926348       0.01298132
N       -0.22308830       0.88936373      -1.35709264
C       -1.07744963      -0.72870587       0.39137902
O       -2.10877282      -1.25594008       0.47846964
H        1.53301811      -1.62206524      -0.81957439
H        2.07157741       0.04725006      -0.52333770
H        1.54421048      -0.97149159       0.82768858
H       -1.36942039       1.44856911       0.31463461
H        0.06951201       0.91029339       1.39020487
H       -1.08781016       0.91738340      -1.88791935
H       -0.36303173       0.05628429       1.81244645
13
Frame=3 idx=003275 GeodesicLength=0.20425456574888162 rxn_smarts="[C:1]([C@@:2]1([C:5](=[O:6])[H:13])[C:3]([H:10])([H:11])[N:4]1[H:12])([H:7])([H:8])[H:9]>>[C:1]([C@@:2]1([C:5]#[O+:6])[C-:3]([H:10])[N:4]1[H:12])([H:7])([H:8])[H:9].[H:11][H:13]"
C        1.37198114      -0.72571003      -0.22229089
C       -0.01921779      -0.20128122      -0.41322946
C       -0.32309997       1.24621240       0.01154692
N       -0.23027428       0.88398002      -1.35844270
C       -1.07220724      -0.73539180       0.39144437
O       -2.11635976      -1.24283867       0.45198176
H        1.53209222      -1.62105469      -0.82442002
H        2.07614075       0.04713188      -0.52595418
H        1.55621972      -0.97440630       0.82432616
H       -1.35967108       1.46307374       0.31250668
H        0.06653388       0.92374106       1.40346098
H       -1.10545779       0.88999102      -1.87360986
H       -0.37667978       0.04655261       1.82268025
13
Frame=4 idx=003275 GeodesicLength=0.27214872675259044 rxn_smarts="[C:1]([C@@:2]1([C:5](=[O:6])[H:13])[C:3]([H:10])([H:11])[N:4]1[H:12])([H:7])([H:8])[H:9]>>[C:1]([C@@:2]1([C:5]#[O+:6])[C-:3]([H:10])[N:4]1[H:12])([H:7])([H:8])[H:9].[H:11][H:13]"
C        1.37676056      -0.72591047      -0.22390203
C       -0.01423874      -0.19795603      -0.40732026
C       -0.31492766       1.25317971       0.00988139
N       -0.23744633       0.87847774      -1.35969737
C       -1.06710893      -0.74223390       0.39138078
O       -2.12277056      -1.23016036       0.42642985
H        1.53092059      -1.62006753      -0.82937751
H        2.08057738       0.04690544      -0.52855663
H        1.56805541      -0.97751862       0.82079027
H       -1.35000634       1.47768297       0.31000802
H        0.06331870       0.93776226       1.41653929
H       -1.12228728       0.86333660      -1.85897130
H       -0.39084680       0.03650218       1.83279551
13
Frame=5 idx=003275 GeodesicLength=0.3400702496578362 rxn_smarts="[C:1]([C@@:2]1([C:5](=[O:6])[H:13])[C:3]([H:10])([H:11])[N:4]1[H:12])([H:7])([H:8])[H:9]>>[C:1]([C@@:2]1([C:5]#[O+:6])[C-:3]([H:10])[N:4]1[H:12])([H:7])([H:8])[H:9].[H:11][H:13]"
C        1.38135493      -0.72618963      -0.22559375
C       -0.00941548      -0.19462516      -0.40137552
C       -0.30686936       1.26017206       0.00799054
N       -0.24459071       0.87286680      -1.36084970
C       -1.06213640      -0.74922459       0.39119456
O       -2.12810143      -1.21793085       0.40179632
H        1.52950962      -1.61909419      -0.83444532
H        2.08489487       0.04657606      -0.53114282
H        1.57973091      -0.98082599       0.81708100
H       -1.34041514       1.49240234       0.30714356
H        0.05991858       0.95241690       1.42943056
H       -1.13833623       0.83739629      -1.84403640
H       -0.40554416       0.02605995       1.84280699
13
Frame=6 idx=003275 GeodesicLength=0.4080264345585834 rxn_smarts="[C:1]([C@@:2]1([C:5](=[O:6])[H:13])[C:3]([H:10])([H:11])[N:4]1[H:12])([H:7])([H:8])[H:9]>>[C:1]([C@@:2]1([C:5]#[O+:6])[C-:3]([H:10])[N:4]1[H:12])([H:7])([H:8])[H:9].[H:11][H:13]"
C        1.38577195      -0.72654329      -0.22736096
C       -0.00473902      -0.19128638      -0.39538591
C       -0.29891923       1.26718983       0.00587859
N       -0.25169450       0.86715054      -1.36189532
C       -1.05727372      -0.75636253       0.39089026
O       -2.13244043      -1.20616992       0.37806765
H        1.52786992      -1.61812724      -0.83961912
H        2.08910068       0.04614764      -0.53370960
H        1.59125866      -0.98432592       0.81319975
H       -1.33089047       1.50722889       0.30391601
H        0.05637316       0.96775366       1.44212366
H       -1.15364249       0.81217143      -1.82883114
H       -0.42077449       0.01517329       1.85272613
13
Frame=7 idx=003275 GeodesicLength=0.4760837136121988 rxn_smarts="[C:1]([C@@:2]1([C:5](=[O:6])[H:13])[C:3]([H:10])([H:11])[N:4]1[H:12])([H:7])([H:8])[H:9]>>[C:1]([C@@:2]1([C:5]#[O+:6])[C-:3]([H:10])[N:4]1[H:12])([H:7])([H:8])[H:9].[H:11][H:13]"
C        1.39001766      -0.72696510      -0.22919711
C       -0.00020246      -0.18793333      -0.38933675
C       -0.29107327       1.27423614       0.00354864
N       -0.25874888       0.86133166      -1.36282861
C       -1.05250532      -0.76364598       0.39047337
O       -2.13587682      -1.19489040       0.35521729
H        1.52600846      -1.61715789      -0.84489394
H        2.09319997       0.04562579      -0.53625435
H        1.60265190      -0.98801384       0.80914905
H       -1.32142548       1.52216231       0.30033044
H        0.05274277       0.98384305       1.45460181
H       -1.16824013       0.78764684      -1.81337885
H       -0.43654842       0.00376076       1.86256902
13
Frame=8 idx=003275 GeodesicLength=0.5442329346241567 rxn_smarts="[C:1]([C@@:2]1([C:5](=[O:6])[H:13])[C:3]([H:10])([H:11])[N:4]1[H:12])([H:7])([H:8])[H:9]>>[C:1]([C@@:2]1([C:5]#[O+:6])[C-:3]([H:10])[N:4]1[H:12])([H:7])([H:8])[H:9].[H:11][H:13]"
C        1.39409718      -0.72745154      -0.23109618
C        0.00419796      -0.18456216      -0.38321655
C       -0.28332767       1.28131286       0.00100101
N       -0.26574333       0.85541274      -1.36364498
C       -1.04781857      -0.77107197       0.38994969
O       -2.13848211      -1.18409871       0.33322592
H        1.52393303      -1.61618055      -0.85026558
H        2.09719727       0.04501504      -0.53877177
H        1.61392215      -0.99188905       0.80493131
H       -1.31201668       1.53720014       0.29638576
H        0.04906351       1.00074574       1.46685491
H       -1.18216197       0.76381763      -1.79770053
H       -0.45286077      -0.00825017       1.87234698
13
Frame=9 idx=003275 GeodesicLength=0.6126175291882219 rxn_smarts="[C:1]([C@@:2]1([C:5](=[O:6])[H:13])[C:3]([H:10])([H:11])[N:4]1[H:12])([H:7])([H:8])[H:9]>>[C:1]([C@@:2]1([C:5]#[O+:6])[C-:3]([H:10])[N:4]1[H:12])([H:7])([H:8])[H:9].[H:11][H:13]"
C        1.39800864      -0.72799288      -0.23304234
C        0.00846962      -0.18116861      -0.37699330
C       -0.27569106       1.28842034      -0.00175585
N       -0.27268341       0.84937847      -1.36434104
C       -1.04320967      -0.77864920       0.38932542
O       -2.14034779      -1.17380766       0.31200551
H        1.52164291      -1.61517747      -0.85571982
H        2.10108941       0.04432529      -0.54125126
H        1.62507063      -0.99594730       0.80055600
H       -1.30266680       1.55231975       0.29209441
H        0.04547839       1.01858847       1.47883168
H       -1.19544457       0.74067736      -1.78181826
H       -0.46971631      -0.02096656       1.88210882
13
Frame=10 idx=003275 GeodesicLength=0.6810793953109797 rxn_smarts="[C:1]([C@@:2]1([C:5](=[O:6])[H:13])[C:3]([H:10])([H:11])[N:4]1[H:12])([H:7])([H:8])[H:9]>>[C:1]([C@@:2]1([C:5]#[O+:6])[C-:3]([H:10])[N:4]1[H:12])([H:7])([H:8])[H:9].[H:11][H:13]"
C        1.40176027      -0.72858735      -0.23503676
C        0.01261353      -0.17774574      -0.37066879
C       -0.26815082       1.29556339      -0.00472302
N       -0.27954697       0.84324900      -1.36490847
C       -1.03865956      -0.78636705       0.38860270
O       -2.14152756      -1.16401078       0.29158836
H        1.51914840      -1.61414739      -0.86126150
H        2.10488551       0.04355820      -0.54369147
H        1.63611240      -1.00018917       0.79601794
H       -1.29336709       1.56753783       0.28744946
H        0.04196032       1.03739067       1.49055064
H       -1.20811065       0.71819868      -1.76575312
H       -0.48711778      -0.03445029       1.89183404
13
Frame=11 idx=003275 GeodesicLength=0.7496196913939067 rxn_smarts="[C:1]([C@@:2]1([C:5](=[O:6])[H:13])[C:3]([H:10])([H:11])[N:4]1[H:12])([H:7])([H:8])[H:9]>>[C:1]([C@@:2]1([C:5]#[O+:6])[C-:3]([H:10])[N:4]1[H:12])([H:7])([H:8])[H:9].[H:11][H:13]"
C        1.40535275      -0.72922598      -0.23706986
C        0.01663498      -0.17428678      -0.36422578
C       -0.26070582       1.30274630      -0.00789711
N       -0.28632825       0.83702282      -1.36534348
C       -1.03416018      -0.79422630       0.38778372
O       -2.14209152      -1.15471044       0.27193889
H        1.51645145      -1.61307755      -0.86688140
H        2.10858643       0.04272119      -0.54608679
H        1.64705018      -1.00460894       0.79132183
H       -1.28411298       1.58285031       0.28246006
H        0.03859022       1.05723396       1.50198758
H       -1.22018921       0.69636023      -1.74952611
H       -0.50507803      -0.04879884       1.90153846
13
Frame=12 idx=003275 GeodesicLength=0.8181976731277305 rxn_smarts="[C:1]([C@@:2]1([C:5](=[O:6])[H:13])[C:3]([H:10])([H:11])[N:4]1[H:12])([H:7])([H:8])[H:9]>>[C:1]([C@@:2]1([C:5]#[O+:6])[C-:3]([H:10])[N:4]1[H:12])([H:7])([H:8])[H:9].[H:11][H:13]"
C        1.40878631      -0.72990289      -0.23913220
C        0.02053531      -0.17078612      -0.35764872
C       -0.25335634       1.30997242      -0.01127583
N       -0.29301867       0.83070178      -1.36564124
C       -1.02970543      -0.80222461       0.38687171
O       -2.14209701      -1.14590199       0.25303030
H        1.51355455      -1.61195767      -0.87257328
H        2.11219280       0.04182053      -0.54842719
H        1.65788641      -1.00920562       0.78647093
H       -1.27490481       1.59825454       0.27712486
H        0.03542869       1.07819924       1.51312354
H       -1.23170705       0.67514366      -1.73315591
H       -0.52359476      -0.06411326       1.91123304
13
Frame=13 idx=003275 GeodesicLength=0.8867804041591971 rxn_smarts="[C:1]([C@@:2]1([C:5](=[O:6])[H:13])[C:3]([H:10])([H:11])[N:4]1[H:12])([H:7])([H:8])[H:9]>>[C:1]([C@@:2]1([C:5]#[O+:6])[C-:3]([H:10])[N:4]1[H:12])([H:7])([H:8])[H:9].[H:11][H:13]"
C        1.41205967      -0.73061102      -0.24121349
C        0.02431518      -0.16723635      -0.35091997
C       -0.24610221       1.31724626      -0.01485856
N       -0.29961193       0.82428538      -1.36579709
C       -1.02528986      -0.81036109       0.38586787
O       -2.14160001      -1.13758014       0.23483049
H        1.51045876      -1.61077656      -0.87832960
H        2.11570418       0.04086285      -0.55070183
H        1.66862240      -1.01397750       0.78146968
H       -1.26574192       1.61374785       0.27144143
H        0.03254699       1.10037684       1.52393771
H       -1.24269140       0.65452835      -1.71665736
H       -0.54266985      -0.08050487       1.92093072
13
Frame=14 idx=003275 GeodesicLength=0.955311594171538 rxn_smarts="[C:1]([C@@:2]1([C:5](=[O:6])[H:13])[C:3]([H:10])([H:11])[N:4]1[H:12])([H:7])([H:8])[H:9]>>[C:1]([C@@:2]1([C:5]#[O+:6])[C-:3]([H:10])[N:4]1[H:12])([H:7])([H:8])[H:9].[H:11][H:13]"
C        1.41517120      -0.73134389      -0.24330184
C        0.02797386      -0.16363316      -0.34402259
C       -0.23894565       1.32456949      -0.01864610
N       -0.30610365       0.81777000      -1.36580880
C       -1.02091112      -0.81863677       0.38477157
O       -2.14065274      -1.12973764       0.21731188
H        1.50716634      -1.60952481      -0.88413953
H        2.11911863       0.03985518      -0.55289977
H        1.67925795      -1.01892178       0.77632551
H       -1.25662762       1.62932231       0.26541142
H        0.03001574       1.12386091       1.53440119
H       -1.25316323       0.63450825      -1.70004541
H       -0.56229970      -0.09808811       1.93064247
13
Frame=15 idx=003275 GeodesicLength=1.0237468741188391 rxn_smarts="[C:1]([C@@:2]1([C:5](=[O:6])[H:13])[C:3]([H:10])([H:11])[N:4]1[H:12])([H:7])([H:8])[H:9]>>[C:1]([C@@:2]1([C:5]#[O+:6])[C-:3]([H:10])[N:4]1[H:12])([H:7])([H:8])[H:9].[H:11][H:13]"
C        1.41811736      -0.73209410      -0.24538395
C        0.03150906      -0.15996993      -0.33693713
C       -0.23188985       1.33194515      -0.02263889
N       -0.31248939       0.81115326      -1.36567166
C       -1.01656738      -0.82705360       0.38357907
O       -2.13930566      -1.12236348       0.20044412
H        1.50367776      -1.60819000      -0.88999372
H        2.12243343       0.03880492      -0.55500538
H        1.68979023      -1.02403764       0.77104554
H       -1.24756581       1.64497185       0.25903159
H        0.02791641       1.14875762       1.54448433
H       -1.26314497       0.61506775      -1.68333365
H       -0.58248119      -0.11699180       1.94037971
13
Frame=16 idx=003275 GeodesicLength=1.0920316929649134 rxn_smarts="[C:1]([C@@:2]1([C:5](=[O:6])[H:13])[C:3]([H:10])([H:11])[N:4]1[H:12])([H:7])([H:8])[H:9]>>[C:1]([C@@:2]1([C:5]#[O+:6])[C-:3]([H:10])[N:4]1[H:12])([H:7])([H:8])[H:9].[H:11][H:13]"
C        1.42089385      -0.73285452      -0.24744493
C        0.03491796      -0.15624034      -0.32964468
C       -0.22493786       1.33937619      -0.02684055
N       -0.31876524       0.80443028      -1.36538370
C       -1.01225950      -0.83561239       0.38228678
O       -2.13760493      -1.11544793       0.18419676
H        1.49999321      -1.60676169      -0.89587878
H        2.12564525       0.03771891      -0.55700280
H        1.70021453      -1.02932231       0.76563923
H       -1.23856136       1.66068865       0.25229918
H        0.02632947       1.17517688       1.55415221
H       -1.27265881       0.59620122      -1.66653220
H       -0.60320657      -0.13735295       1.95015347
