13
Frame=0 idx=002190 GeodesicLength=0.0 rxn_smarts="[C:1]([N:2]([C:3](=[O:4])[C:5]([O:6][H:13])([H:11])[H:12])[H:10])([H:7])([H:8])[H:9]>>[C:1]([N:2]([C-:3]=[O+:4][C:5]([O:6][H:13])([H:11])[H:12])[H:10])([H:7])([H:8])[H:9]"
C        2.11231366      -0.00487612      -0.14342523
N        0.85349112       0.45837638      -0.70266470
C       -0.27684481       0.66389633      -0.00902213
O       -0.23101001       0.42535492       1.25110295
C       -1.88199630      -0.24090207       0.63370524
O       -2.20510924      -0.99109254      -0.44234532
H        2.82655388       0.81261418      -0.02213975
H        1.91138479      -0.43308286       0.83603425
H        2.55169135      -0.76798972      -0.78709790
H        0.83279706       0.71337211      -1.67340764
H       -2.42159726       0.68241118       0.78295678
H       -1.84028920      -0.91025402       1.48583426
H       -2.23138507      -0.40782771      -1.20953077
13
Frame=1 idx=002190 GeodesicLength=0.03206897307391399 rxn_smarts="[C:1]([N:2]([C:3](=[O:4])[C:5]([O:6][H:13])([H:11])[H:12])[H:10])([H:7])([H:8])[H:9]>>[C:1]([N:2]([C-:3]=[O+:4][C:5]([O:6][H:13])([H:11])[H:12])[H:10])([H:7])([H:8])[H:9]"
C        2.11511348       0.00128738      -0.14164393
N        0.84929517       0.45455367      -0.69166632
C       -0.27452153       0.66627427       0.00893075
O       -0.23198254       0.40476215       1.26333131
C       -1.87554086      -0.24591290       0.62711291
O       -2.19989161      -0.97765342      -0.46479566
H        2.84157408       0.81464237      -0.08136203
H        1.94263549      -0.37760986       0.86312159
H        2.52773937      -0.79852805      -0.75805974
H        0.81515300       0.69480453      -1.66592808
H       -2.42245453       0.67161235       0.79108780
H       -1.85170932      -0.93020501       1.46852780
H       -2.23541021      -0.37802747      -1.21865640
13
Frame=2 idx=002190 GeodesicLength=0.06412216800833037 rxn_smarts="[C:1]([N:2]([C:3](=[O:4])[C:5]([O:6][H:13])([H:11])[H:12])[H:10])([H:7])([H:8])[H:9]>>[C:1]([N:2]([C-:3]=[O+:4][C:5]([O:6][H:13])([H:11])[H:12])[H:10])([H:7])([H:8])[H:9]"
C        2.11810185       0.00796993      -0.13973502
N        0.84533474       0.45074312      -0.68072646
C       -0.27194380       0.66765966       0.02704739
O       -0.23234575       0.38195562       1.27501492
C       -1.86907677      -0.25114199       0.62044984
O       -2.19526500      -0.96300525      -0.48752176
H        2.85499220       0.81401078      -0.14186327
H        1.97458819      -0.31845096       0.88767913
H        2.50432373      -0.82786482      -0.72479404
H        0.79732748       0.67507326      -1.65831207
H       -2.42267820       0.66050426       0.79978280
H       -1.86329622      -0.95071291       1.45007927
H       -2.24006244      -0.34674071      -1.22710073
13
Frame=3 idx=002190 GeodesicLength=0.09606769638304573 rxn_smarts="[C:1]([N:2]([C:3](=[O:4])[C:5]([O:6][H:13])([H:11])[H:12])[H:10])([H:7])([H:8])[H:9]>>[C:1]([N:2]([C-:3]=[O+:4][C:5]([O:6][H:13])([H:11])[H:12])[H:10])([H:7])([H:8])[H:9]"
C        2.12139094       0.01520752      -0.13772282
N        0.84164864       0.44649660      -0.67007678
C       -0.26908153       0.66773477       0.04511347
O       -0.23196721       0.35676427       1.28591430
C       -1.86268990      -0.25649902       0.61378218
O       -2.19161184      -0.94706335      -0.51031793
H        2.86643204       0.81089603      -0.20278977
H        2.00690443      -0.25609355       0.90914447
H        2.48233745      -0.85528446      -0.68741105
H        0.77956798       0.65409310      -1.65065249
H       -2.42217823       0.64929815       0.80911123
H       -1.87516897      -0.97154978       1.43060234
H       -2.24558380      -0.31400029      -1.23469714
13
Frame=4 idx=002190 GeodesicLength=0.12804891926254672 rxn_smarts="[C:1]([N:2]([C:3](=[O:4])[C:5]([O:6][H:13])([H:11])[H:12])[H:10])([H:7])([H:8])[H:9]>>[C:1]([N:2]([C-:3]=[O+:4][C:5]([O:6][H:13])([H:11])[H:12])[H:10])([H:7])([H:8])[H:9]"
C        2.12470394       0.02271822      -0.13556475
N        0.83812637       0.44259194      -0.65979481
C       -0.26610410       0.66717225       0.06298469
O       -0.23092911       0.33020104       1.29591457
C       -1.85609781      -0.26207322       0.60710937
O       -2.18827738      -0.93019285      -0.53305345
H        2.87622203       0.80455991      -0.26352253
H        2.03888487      -0.19125853       0.92729223
H        2.46111438      -0.88100700      -0.64607603
H        0.76179358       0.63263690      -1.64305789
H       -2.42116202       0.63761241       0.81893867
H       -1.88662612      -0.99267362       1.41018371
H       -2.25164865      -0.28028746      -1.24135378
13
Frame=5 idx=002190 GeodesicLength=0.15962864247929487 rxn_smarts="[C:1]([N:2]([C:3](=[O:4])[C:5]([O:6][H:13])([H:11])[H:12])[H:10])([H:7])([H:8])[H:9]>>[C:1]([N:2]([C-:3]=[O+:4][C:5]([O:6][H:13])([H:11])[H:12])[H:10])([H:7])([H:8])[H:9]"
C        2.12555825       0.02843373      -0.13377629
N        0.83470629       0.44352359      -0.64973597
C       -0.26375392       0.66950655       0.08006380
O       -0.22989340       0.30882690       1.30518602
C       -1.84767645      -0.26775203       0.60081849
O       -2.18064233      -0.91615740      -0.55391851
H        2.88462452       0.79063392      -0.32023730
H        2.06595955      -0.13026954       0.94046581
H        2.43570710      -0.90548369      -0.60495430
H        0.74541340       0.61787520      -1.63480975
H       -2.42084275       0.62437870       0.82691928
H       -1.89451639      -1.01202758       1.39103388
H       -2.25464387      -0.25148835      -1.24705516
13
Frame=6 idx=002190 GeodesicLength=0.19121528624860182 rxn_smarts="[C:1]([N:2]([C:3](=[O:4])[C:5]([O:6][H:13])([H:11])[H:12])[H:10])([H:7])([H:8])[H:9]>>[C:1]([N:2]([C-:3]=[O+:4][C:5]([O:6][H:13])([H:11])[H:12])[H:10])([H:7])([H:8])[H:9]"
C        2.12598740       0.03376893      -0.13195389
N        0.83131434       0.44554634      -0.64027243
C       -0.26152571       0.67206154       0.09655621
O       -0.22836403       0.28829116       1.31360573
C       -1.83875401      -0.27342652       0.59469189
O       -2.17244937      -0.90241084      -0.57404077
H        2.89142744       0.77334712      -0.37449301
H        2.09178314      -0.07023321       0.95017389
H        2.41034111      -0.92789502      -0.56202592
H        0.72934749       0.60477007      -1.62676792
H       -2.42035693       0.61073877       0.83455653
H       -1.90121908      -1.03083326       1.37189065
H       -2.25753180      -0.22372508      -1.25192096
13
Frame=7 idx=002190 GeodesicLength=0.222949582339041 rxn_smarts="[C:1]([N:2]([C:3](=[O:4])[C:5]([O:6][H:13])([H:11])[H:12])[H:10])([H:7])([H:8])[H:9]>>[C:1]([N:2]([C-:3]=[O+:4][C:5]([O:6][H:13])([H:11])[H:12])[H:10])([H:7])([H:8])[H:9]"
C        2.12715372       0.03996192      -0.12990925
N        0.82821371       0.44551183      -0.63145081
C       -0.25885492       0.67260675       0.11268159
O       -0.22603843       0.26505087       1.32096553
C       -1.83019228      -0.27908692       0.58854129
O       -2.16624600      -0.88660243      -0.59433852
H        2.89603658       0.75502769      -0.42788396
H        2.11756336      -0.00804461       0.95672480
H        2.38857428      -0.94675423      -0.51540747
H        0.71355727       0.58855612      -1.61904012
H       -2.41895976       0.59729941       0.84329902
H       -1.90846260      -1.05003123       1.35151068
H       -2.26234491      -0.19349518      -1.25569278
13
Frame=8 idx=002190 GeodesicLength=0.2545147134782536 rxn_smarts="[C:1]([N:2]([C:3](=[O:4])[C:5]([O:6][H:13])([H:11])[H:12])[H:10])([H:7])([H:8])[H:9]>>[C:1]([N:2]([C-:3]=[O+:4][C:5]([O:6][H:13])([H:11])[H:12])[H:10])([H:7])([H:8])[H:9]"
C        2.12652137       0.04443829      -0.12822833
N        0.82491975       0.44870796      -0.62317868
C       -0.25675046       0.67534723       0.12784588
O       -0.22376233       0.24666302       1.32775222
C       -1.82033441      -0.28450563       0.58288502
O       -2.15687370      -0.87359881      -0.61255297
H        2.89914188       0.73219879      -0.47606164
H        2.13987613       0.04795652       0.95955427
H        2.36425431      -0.96386543      -0.47091528
H        0.69885279       0.57889532      -1.61118618
H       -2.41806896       0.58320894       0.84995932
H       -1.91306601      -1.06713148       1.33290036
H       -2.26471035      -0.16831472      -1.25877399
13
Frame=9 idx=002190 GeodesicLength=0.2861635845555045 rxn_smarts="[C:1]([N:2]([C:3](=[O:4])[C:5]([O:6][H:13])([H:11])[H:12])[H:10])([H:7])([H:8])[H:9]>>[C:1]([N:2]([C-:3]=[O+:4][C:5]([O:6][H:13])([H:11])[H:12])[H:10])([H:7])([H:8])[H:9]"
C        2.12566561       0.04866399      -0.12652827
N        0.82165807       0.45196325      -0.61538810
C       -0.25464921       0.67793834       0.14247505
O       -0.22113744       0.22900420       1.33390295
C       -1.81025159      -0.28976915       0.57740576
O       -2.14739525      -0.86074141      -0.63008203
H        2.90070717       0.70738973      -0.52151983
H        2.16100025       0.10208742       0.95958248
H        2.34101270      -0.97829774      -0.42593182
H        0.68462371       0.57021091      -1.60344486
H       -2.41699262       0.56910214       0.85624512
H       -1.91699541      -1.08353913       1.31442565
H       -2.26724598      -0.14401254      -1.26114210
13
Frame=10 idx=002190 GeodesicLength=0.31808050230336565 rxn_smarts="[C:1]([N:2]([C:3](=[O:4])[C:5]([O:6][H:13])([H:11])[H:12])[H:10])([H:7])([H:8])[H:9]>>[C:1]([N:2]([C-:3]=[O+:4][C:5]([O:6][H:13])([H:11])[H:12])[H:10])([H:7])([H:8])[H:9]"
C        2.12523313       0.05335577      -0.12471572
N        0.81856226       0.45392696      -0.60809622
C       -0.25228102       0.67931532       0.15677649
O       -0.21806844       0.20999881       1.33928773
C       -1.80037375      -0.29498899       0.57192903
O       -2.13909058      -0.84650491      -0.64757370
H        2.90068801       0.68156216      -0.56548695
H        2.18171224       0.15680294       0.95701583
H        2.32034553      -0.98970311      -0.37877604
H        0.67059794       0.55957495      -1.59598491
H       -2.41537332       0.55502693       0.86313340
H       -1.92107944      -1.10005253       1.29510686
H       -2.27087256      -0.11831431      -1.26261580
13
Frame=11 idx=002190 GeodesicLength=0.35058007201303015 rxn_smarts="[C:1]([N:2]([C:3](=[O:4])[C:5]([O:6][H:13])([H:11])[H:12])[H:10])([H:7])([H:8])[H:9]>>[C:1]([N:2]([C-:3]=[O+:4][C:5]([O:6][H:13])([H:11])[H:12])[H:10])([H:7])([H:8])[H:9]"
C        2.12449409       0.05784750      -0.12287883
N        0.81540603       0.45624024      -0.60113892
C       -0.24992322       0.68073432       0.17077751
O       -0.21466686       0.19148649       1.34415469
C       -1.79013837      -0.30021056       0.56648554
O       -2.13047581      -0.83205076      -0.66470294
H        2.89929329       0.65347268      -0.60737447
H        2.20154988       0.21055175       0.95188763
H        2.30006103      -0.99886647      -0.33050786
H        0.65665069       0.54948057      -1.58859472
H       -2.41352337       0.54058813       0.86985156
H       -1.92421811      -1.11637048       1.27546313
H       -2.27450926      -0.09290340      -1.26342231
13
Frame=12 idx=002190 GeodesicLength=0.38336082703617813 rxn_smarts="[C:1]([N:2]([C:3](=[O:4])[C:5]([O:6][H:13])([H:11])[H:12])[H:10])([H:7])([H:8])[H:9]>>[C:1]([N:2]([C-:3]=[O+:4][C:5]([O:6][H:13])([H:11])[H:12])[H:10])([H:7])([H:8])[H:9]"
C        2.12359711       0.06214761      -0.12107650
N        0.81225437       0.45855709      -0.59455097
C       -0.24755713       0.68203605       0.18442983
O       -0.21106035       0.17351794       1.34856097
C       -1.77974799      -0.30534480       0.56114866
O       -2.12177372      -0.81748824      -0.68135321
H        2.89665519       0.62371310      -0.64683689
H        2.22044330       0.26276404       0.94436767
H        2.28075103      -1.00558053      -0.28188631
H        0.64300479       0.53992183      -1.58131103
H       -2.41154839       0.52599623       0.87635130
H       -1.92679005      -1.13224352       1.25572154
H       -2.27822816      -0.06799680      -1.26356507
13
Frame=13 idx=002190 GeodesicLength=0.41623805003773995 rxn_smarts="[C:1]([N:2]([C:3](=[O:4])[C:5]([O:6][H:13])([H:11])[H:12])[H:10])([H:7])([H:8])[H:9]>>[C:1]([N:2]([C-:3]=[O+:4][C:5]([O:6][H:13])([H:11])[H:12])[H:10])([H:7])([H:8])[H:9]"
C        2.12256193       0.06619066      -0.11935827
N        0.80907462       0.46062388      -0.58834334
C       -0.24518392       0.68311590       0.19766846
O       -0.20731908       0.15613672       1.35253725
C       -1.76929719      -0.31028149       0.55599124
O       -2.11302039      -0.80304286      -0.69731396
H        2.89274992       0.59295471      -0.68354368
H        2.23831629       0.31272616       0.93470919
H        2.26276183      -1.00986754      -0.23367786
H        0.62976430       0.53122907      -1.57415141
H       -2.40945935       0.51154337       0.88239028
H       -1.92906099      -1.14734858       1.23621729
H       -2.28188796      -0.04398000      -1.26312517
13
Frame=14 idx=002190 GeodesicLength=0.44937952651528046 rxn_smarts="[C:1]([N:2]([C:3](=[O:4])[C:5]([O:6][H:13])([H:11])[H:12])[H:10])([H:7])([H:8])[H:9]>>[C:1]([N:2]([C-:3]=[O+:4][C:5]([O:6][H:13])([H:11])[H:12])[H:10])([H:7])([H:8])[H:9]"
C        2.12163231       0.07027425      -0.11762410
N        0.80593856       0.46218839      -0.58245178
C       -0.24270525       0.68371565       0.21063811
O       -0.20339367       0.13863841       1.35605742
C       -1.75890516      -0.31514431       0.55087100
O       -2.10464974      -0.78803986      -0.71298599
H        2.88779342       0.56115411      -0.71813824
H        2.25553561       0.36175872       0.92296762
H        2.24638805      -1.01163799      -0.18500969
H        0.61670241       0.52204308      -1.56711517
H       -2.40717790       0.49703518       0.88842932
H       -1.93119247      -1.16218198       1.21635654
H       -2.28596617      -0.01980365      -1.26199504
13
Frame=15 idx=002190 GeodesicLength=0.4830378497125902 rxn_smarts="[C:1]([N:2]([C:3](=[O:4])[C:5]([O:6][H:13])([H:11])[H:12])[H:10])([H:7])([H:8])[H:9]>>[C:1]([N:2]([C-:3]=[O+:4][C:5]([O:6][H:13])([H:11])[H:12])[H:10])([H:7])([H:8])[H:9]"
C        2.12062961       0.07430789      -0.11590411
N        0.80274768       0.46338056      -0.57680015
C       -0.24014766       0.68394710       0.22340058
O       -0.19929165       0.12107784       1.35914033
C       -1.74843998      -0.31994512       0.54576009
O       -2.09639128      -0.77255569      -0.72832811
H        2.88162575       0.52819106      -0.75071006
H        2.27207552       0.40980374       0.90910947
H        2.23121588      -1.01106416      -0.13581866
H        0.60374028       0.51274933      -1.56008810
H       -2.40463469       0.48244595       0.89433979
H       -1.93300431      -1.17674703       1.19611928
H       -2.29012516       0.00440853      -1.26022034
13
Frame=16 idx=002190 GeodesicLength=0.5168875352505848 rxn_smarts="[C:1]([N:2]([C:3](=[O:4])[C:5]([O:6][H:13])([H:11])[H:12])[H:10])([H:7])([H:8])[H:9]>>[C:1]([N:2]([C-:3]=[O+:4][C:5]([O:6][H:13])([H:11])[H:12])[H:10])([H:7])([H:8])[H:9]"
C        2.11960491       0.07821807      -0.11422551
N        0.79955403       0.46428754      -0.57138729
C       -0.23754805       0.68388849       0.23592411
O       -0.19511616       0.10375639       1.36189710
C       -1.73800460      -0.32464281       0.54073463
O       -2.08822505      -0.75689970      -0.74323603
H        2.87454437       0.49431790      -0.78098288
H        2.28788873       0.45631030       0.89341600
H        2.21732307      -1.00823840      -0.08693291
H        0.59102498       0.50374395      -1.55312281
H       -2.40200677       0.46787335       0.89998515
H       -1.93466539      -1.19082324       1.17581046
H       -2.29437407       0.02820815      -1.25788002
