13
Frame=0 idx=004023 GeodesicLength=0.0 rxn_smarts="[C:1]([C:2]1([C:5]#[N:6])[C:3]([H:10])([H:11])[C:4]1([H:12])[H:13])([H:7])([H:8])[H:9]>>[C:1]([C:2]1=[C:5]=[N:6][C:3]([H:10])([H:11])[C:4]1([H:12])[H:13])([H:7])([H:8])[H:9]"
C       -1.64813920      -0.94924086       0.18148307
C       -0.49599564      -0.09212031      -0.22016979
C        1.39389341       0.88185356       0.07193896
C        0.94713053      -0.48837349      -0.39788414
C       -0.32725634       1.25022464       0.00685251
N       -0.16381196       2.44911868       0.09544485
H       -1.51151798      -1.43059948       1.15698858
H       -2.56619847      -0.36185464       0.22774658
H       -1.80011114      -1.74506311      -0.55321512
H        1.66126079       0.96744168       1.11671557
H        1.95248891       1.53553319      -0.58727778
H        1.30650126      -1.24292401       0.30971856
H        1.25175583      -0.77399579      -1.40834180
13
Frame=1 idx=004023 GeodesicLength=0.07571585678123498 rxn_smarts="[C:1]([C:2]1([C:5]#[N:6])[C:3]([H:10])([H:11])[C:4]1([H:12])[H:13])([H:7])([H:8])[H:9]>>[C:1]([C:2]1=[C:5]=[N:6][C:3]([H:10])([H:11])[C:4]1([H:12])[H:13])([H:7])([H:8])[H:9]"
C       -1.63685339      -0.94665198       0.20119891
C       -0.49283971      -0.09076953      -0.22370652
C        1.37733011       0.87330860       0.10129438
C        0.94750895      -0.48485525      -0.41764822
C       -0.35500760       1.26495400      -0.07196747
N       -0.15518124       2.45580787       0.02749643
H       -1.46971882      -1.43377747       1.16878434
H       -2.55437298      -0.36181354       0.27843016
H       -1.81018743      -1.73691979      -0.53470798
H        1.60164096       0.93939735       1.15791134
H        1.98919620       1.51922368      -0.51735365
H        1.30179156      -1.26310877       0.26583039
H        1.25669340      -0.73479517      -1.43556213
13
Frame=2 idx=004023 GeodesicLength=0.15160905442983305 rxn_smarts="[C:1]([C:2]1([C:5]#[N:6])[C:3]([H:10])([H:11])[C:4]1([H:12])[H:13])([H:7])([H:8])[H:9]>>[C:1]([C:2]1=[C:5]=[N:6][C:3]([H:10])([H:11])[C:4]1([H:12])[H:13])([H:7])([H:8])[H:9]"
C       -1.62551888      -0.94293936       0.21909101
C       -0.48907038      -0.08857104      -0.22701057
C        1.35987838       0.86533649       0.12773159
C        0.94868634      -0.48184699      -0.43464076
C       -0.38041702       1.27574343      -0.14632848
N       -0.14693807       2.45801578      -0.03538049
H       -1.42917673      -1.43847789       1.17658428
H       -2.54025213      -0.35904239       0.32878583
H       -1.82147329      -1.72545737      -0.51934737
H        1.54626742       0.91355420       1.19302059
H        2.01725196       1.50335914      -0.45150314
H        1.29749857      -1.28072066       0.22684058
H        1.26326382      -0.69895335      -1.45784306
13
Frame=3 idx=004023 GeodesicLength=0.22761692352777801 rxn_smarts="[C:1]([C:2]1([C:5]#[N:6])[C:3]([H:10])([H:11])[C:4]1([H:12])[H:13])([H:7])([H:8])[H:9]>>[C:1]([C:2]1=[C:5]=[N:6][C:3]([H:10])([H:11])[C:4]1([H:12])[H:13])([H:7])([H:8])[H:9]"
C       -1.61429770      -0.93846343       0.23533001
C       -0.48489747      -0.08560789      -0.22984442
C        1.34204743       0.85804086       0.15171908
C        0.95043288      -0.47913812      -0.44911069
C       -0.40419237       1.28327154      -0.21576551
N       -0.13907021       2.45660277      -0.09451529
H       -1.39021845      -1.44488880       1.18067302
H       -2.52417541      -0.35434557       0.37856750
H       -1.83383395      -1.71114632      -0.50674227
H        1.49552284       0.88965399       1.22324749
H        2.03830312       1.48815190      -0.38987965
H        1.29342764      -1.29617842       0.19220100
H        1.27095165      -0.66595252      -1.47588028
13
Frame=4 idx=004023 GeodesicLength=0.30369098925996957 rxn_smarts="[C:1]([C:2]1([C:5]#[N:6])[C:3]([H:10])([H:11])[C:4]1([H:12])[H:13])([H:7])([H:8])[H:9]>>[C:1]([C:2]1=[C:5]=[N:6][C:3]([H:10])([H:11])[C:4]1([H:12])[H:13])([H:7])([H:8])[H:9]"
C       -1.60324098      -0.93346430       0.25019403
C       -0.48048861      -0.08196015      -0.23218563
C        1.32411729       0.85139096       0.17378234
C        0.95256149      -0.47653452      -0.46149082
C       -0.42691761       1.28813058      -0.28059010
N       -0.13140601       2.45221362      -0.15096546
H       -1.35294697      -1.45268142       1.18162299
H       -2.50642370      -0.34838975       0.42749027
H       -1.84698962      -1.69461471      -0.49614130
H        1.44911601       0.86721793       1.24975123
H        2.05382968       1.47368789      -0.33201353
H        1.28943387      -1.30989667       0.16102809
H        1.27935516      -0.63509945      -1.49048211
13
Frame=5 idx=004023 GeodesicLength=0.37987687862698977 rxn_smarts="[C:1]([C:2]1([C:5]#[N:6])[C:3]([H:10])([H:11])[C:4]1([H:12])[H:13])([H:7])([H:8])[H:9]>>[C:1]([C:2]1=[C:5]=[N:6][C:3]([H:10])([H:11])[C:4]1([H:12])[H:13])([H:7])([H:8])[H:9]"
C       -1.59235157      -0.92808303       0.26395185
C       -0.47596379      -0.07768796      -0.23409949
C        1.30622633       0.84530427       0.19437734
C        0.95494312      -0.47388657      -0.47219349
C       -0.44904884       1.29080173      -0.34136516
N       -0.12373218       2.44524846      -0.20549588
H       -1.31733602      -1.46144063       1.17999257
H       -2.48721712      -0.34163224       0.47537154
H       -1.86065660      -1.67640304      -0.48683185
H        1.40652407       0.84578068       1.27346056
H        2.06496292       1.45996067      -0.27732430
H        1.28540907      -1.32221438       0.13249569
H        1.28824063      -0.60574797      -1.50233937
13
Frame=6 idx=004023 GeodesicLength=0.4561604180279428 rxn_smarts="[C:1]([C:2]1([C:5]#[N:6])[C:3]([H:10])([H:11])[C:4]1([H:12])[H:13])([H:7])([H:8])[H:9]>>[C:1]([C:2]1=[C:5]=[N:6][C:3]([H:10])([H:11])[C:4]1([H:12])[H:13])([H:7])([H:8])[H:9]"
C       -1.58161572      -0.92240915       0.27681212
C       -0.47141007      -0.07283302      -0.23566604
C        1.28845948       0.83969371       0.21385674
C        0.95748164      -0.47108196      -0.48154860
C       -0.47089595       1.29163585      -0.39859640
N       -0.11588523       2.43598408      -0.25863635
H       -1.28332662      -1.47073631       1.17627493
H       -2.46675661      -0.33441004       0.52202223
H       -1.87458051      -1.65696859      -0.47823776
H        1.36728499       0.82494122       1.29505146
H        2.07255587       1.44695188      -0.22528738
H        1.28127414      -1.33337566       0.10592296
H        1.29741458      -0.57739201      -1.51196792
13
Frame=7 idx=004023 GeodesicLength=0.5325612911209385 rxn_smarts="[C:1]([C:2]1([C:5]#[N:6])[C:3]([H:10])([H:11])[C:4]1([H:12])[H:13])([H:7])([H:8])[H:9]>>[C:1]([C:2]1=[C:5]=[N:6][C:3]([H:10])([H:11])[C:4]1([H:12])[H:13])([H:7])([H:8])[H:9]"
C       -1.57101575      -0.91649170       0.28893468
C       -0.46688729      -0.06741856      -0.23695405
C        1.27086903       0.83447642       0.23249075
C        0.96010852      -0.46804091      -0.48981097
C       -0.49268713       1.29091472      -0.45271994
N       -0.10773417       2.42457340      -0.31072769
H       -1.25084578      -1.48018911       1.17088997
H       -2.44523417      -0.32694446       0.56727850
H       -1.88852284      -1.63668550      -0.46992705
H        1.33100599       0.80437879       1.31501553
H        2.07723413       1.43462453      -0.17549449
H        1.27696422      -1.34355964       0.08077814
H        1.30674524      -0.54963798      -1.51975340
13
Frame=8 idx=004023 GeodesicLength=0.609106510091243 rxn_smarts="[C:1]([C:2]1([C:5]#[N:6])[C:3]([H:10])([H:11])[C:4]1([H:12])[H:13])([H:7])([H:8])[H:9]>>[C:1]([C:2]1=[C:5]=[N:6][C:3]([H:10])([H:11])[C:4]1([H:12])[H:13])([H:7])([H:8])[H:9]"
C       -1.56053453      -0.91035761       0.30043849
C       -0.46243716      -0.06145564      -0.23801879
C        1.25349210       0.82958019       0.25048848
C        0.96277501      -0.46470760      -0.49717048
C       -0.51458439       1.28886258      -0.50409303
N       -0.09918704       2.41109752      -0.36200767
H       -1.21980873      -1.48949228       1.16418211
H       -2.42282969      -0.31938039       0.61101996
H       -1.90228817      -1.61584730      -0.46159866
H        1.29736903       0.78384109       1.33371048
H        2.07947292       1.42294267      -0.12762768
H        1.27242819      -1.35289525       0.05665219
H        1.31613248      -0.52218798      -1.52597540
13
Frame=9 idx=004023 GeodesicLength=0.6858402238944171 rxn_smarts="[C:1]([C:2]1([C:5]#[N:6])[C:3]([H:10])([H:11])[C:4]1([H:12])[H:13])([H:7])([H:8])[H:9]>>[C:1]([C:2]1=[C:5]=[N:6][C:3]([H:10])([H:11])[C:4]1([H:12])[H:13])([H:7])([H:8])[H:9]"
C       -1.55015965      -0.90401788       0.31141061
C       -0.45808577      -0.05494648      -0.23890348
C        1.23635912       0.82494467       0.26800897
C        0.96544994      -0.46104973      -0.50376765
C       -0.53669658       1.28567152      -0.55301763
N       -0.09019762       2.39558579      -0.41260500
H       -1.19013314      -1.49839830       1.15643889
H       -2.39971711      -0.31180094       0.65315234
H       -1.91571264      -1.59469245      -0.45305064
H        1.26612562       0.76313357       1.35139445
H        2.07963557       1.41187988      -0.08145869
H        1.26762493      -1.36148204       0.03323746
H        1.32550734      -0.49482762      -1.53083961
13
Frame=10 idx=004023 GeodesicLength=0.7627629523252495 rxn_smarts="[C:1]([C:2]1([C:5]#[N:6])[C:3]([H:10])([H:11])[C:4]1([H:12])[H:13])([H:7])([H:8])[H:9]>>[C:1]([C:2]1=[C:5]=[N:6][C:3]([H:10])([H:11])[C:4]1([H:12])[H:13])([H:7])([H:8])[H:9]"
C       -1.53990600      -0.89748622       0.32191568
C       -0.45384389      -0.04788962      -0.23962824
C        1.21951254       0.82053091       0.28516504
C        0.96813403      -0.45706161      -0.50969797
C       -0.55906877       1.28150618      -0.59974378
N       -0.08078997       2.37809306      -0.46257455
H       -1.16177101      -1.50676236       1.14788886
H       -2.37609210      -0.30424711       0.69363045
H       -1.92869512      -1.57340828      -0.44417597
H        1.23710540       0.74211619       1.36825079
H        2.07802723       1.40144360      -0.03686062
H        1.26253807      -1.36941322       0.01032075
H        1.33484957      -0.46742152      -1.53449044
13
Frame=11 idx=004023 GeodesicLength=0.8398349800355358 rxn_smarts="[C:1]([C:2]1([C:5]#[N:6])[C:3]([H:10])([H:11])[C:4]1([H:12])[H:13])([H:7])([H:8])[H:9]>>[C:1]([C:2]1=[C:5]=[N:6][C:3]([H:10])([H:11])[C:4]1([H:12])[H:13])([H:7])([H:8])[H:9]"
C       -1.52971149      -0.89073926       0.33196422
C       -0.44971703      -0.04028967      -0.24016865
C        1.20297237       0.81627564       0.30205987
C        0.97076013      -0.45271459      -0.51497825
C       -0.58176190       1.27632691      -0.64437427
N       -0.07098880       2.35863234      -0.51207948
H       -1.13459488      -1.51444397       1.13866740
H       -2.35199812      -0.29678010       0.73239401
H       -1.94111250      -1.55200049      -0.43500430
H        1.21021816       0.72066237       1.38439832
H        2.07487266       1.39159468       0.00630032
H        1.25711211      -1.37665125      -0.01224083
H        1.34394927      -0.43987260      -1.53693837
13
Frame=12 idx=004023 GeodesicLength=0.9172979930875167 rxn_smarts="[C:1]([C:2]1([C:5]#[N:6])[C:3]([H:10])([H:11])[C:4]1([H:12])[H:13])([H:7])([H:8])[H:9]>>[C:1]([C:2]1=[C:5]=[N:6][C:3]([H:10])([H:11])[C:4]1([H:12])[H:13])([H:7])([H:8])[H:9]"
C       -1.51958218      -0.88373747       0.34160987
C       -0.44570381      -0.03218186      -0.24073444
C        1.18670449       0.81214052       0.31876400
C        0.97337932      -0.44804519      -0.51973831
C       -0.60468582       1.27036583      -0.68734799
N       -0.06093295       2.33698647      -0.56078615
H       -1.10846038      -1.52122685       1.12893569
H       -2.32751764      -0.28924235       0.76950186
H       -1.95300215      -1.53067707      -0.42533678
H        1.18518474       0.69868256       1.39991406
H        2.07027405       1.38235177       0.04817487
H        1.25133312      -1.38330769      -0.03462339
H        1.35300921      -0.41210866      -1.53833330
13
Frame=13 idx=004023 GeodesicLength=0.9950482796028338 rxn_smarts="[C:1]([C:2]1([C:5]#[N:6])[C:3]([H:10])([H:11])[C:4]1([H:12])[H:13])([H:7])([H:8])[H:9]>>[C:1]([C:2]1=[C:5]=[N:6][C:3]([H:10])([H:11])[C:4]1([H:12])[H:13])([H:7])([H:8])[H:9]"
C       -1.50955741      -0.87651227       0.35087793
C       -0.44179271      -0.02357496      -0.24128943
C        1.17076180       0.80811491       0.33531116
C        0.97603299      -0.44310135      -0.52398524
C       -0.62781330       1.26367194      -0.72875233
N       -0.05075076       2.31343689      -0.60873404
H       -1.08339460      -1.52718078       1.11882241
H       -2.30281674      -0.28165158       0.80499167
H       -1.96434975      -1.50947739      -0.41525795
H        1.16195665       0.67611836       1.41486414
H        2.06446888       1.37378381       0.08874258
H        1.24523415      -1.38946408      -0.05688074
H        1.36202081      -0.38416350      -1.53871016
13
Frame=14 idx=004023 GeodesicLength=1.0731700842733356 rxn_smarts="[C:1]([C:2]1([C:5]#[N:6])[C:3]([H:10])([H:11])[C:4]1([H:12])[H:13])([H:7])([H:8])[H:9]>>[C:1]([C:2]1=[C:5]=[N:6][C:3]([H:10])([H:11])[C:4]1([H:12])[H:13])([H:7])([H:8])[H:9]"
C       -1.49958264      -0.86901384       0.35974450
C       -0.43794858      -0.01447656      -0.24182670
C        1.15515902       0.80413284       0.35171026
C        0.97869064      -0.43791112      -0.52771254
C       -0.65108165       1.25623329      -0.76869934
N       -0.04065662       2.28797762      -0.65568034
H       -1.05935482      -1.53214415       1.10847681
H       -2.27794215      -0.27398888       0.83871249
H       -1.97499244      -1.48839540      -0.40483591
H        1.14053780       0.65290590       1.42923689
H        2.05753693       1.36587233       0.12796582
H        1.23876737      -1.39509530      -0.07902319
H        1.37086714      -0.35609673      -1.53806876
13
Frame=15 idx=004023 GeodesicLength=1.1517065967414912 rxn_smarts="[C:1]([C:2]1([C:5]#[N:6])[C:3]([H:10])([H:11])[C:4]1([H:12])[H:13])([H:7])([H:8])[H:9]>>[C:1]([C:2]1=[C:5]=[N:6][C:3]([H:10])([H:11])[C:4]1([H:12])[H:13])([H:7])([H:8])[H:9]"
C       -1.48968297      -0.86124284       0.36823392
C       -0.43416253      -0.00497565      -0.24247273
C        1.13985054       0.80020763       0.36798764
C        0.98142197      -0.43253908      -0.53094068
C       -0.67430986       1.24807272      -0.80752212
N       -0.03086403       2.26069179      -0.70148860
H       -1.03618008      -1.53627806       1.09778023
H       -2.25282353      -0.26609178       0.87098904
H       -1.98520860      -1.46737581      -0.39406703
H        1.12069902       0.62911552       1.44305106
H        2.04957442       1.35864486       0.16594908
H        1.23198277      -1.40028310      -0.10108649
H        1.37970289      -0.32794620      -1.53641333
13
Frame=16 idx=004023 GeodesicLength=1.2305842928509358 rxn_smarts="[C:1]([C:2]1([C:5]#[N:6])[C:3]([H:10])([H:11])[C:4]1([H:12])[H:13])([H:7])([H:8])[H:9]>>[C:1]([C:2]1=[C:5]=[N:6][C:3]([H:10])([H:11])[C:4]1([H:12])[H:13])([H:7])([H:8])[H:9]"
C       -1.47989873      -0.85320923       0.37630556
C       -0.43038771       0.00494567      -0.24308071
C        1.12495713       0.79633678       0.38408676
C        0.98422506      -0.42705722      -0.53363510
C       -0.69738740       1.23919084      -0.84521963
N       -0.02165644       2.23180705      -0.74572806
H       -1.01401768      -1.53951649       1.08689792
H       -2.22772976      -0.25800892       0.90154786
H       -1.99480842      -1.44651169      -0.38311583
H        1.10265740       0.60483636       1.45624225
H        2.04076180       1.35215525       0.20245104
H        1.22486397      -1.40503695      -0.12298196
H        1.38842079      -0.29993146      -1.53377010
