15
Frame=0 idx=008209 GeodesicLength=0.0 rxn_smarts="[C:1]1([H:8])([H:9])[O:2][C@@:3]2([H:10])[C:4]([H:11])=[C:5]([H:12])[C:6]([H:13])([H:14])[C@@:7]12[H:15]>>[C:1]1([H:8])([H:9])[O+:2]=[C:3]2[C:4]([H:10])([H:11])[C-:5]([H:12])[C:6]([H:13])([H:14])[C@@:7]12[H:15]"
C       -1.68087291      -0.42059010      -0.74245183
O       -0.89122488      -1.64635385      -0.65156606
C       -0.06617837      -1.03307396       0.23989949
C        1.35694408      -0.88016807       0.28179622
C        1.59889237       0.53913238       0.16820026
C        0.27616179       1.28844535      -0.10710395
C       -0.79891757       0.28635519       0.31206043
H       -1.59398863      -0.00040191      -1.74618360
H       -2.72049713      -0.61039697      -0.47856091
H        1.10802868      -1.16527254       1.41062194
H        2.01265198      -1.67922119      -0.05125489
H        2.33799320       1.01272400       0.80611372
H        0.19622323       2.20358138       0.47926625
H        0.18428695       1.59034952      -1.16270766
H       -1.31950280       0.51489082       1.24187053
15
Frame=1 idx=008209 GeodesicLength=0.05677013309428988 rxn_smarts="[C:1]1([H:8])([H:9])[O:2][C@@:3]2([H:10])[C:4]([H:11])=[C:5]([H:12])[C:6]([H:13])([H:14])[C@@:7]12[H:15]>>[C:1]1([H:8])([H:9])[O+:2]=[C:3]2[C:4]([H:10])([H:11])[C-:5]([H:12])[C:6]([H:13])([H:14])[C@@:7]12[H:15]"
C       -1.67501985      -0.42050979      -0.74141021
O       -0.88222886      -1.64271550      -0.64782496
C       -0.06579402      -1.03283203       0.25679640
C        1.36097500      -0.87814888       0.28227335
C        1.59556495       0.53898909       0.16782216
C        0.27474959       1.28839726      -0.10828094
C       -0.79992216       0.28870599       0.31589697
H       -1.58876464      -0.00017576      -1.74524082
H       -2.71503761      -0.61385447      -0.48091958
H        1.09577849      -1.18556511       1.41576701
H        2.00942645      -1.67385709      -0.07168111
H        2.33432145       1.01455592       0.80487207
H        0.19823227       2.20606897       0.47479719
H        0.18197905       1.58635664      -1.16445329
H       -1.32426012       0.52458477       1.24158576
15
Frame=2 idx=008209 GeodesicLength=0.11355127781484728 rxn_smarts="[C:1]1([H:8])([H:9])[O:2][C@@:3]2([H:10])[C:4]([H:11])=[C:5]([H:12])[C:6]([H:13])([H:14])[C@@:7]12[H:15]>>[C:1]1([H:8])([H:9])[O+:2]=[C:3]2[C:4]([H:10])([H:11])[C-:5]([H:12])[C:6]([H:13])([H:14])[C@@:7]12[H:15]"
C       -1.66914042      -0.42044408      -0.74035995
O       -0.87317386      -1.63904989      -0.64407790
C       -0.06526241      -1.03247343       0.27331408
C        1.36501016      -0.87611691       0.28309320
C        1.59228800       0.53883393       0.16734429
C        0.27336755       1.28835326      -0.10944929
C       -0.80086157       0.29101492       0.31968267
H       -1.58363228       0.00006183      -1.74428764
H       -2.70949302      -0.61738976      -0.48317341
H        1.08323956      -1.20609246       1.42091692
H        2.00579771      -1.66817742      -0.09183245
H        2.33078867       1.01647623       0.80334725
H        0.20026887       2.20849456       0.47038938
H        0.17967666       1.58243407      -1.16615387
H       -1.32887362       0.53407517       1.24124672
15
Frame=3 idx=008209 GeodesicLength=0.1703345808084623 rxn_smarts="[C:1]1([H:8])([H:9])[O:2][C@@:3]2([H:10])[C:4]([H:11])=[C:5]([H:12])[C:6]([H:13])([H:14])[C@@:7]12[H:15]>>[C:1]1([H:8])([H:9])[O+:2]=[C:3]2[C:4]([H:10])([H:11])[C-:5]([H:12])[C:6]([H:13])([H:14])[C@@:7]12[H:15]"
C       -1.66324081      -0.42038786      -0.73930261
O       -0.86406906      -1.63535456      -0.64033656
C       -0.06458894      -1.03200861       0.28946320
C        1.36906613      -0.87407338       0.28423050
C        1.58906140       0.53866678       0.16675912
C        0.27201145       1.28831078      -0.11060839
C       -0.80173807       0.29328049       0.32341867
H       -1.57859580       0.00031462      -1.74332499
H       -2.70387215      -0.62098813      -0.48532594
H        1.07040474      -1.22685229       1.42604322
H        2.00180501      -1.66218777      -0.11164486
H        2.32739946       1.01848322       0.80152632
H        0.20232914       2.21085341       0.46604783
H        0.17736918       1.57858496      -1.16780706
H       -1.33334168       0.54335833       1.24086157
15
Frame=4 idx=008209 GeodesicLength=0.22712529530037961 rxn_smarts="[C:1]1([H:8])([H:9])[O:2][C@@:3]2([H:10])[C:4]([H:11])=[C:5]([H:12])[C:6]([H:13])([H:14])[C@@:7]12[H:15]>>[C:1]1([H:8])([H:9])[O+:2]=[C:3]2[C:4]([H:10])([H:11])[C-:5]([H:12])[C:6]([H:13])([H:14])[C@@:7]12[H:15]"
C       -1.65732479      -0.42033847      -0.73823615
O       -0.85491779      -1.63162991      -0.63661151
C       -0.06377958      -1.03144877       0.30526066
C        1.37315536      -0.87201899       0.28565834
C        1.58588396       0.53849174       0.16606886
C        0.27067994       1.28827222      -0.11176207
C       -0.80255270       0.29550490       0.32710885
H       -1.57366005       0.00058848      -1.74235202
H       -2.69817910      -0.62464732      -0.48737295
H        1.05726776      -1.24786010       1.43111594
H        1.99747909      -1.65589831      -0.13108021
H        2.32414679       1.02058036       0.79941794
H        0.20441012       2.21315405       0.46176505
H        0.17505603       1.57480769      -1.16942095
H       -1.33766505       0.55244244       1.24044022
15
Frame=5 idx=008209 GeodesicLength=0.283919313392237 rxn_smarts="[C:1]1([H:8])([H:9])[O:2][C@@:3]2([H:10])[C:4]([H:11])=[C:5]([H:12])[C:6]([H:13])([H:14])[C@@:7]12[H:15]>>[C:1]1([H:8])([H:9])[O+:2]=[C:3]2[C:4]([H:10])([H:11])[C-:5]([H:12])[C:6]([H:13])([H:14])[C@@:7]12[H:15]"
C       -1.65139542      -0.42029303      -0.73715672
O       -0.84572422      -1.62787121      -0.63290934
C       -0.06284088      -1.03080067       0.32072157
C        1.37728581      -0.86994999       0.28734934
C        1.58275348       0.53831220       0.16527703
C        0.26937240       1.28823608      -0.11291335
C       -0.80330555       0.29768890       0.33075509
H       -1.56882914       0.00088749      -1.74136230
H       -2.69241642      -0.62836452      -0.48931021
H        1.04382038      -1.26912670       1.43609857
H        1.99285138      -1.64931319      -0.15009940
H        2.32102285       1.02276809       0.79703080
H        0.20651077       2.21539795       0.45753180
H        0.17273774       1.57109557      -1.17099875
H       -1.34184318       0.56133302       1.23998587
15
Frame=6 idx=008209 GeodesicLength=0.34071411657667927 rxn_smarts="[C:1]1([H:8])([H:9])[O:2][C@@:3]2([H:10])[C:4]([H:11])=[C:5]([H:12])[C:6]([H:13])([H:14])[C@@:7]12[H:15]>>[C:1]1([H:8])([H:9])[O+:2]=[C:3]2[C:4]([H:10])([H:11])[C-:5]([H:12])[C:6]([H:13])([H:14])[C@@:7]12[H:15]"
C       -1.64545975      -0.42024753      -0.73606470
O       -0.83649057      -1.62407393      -0.62924810
C       -0.06177599      -1.03007421       0.33585220
C        1.38146837      -0.86786473       0.28927420
C        1.57967054       0.53812987       0.16437459
C        0.26808573       1.28820342      -0.11406369
C       -0.80399832       0.29983228       0.33435822
H       -1.56411620       0.00122210      -1.74035459
H       -2.68659119      -0.63213534      -0.49113381
H        1.03005238      -1.29064645       1.44096231
H        1.98796746      -1.64245718      -0.16863168
H        2.31802829       1.02504477       0.79435674
H        0.20862799       2.21758492       0.45335232
H        0.17040634       1.56745422      -1.17254207
H       -1.34587509       0.57002779       1.23950806
15
Frame=7 idx=008209 GeodesicLength=0.39749863423583703 rxn_smarts="[C:1]1([H:8])([H:9])[O:2][C@@:3]2([H:10])[C:4]([H:11])=[C:5]([H:12])[C:6]([H:13])([H:14])[C@@:7]12[H:15]>>[C:1]1([H:8])([H:9])[O+:2]=[C:3]2[C:4]([H:10])([H:11])[C-:5]([H:12])[C:6]([H:13])([H:14])[C@@:7]12[H:15]"
C       -1.63952281      -0.42019917      -0.73495965
O       -0.82721917      -1.62023425      -0.62564037
C       -0.06058879      -1.02927567       0.35066002
C        1.38570965      -0.86575908       0.29140387
C        1.57663439       0.53794801       0.16335221
C        0.26681704       1.28817572      -0.11521326
C       -0.80463180       0.30193486       0.33791872
H       -1.55953050       0.00159981      -1.73932615
H       -2.68070818      -0.63595641      -0.49284105
H        1.01595132      -1.31241179       1.44567387
H        1.98287174      -1.63536053      -0.18661128
H        2.31516234       1.02740991       0.79138738
H        0.21076009       2.21971378       0.44923190
H        0.16805350       1.56389027      -1.17404920
H       -1.34975883       0.57852454       1.23901298
15
Frame=8 idx=008209 GeodesicLength=0.45427892520372337 rxn_smarts="[C:1]1([H:8])([H:9])[O:2][C@@:3]2([H:10])[C:4]([H:11])=[C:5]([H:12])[C:6]([H:13])([H:14])[C@@:7]12[H:15]>>[C:1]1([H:8])([H:9])[O+:2]=[C:3]2[C:4]([H:10])([H:11])[C-:5]([H:12])[C:6]([H:13])([H:14])[C@@:7]12[H:15]"
C       -1.63358613      -0.42014699      -0.73383629
O       -0.81791325      -1.61635120      -0.62207882
C       -0.05928238      -1.02840627       0.36516665
C        1.39001598      -0.86362528       0.29370959
C        1.57364296       0.53777240       0.16222327
C        0.26556591       1.28815340      -0.11636714
C       -0.80520615       0.30400168       0.34143954
H       -1.55507049       0.00201673      -1.73827287
H       -2.67476940      -0.63982398      -0.49442497
H        1.00151559      -1.33444592       1.45019337
H        1.97759315      -1.62803541      -0.20403179
H        2.31240830       1.02986390       0.78815385
H        0.21290243       2.22179211       0.44515333
H        0.16568075       1.56039189      -1.17552832
H       -1.35349727       0.58684293       1.23850060
15
Frame=9 idx=008209 GeodesicLength=0.5110477164262632 rxn_smarts="[C:1]1([H:8])([H:9])[O:2][C@@:3]2([H:10])[C:4]([H:11])=[C:5]([H:12])[C:6]([H:13])([H:14])[C@@:7]12[H:15]>>[C:1]1([H:8])([H:9])[O+:2]=[C:3]2[C:4]([H:10])([H:11])[C-:5]([H:12])[C:6]([H:13])([H:14])[C@@:7]12[H:15]"
C       -1.62764972      -0.42008875      -0.73269719
O       -0.80858215      -1.61242466      -0.61855573
C       -0.05786208      -1.02747575       0.37938697
C        1.39438811      -0.86146093       0.29616552
C        1.57069271       0.53760301       0.16097135
C        0.26432510       1.28813895      -0.11751734
C       -0.80572643       0.30603056       0.34492404
H       -1.55072332       0.00246835      -1.73719608
H       -2.66878022      -0.64372651      -0.49590724
H        0.98673263      -1.35672616       1.45450232
H        1.97217190      -1.62050433      -0.22084397
H        2.30978196       1.03240108       0.78461759
H        0.21505595       2.22381577       0.44113739
H        0.16327397       1.55697560      -1.17696827
H       -1.35709838       0.59497377       1.23798065
15
Frame=10 idx=008209 GeodesicLength=0.5678143237954102 rxn_smarts="[C:1]1([H:8])([H:9])[O:2][C@@:3]2([H:10])[C:4]([H:11])=[C:5]([H:12])[C:6]([H:13])([H:14])[C@@:7]12[H:15]>>[C:1]1([H:8])([H:9])[O+:2]=[C:3]2[C:4]([H:10])([H:11])[C-:5]([H:12])[C:6]([H:13])([H:14])[C@@:7]12[H:15]"
C       -1.62171406      -0.42002526      -0.73153687
O       -0.79922475      -1.60845836      -0.61506589
C       -0.05633044      -1.02648331       0.39334365
C        1.39883022      -0.85925979       0.29874685
C        1.56778186       0.53744828       0.15960951
C        0.26309465       1.28813778      -0.11866815
C       -0.80619306       0.30802876       0.34837713
H       -1.54648696       0.00295072      -1.73609473
H       -2.66274058      -0.64767014      -0.49727879
H        0.97159047      -1.37927786       1.45856344
H        1.96663431      -1.61279259      -0.23704817
H        2.30727134       1.03502737       0.78080411
H        0.21721671       2.22579923       0.43716968
H        0.16083631       1.55363686      -1.17837790
H       -1.36056603       0.60293833       1.23745613
15
Frame=11 idx=008209 GeodesicLength=0.6245829176163463 rxn_smarts="[C:1]1([H:8])([H:9])[O:2][C@@:3]2([H:10])[C:4]([H:11])=[C:5]([H:12])[C:6]([H:13])([H:14])[C@@:7]12[H:15]>>[C:1]1([H:8])([H:9])[O+:2]=[C:3]2[C:4]([H:10])([H:11])[C-:5]([H:12])[C:6]([H:13])([H:14])[C@@:7]12[H:15]"
C       -1.61577898      -0.41995591      -0.73034913
O       -0.78984173      -1.60445006      -0.61159932
C       -0.05468854      -1.02542932       0.40705708
C        1.40334630      -0.85701354       0.30143496
C        1.56490912       0.53731388       0.15815190
C        0.26187435       1.28815028      -0.11982331
C       -0.80660559       0.31000033       0.35180276
H       -1.54235906       0.00345722      -1.73496367
H       -2.65665046      -0.65165244      -0.49853307
H        0.95607618      -1.40212461       1.46233945
H        1.96100562      -1.60490908      -0.25265104
H        2.30486352       1.03774718       0.77673825
H        0.21938153       2.22775021       0.43323275
H        0.15837178       1.55036165      -1.17976443
H       -1.36390405       0.61075423       1.23692683
15
Frame=12 idx=008209 GeodesicLength=0.6813648772473971 rxn_smarts="[C:1]1([H:8])([H:9])[O:2][C@@:3]2([H:10])[C:4]([H:11])=[C:5]([H:12])[C:6]([H:13])([H:14])[C@@:7]12[H:15]>>[C:1]1([H:8])([H:9])[O+:2]=[C:3]2[C:4]([H:10])([H:11])[C-:5]([H:12])[C:6]([H:13])([H:14])[C@@:7]12[H:15]"
C       -1.60984558      -0.41988068      -0.72912612
O       -0.78043155      -1.60039930      -0.60815040
C       -0.05293607      -1.02431665       0.42054625
C        1.40794066      -0.85471679       0.30421191
C        1.56207422       0.53720649       0.15661464
C        0.26066531       1.28817860      -0.12099080
C       -0.80696215       0.31195033       0.35520606
H       -1.53834290       0.00398388      -1.73379797
H       -2.65050981      -0.65567500      -0.49965751
H        0.94017107      -1.42529458       1.46579489
H        1.95531251      -1.59685910      -0.26766431
H        2.30254067       1.04056340       0.77245733
H        0.22154694       2.22968407       0.42930037
H        0.15588835       1.54713623      -1.18114275
H       -1.36711166       0.61843911       1.23639840
15
Frame=13 idx=008209 GeodesicLength=0.7381547957416613 rxn_smarts="[C:1]1([H:8])([H:9])[O:2][C@@:3]2([H:10])[C:4]([H:11])=[C:5]([H:12])[C:6]([H:13])([H:14])[C@@:7]12[H:15]>>[C:1]1([H:8])([H:9])[O+:2]=[C:3]2[C:4]([H:10])([H:11])[C-:5]([H:12])[C:6]([H:13])([H:14])[C@@:7]12[H:15]"
C       -1.60391175      -0.41979954      -0.72786133
O       -0.77099104      -1.59630063      -0.60470988
C       -0.05107254      -1.02314040       0.43383050
C        1.41261696      -0.85236241       0.30706603
C        1.55927639       0.53713188       0.15500835
C        0.25946737       1.28822211      -0.12217168
C       -0.80726182       0.31388209       0.35859059
H       -1.53443484       0.00452572      -1.73258926
H       -2.64431512      -0.65974333      -0.50064774
H        0.92385024      -1.44879779       1.46889111
H        1.94957451      -1.58866042      -0.28209538
H        2.30029709       1.04348213       0.76797456
H        0.22371009       2.23160355       0.42536056
H        0.15338654       1.54395031      -1.18251362
H       -1.37019208       0.62600673       1.23586721
15
Frame=14 idx=008209 GeodesicLength=0.794958758124193 rxn_smarts="[C:1]1([H:8])([H:9])[O:2][C@@:3]2([H:10])[C:4]([H:11])=[C:5]([H:12])[C:6]([H:13])([H:14])[C@@:7]12[H:15]>>[C:1]1([H:8])([H:9])[O+:2]=[C:3]2[C:4]([H:10])([H:11])[C-:5]([H:12])[C:6]([H:13])([H:14])[C@@:7]12[H:15]"
C       -1.59798048      -0.41971303      -0.72655395
O       -0.76151876      -1.59215120      -0.60128682
C       -0.04909722      -1.02190884       0.44691417
C        1.41737663      -0.84994049       0.30997843
C        1.55651669       0.53709058       0.15332126
C        0.25827899       1.28828115      -0.12336453
C       -0.80750432       0.31579342       0.36195664
H       -1.53064211       0.00508564      -1.73133434
H       -2.63806944      -0.66385658      -0.50150064
H        0.90707865      -1.47261250       1.47160981
H        1.94383602      -1.58033442      -0.29590149
H        2.29813952       1.04649736       0.76327125
H        0.22587213       2.23350407       0.42142387
H        0.15085774       1.54081266      -1.18387250
H       -1.37314404       0.63345218       1.23533883
15
Frame=15 idx=008209 GeodesicLength=0.8517712422445752 rxn_smarts="[C:1]1([H:8])([H:9])[O:2][C@@:3]2([H:10])[C:4]([H:11])=[C:5]([H:12])[C:6]([H:13])([H:14])[C@@:7]12[H:15]>>[C:1]1([H:8])([H:9])[O+:2]=[C:3]2[C:4]([H:10])([H:11])[C-:5]([H:12])[C:6]([H:13])([H:14])[C@@:7]12[H:15]"
C       -1.59204832      -0.41962169      -0.72519902
O       -0.75201006      -1.58795216      -0.59787246
C       -0.04700579      -1.02062100       0.45981708
C        1.42222471      -0.84744804       0.31294003
C        1.55379449       0.53709021       0.15156230
C        0.25709854       1.28836010      -0.12457091
C       -0.80768744       0.31768823       0.36531079
H       -1.52695964       0.00565865      -1.73003185
H       -2.63176736      -0.66801944      -0.50221124
H        0.88982891      -1.49674818       1.47391932
H        1.93811197      -1.57191066      -0.30909874
H        2.29605955       1.04961967       0.75836294
H        0.22802758       2.23539753       0.41747934
H        0.14830119       1.53771856      -1.18522592
H       -1.37596834       0.64078824       1.23481833
15
Frame=16 idx=008209 GeodesicLength=0.9085939742419864 rxn_smarts="[C:1]1([H:8])([H:9])[O:2][C@@:3]2([H:10])[C:4]([H:11])=[C:5]([H:12])[C:6]([H:13])([H:14])[C@@:7]12[H:15]>>[C:1]1([H:8])([H:9])[O+:2]=[C:3]2[C:4]([H:10])([H:11])[C-:5]([H:12])[C:6]([H:13])([H:14])[C@@:7]12[H:15]"
C       -1.58611715      -0.41952661      -0.72379423
O       -0.74246117      -1.58370176      -0.59447558
C       -0.04479520      -1.01928460       0.47254288
C        1.42716515      -0.84487750       0.31593406
C        1.55111233       0.53713349       0.14972214
C        0.25592531       1.28846012      -0.12578974
C       -0.80781004       0.31956392       0.36865481
H       -1.52339381       0.00624824      -1.72867709
H       -2.62541073      -0.67223423      -0.50277298
H        0.87205813      -1.52117592       1.47580287
H        1.93244372      -1.56341904      -0.32166144
H        2.29406050       1.05284748       0.75323890
H        0.23017552       2.23728291       0.41353384
H        0.14571198       1.53467417      -1.18657082
H       -1.37866453       0.64800934       1.23431240
