11
Frame=0 idx=000630 GeodesicLength=0.0 rxn_smarts="[O:1]=[C:2]([N:3]([C:4]([C:5]#[C:6][H:11])([H:9])[H:10])[H:8])[H:7]>>[O:1]=[C:2]([N:3]([C:4]([C:6](=[C:5])[H:11])([H:9])[H:10])[H:8])[H:7]"
O       -1.97935120       0.02844676      -0.59702917
C       -1.53960907       0.42325627       0.45670324
N       -0.22841493       0.70559913       0.68400169
C        0.76358474       0.36228287      -0.27540151
C        1.67196601      -0.95720546       0.35265831
C        1.06229395      -1.46382301      -0.61062316
H       -2.17552640       0.60829000       1.33787878
H        0.07226281       0.82620203       1.63704777
H        0.26759644       0.33497893      -1.25007691
H        1.55858998       1.09654995      -0.34359580
H        0.52660763      -1.96457744      -1.39156323
11
Frame=1 idx=000630 GeodesicLength=0.046820990414354384 rxn_smarts="[O:1]=[C:2]([N:3]([C:4]([C:5]#[C:6][H:11])([H:9])[H:10])[H:8])[H:7]>>[O:1]=[C:2]([N:3]([C:4]([C:6](=[C:5])[H:11])([H:9])[H:10])[H:8])[H:7]"
O       -1.98996030       0.07156106      -0.61115907
C       -1.54422009       0.42406184       0.45498044
N       -0.23066032       0.68472522       0.68981035
C        0.76086529       0.36414213      -0.27980964
C        1.71080746      -0.94470694       0.32705340
C        1.08434821      -1.46282651      -0.61776540
H       -2.18159342       0.61793054       1.33338129
H        0.06820464       0.78681692       1.64547649
H        0.27056949       0.34583494      -1.25734827
H        1.54057927       1.11601418      -0.34124375
H        0.51105976      -2.00355338      -1.34337585
11
Frame=2 idx=000630 GeodesicLength=0.0939444408183172 rxn_smarts="[O:1]=[C:2]([N:3]([C:4]([C:5]#[C:6][H:11])([H:9])[H:10])[H:8])[H:7]>>[O:1]=[C:2]([N:3]([C:4]([C:6](=[C:5])[H:11])([H:9])[H:10])[H:8])[H:7]"
O       -2.00118614       0.11756501      -0.62386912
C       -1.54967226       0.42698511       0.45317906
N       -0.23346938       0.66290091       0.69497336
C        0.75722803       0.36526146      -0.28468596
C        1.74838702      -0.93195067       0.30016409
C        1.10553837      -1.46233034      -0.62529001
H       -2.18704260       0.62857732       1.33004771
H        0.06382638       0.74530560       1.65291852
H        0.27245223       0.35641911      -1.26489844
H        1.52147596       1.13419862      -0.33878991
H        0.50246239      -2.04293213      -1.29374929
11
Frame=3 idx=000630 GeodesicLength=0.14134087820571664 rxn_smarts="[O:1]=[C:2]([N:3]([C:4]([C:5]#[C:6][H:11])([H:9])[H:10])[H:8])[H:7]>>[O:1]=[C:2]([N:3]([C:4]([C:6](=[C:5])[H:11])([H:9])[H:10])[H:8])[H:7]"
O       -2.01282069       0.16586489      -0.63491514
C       -1.55592284       0.43252651       0.45129997
N       -0.23690366       0.64035141       0.69938837
C        0.75269082       0.36560126      -0.28998593
C        1.78447158      -0.91903798       0.27229573
C        1.12568454      -1.46246764      -0.63284021
H       -2.19188659       0.64014881       1.32800437
H        0.05899288       0.70196159       1.65922650
H        0.27331666       0.36667237      -1.27270563
H        1.50143714       1.15094140      -0.33620271
H        0.50094016      -2.08256263      -1.24356533
11
Frame=4 idx=000630 GeodesicLength=0.18939730517905767 rxn_smarts="[O:1]=[C:2]([N:3]([C:4]([C:5]#[C:6][H:11])([H:9])[H:10])[H:8])[H:7]>>[O:1]=[C:2]([N:3]([C:4]([C:6](=[C:5])[H:11])([H:9])[H:10])[H:8])[H:7]"
O       -2.02512256       0.21635170      -0.64370441
C       -1.56313188       0.44078466       0.44992514
N       -0.24121164       0.61695317       0.70321079
C        0.74692190       0.36476506      -0.29558093
C        1.81882659      -0.90609986       0.24404381
C        1.14490704      -1.46358394      -0.63985809
H       -2.19628364       0.65469181       1.32738680
H        0.05352056       0.65713502       1.66444346
H        0.27270653       0.37590719      -1.28057451
H        1.48010556       1.16588977      -0.33368913
H        0.50876154      -2.12279458      -1.19560293
11
Frame=5 idx=000630 GeodesicLength=0.23791919672847012 rxn_smarts="[O:1]=[C:2]([N:3]([C:4]([C:5]#[C:6][H:11])([H:9])[H:10])[H:8])[H:7]>>[O:1]=[C:2]([N:3]([C:4]([C:6](=[C:5])[H:11])([H:9])[H:10])[H:8])[H:7]"
O       -2.03713015       0.27451132      -0.65287604
C       -1.57042755       0.45068479       0.44759773
N       -0.24601703       0.59275652       0.70541917
C        0.74084344       0.36369182      -0.30215035
C        1.85284766      -0.89195754       0.21407824
C        1.16405784      -1.46485921      -0.64691270
H       -2.19972968       0.66314575       1.32837212
H        0.04740545       0.60967768       1.66762564
H        0.27202258       0.38514420      -1.28937031
H        1.45808562       1.18026491      -0.33139338
H        0.51804179      -2.16306024      -1.14039012
11
Frame=6 idx=000630 GeodesicLength=0.28703196704143785 rxn_smarts="[O:1]=[C:2]([N:3]([C:4]([C:5]#[C:6][H:11])([H:9])[H:10])[H:8])[H:7]>>[O:1]=[C:2]([N:3]([C:4]([C:6](=[C:5])[H:11])([H:9])[H:10])[H:8])[H:7]"
O       -2.04898908       0.33742995      -0.66043734
C       -1.57819625       0.46290175       0.44530887
N       -0.25165152       0.56814725       0.70641841
C        0.73396180       0.36174583      -0.30934294
C        1.88548735      -0.87750217       0.18355753
C        1.18245816      -1.46707452      -0.65314864
H       -2.20286754       0.67007472       1.33086570
H        0.04050561       0.56094613       1.66905778
H        0.27048520       0.39353550      -1.29868381
H        1.43528611       1.19310907      -0.32941632
H        0.53352016      -2.20331351      -1.08417924
11
Frame=7 idx=000630 GeodesicLength=0.3353532810410373 rxn_smarts="[O:1]=[C:2]([N:3]([C:4]([C:5]#[C:6][H:11])([H:9])[H:10])[H:8])[H:7]>>[O:1]=[C:2]([N:3]([C:4]([C:6](=[C:5])[H:11])([H:9])[H:10])[H:8])[H:7]"
O       -2.06046996       0.39595656      -0.66416677
C       -1.58654656       0.47763517       0.44434268
N       -0.25845912       0.54312870       0.70700729
C        0.72581164       0.35847438      -0.31626788
C        1.91505444      -0.86405915       0.15388484
C        1.19938539      -1.47032778      -0.65846825
H       -2.20567168       0.68521877       1.33384428
H        0.03247927       0.51221601       1.66942184
H        0.26758913       0.40128061      -1.30748341
H        1.41174586       1.20353126      -0.32677230
H        0.55908159      -2.24305452      -1.03534231
11
Frame=8 idx=000630 GeodesicLength=0.38337074194820814 rxn_smarts="[O:1]=[C:2]([N:3]([C:4]([C:5]#[C:6][H:11])([H:9])[H:10])[H:8])[H:7]>>[O:1]=[C:2]([N:3]([C:4]([C:6](=[C:5])[H:11])([H:9])[H:10])[H:8])[H:7]"
O       -2.07119302       0.45610303      -0.66635578
C       -1.59492015       0.49399985       0.44356157
N       -0.26608763       0.51808122       0.70636585
C        0.71719478       0.35466160      -0.32364955
C        1.94312418      -0.85056305       0.12385794
C        1.21548709      -1.47425256      -0.66303967
H       -2.20802980       0.69966265       1.33785795
H        0.02348564       0.46270262       1.66801983
H        0.26437407       0.40890205      -1.31669081
H        1.38806891       1.21259583      -0.32396850
H        0.58849594      -2.28189323      -0.98595882
11
Frame=9 idx=000630 GeodesicLength=0.43152551052148536 rxn_smarts="[O:1]=[C:2]([N:3]([C:4]([C:5]#[C:6][H:11])([H:9])[H:10])[H:8])[H:7]>>[O:1]=[C:2]([N:3]([C:4]([C:6](=[C:5])[H:11])([H:9])[H:10])[H:8])[H:7]"
O       -2.08030525       0.52642132      -0.66782813
C       -1.60279117       0.51155826       0.44214123
N       -0.27422739       0.49347749       0.70361741
C        0.70831815       0.35056168      -0.33236232
C        1.97044330      -0.83612640       0.09259642
C        1.23084970      -1.47896847      -0.66598919
H       -2.21028751       0.70404237       1.34332562
H        0.01376916       0.41181793       1.66378654
H        0.26100956       0.41585793      -1.32713663
H        1.36416220       1.22077426      -0.32249257
H        0.61905924      -2.31941636      -0.92965838
11
Frame=10 idx=000630 GeodesicLength=0.47837796088409523 rxn_smarts="[O:1]=[C:2]([N:3]([C:4]([C:5]#[C:6][H:11])([H:9])[H:10])[H:8])[H:7]>>[O:1]=[C:2]([N:3]([C:4]([C:6](=[C:5])[H:11])([H:9])[H:10])[H:8])[H:7]"
O       -2.08854946       0.59039936      -0.66635289
C       -1.61070996       0.53052461       0.44196610
N       -0.28346670       0.46907557       0.70037754
C        0.69868552       0.34558874      -0.34071041
C        1.99483256      -0.82305796       0.06252399
C        1.24495400      -1.48442264      -0.66818609
H       -2.21206824       0.71559369       1.34891529
H        0.00278442       0.36209352       1.65848567
H        0.25707863       0.42297445      -1.33706135
H        1.34041307       1.22684578      -0.31997894
H        0.65604615      -2.35561512      -0.87997890
11
Frame=11 idx=000630 GeodesicLength=0.5242063110929527 rxn_smarts="[O:1]=[C:2]([N:3]([C:4]([C:5]#[C:6][H:11])([H:9])[H:10])[H:8])[H:7]>>[O:1]=[C:2]([N:3]([C:4]([C:6](=[C:5])[H:11])([H:9])[H:10])[H:8])[H:7]"
O       -2.09557352       0.65293570      -0.66310733
C       -1.61816617       0.55061462       0.44229066
N       -0.29333727       0.44578178       0.69610409
C        0.68881168       0.34032022      -0.34931139
C        2.01708024      -0.81078243       0.03282150
C        1.25753617      -1.49057414      -0.66910526
H       -2.21365059       0.72652976       1.35502112
H       -0.00910191       0.31335635       1.65155881
H        0.25317364       0.43047003      -1.34714987
H        1.31742432       1.23144089      -0.31730824
H        0.69580339      -2.39009278      -0.83181409
11
Frame=12 idx=000630 GeodesicLength=0.5691333004752138 rxn_smarts="[O:1]=[C:2]([N:3]([C:4]([C:5]#[C:6][H:11])([H:9])[H:10])[H:8])[H:7]>>[O:1]=[C:2]([N:3]([C:4]([C:6](=[C:5])[H:11])([H:9])[H:10])[H:8])[H:7]"
O       -2.10145846       0.71353359      -0.65834557
C       -1.62514283       0.57131845       0.44313090
N       -0.30384566       0.42318906       0.69086628
C        0.67873643       0.33487231      -0.35816480
C        2.03756712      -0.79914453       0.00300820
C        1.26887006      -1.49723334      -0.66907898
H       -2.21488143       0.73795169       1.36142461
H       -0.02201328       0.26468828       1.64300964
H        0.24938317       0.43865583      -1.35736974
H        1.29509513       1.23482499      -0.31422114
H        0.73768976      -2.42265632      -0.78425941
11
Frame=13 idx=000630 GeodesicLength=0.6133426411754181 rxn_smarts="[O:1]=[C:2]([N:3]([C:4]([C:5]#[C:6][H:11])([H:9])[H:10])[H:8])[H:7]>>[O:1]=[C:2]([N:3]([C:4]([C:6](=[C:5])[H:11])([H:9])[H:10])[H:8])[H:7]"
O       -2.10583286       0.77460698      -0.65212729
C       -1.63143767       0.59226267       0.44423873
N       -0.31476844       0.40163012       0.68445115
C        0.66855324       0.32944368      -0.36756398
C        2.05658878      -0.78791590      -0.02761563
C        1.27887972      -1.50441462      -0.66779737
H       -2.21595893       0.74704061       1.36798937
H       -0.03585527       0.21545981       1.63236605
H        0.24574875       0.44754199      -1.36790614
H        1.27344820       1.23723356      -0.31114916
H        0.78063448      -2.45288889      -0.73488573
11
Frame=14 idx=000630 GeodesicLength=0.6568665667574382 rxn_smarts="[O:1]=[C:2]([N:3]([C:4]([C:5]#[C:6][H:11])([H:9])[H:10])[H:8])[H:7]>>[O:1]=[C:2]([N:3]([C:4]([C:6](=[C:5])[H:11])([H:9])[H:10])[H:8])[H:7]"
O       -2.10951140       0.83246422      -0.64456957
C       -1.63737190       0.61352891       0.44606453
N       -0.32642235       0.38070471       0.67735303
C        0.65807463       0.32371742      -0.37702976
C        2.07385091      -0.77756056      -0.05790855
C        1.28789600      -1.51211948      -0.66532992
H       -2.21642999       0.75868767       1.37488215
H       -0.05095196       0.16655558       1.62030913
H        0.24218995       0.45698649      -1.37834223
H        1.25240846       1.23837196      -0.30756595
H        0.82626765      -2.48133692      -0.68786287
11
Frame=15 idx=000630 GeodesicLength=0.6996428389822685 rxn_smarts="[O:1]=[C:2]([N:3]([C:4]([C:5]#[C:6][H:11])([H:9])[H:10])[H:8])[H:7]>>[O:1]=[C:2]([N:3]([C:4]([C:6](=[C:5])[H:11])([H:9])[H:10])[H:8])[H:7]"
O       -2.11275199       0.88627174      -0.63603149
C       -1.64295636       0.63484308       0.44858437
N       -0.33888129       0.36013185       0.66963814
C        0.64727955       0.31763832      -0.38644007
C        2.08935831      -0.76820283      -0.08761542
C        1.29617093      -1.52027806      -0.66184386
H       -2.21587488       0.77377249       1.38221662
H       -0.06737628       0.11841931       1.60701666
H        0.23881653       0.46707036      -1.38850526
H        1.23188620       1.23821989      -0.30322761
H        0.87432928      -2.50788617      -0.64379210
11
Frame=16 idx=000630 GeodesicLength=0.7422961197390582 rxn_smarts="[O:1]=[C:2]([N:3]([C:4]([C:5]#[C:6][H:11])([H:9])[H:10])[H:8])[H:7]>>[O:1]=[C:2]([N:3]([C:4]([C:6](=[C:5])[H:11])([H:9])[H:10])[H:8])[H:7]"
O       -2.11429313       0.94345478      -0.62576721
C       -1.64786883       0.65672712       0.45151307
N       -0.35166851       0.34110271       0.66094050
C        0.63617548       0.31131201      -0.39662016
C        2.10363509      -0.75919099      -0.11755414
C        1.30356166      -1.52916946      -0.65586322
H       -2.21574991       0.78437813       1.38987300
H       -0.08481370       0.07031034       1.59163317
H        0.23514430       0.47667825      -1.39917254
H        1.21179502       1.23708967      -0.30017960
H        0.92408252      -2.53269256      -0.59880285
