12
Frame=0 idx=000786 GeodesicLength=0.0 rxn_smarts="[N:1]([C:2](=[O:3])[C@@:4]1([H:9])[C:5]([H:10])([H:11])[N:6]1[H:12])([H:7])[H:8]>>[N:1]([C:2]([O-:3])=[C:4]1[C:5]([H:10])([H:11])[N+:6]1([H:9])[H:12])([H:7])[H:8]"
N        1.81507411      -0.04298835       0.16043634
C        0.87272677       0.93407073       0.14521557
O        1.10147303       2.09543217      -0.12994961
C       -0.53584709       0.64647912       0.54698371
C       -1.30624391       0.05494104      -0.56924101
N       -0.82521458      -1.13007075       0.18190150
H        2.73232207       0.20763757      -0.16581465
H        1.53748288      -1.00852836       0.13023762
H       -0.49082750      -0.55176524       1.16941646
H       -0.87215363       0.09852196      -1.56463141
H       -2.38367772       0.19383883      -0.57224042
H       -1.64511439      -1.49756872       0.66768590
12
Frame=1 idx=000786 GeodesicLength=0.06923333248794454 rxn_smarts="[N:1]([C:2](=[O:3])[C@@:4]1([H:9])[C:5]([H:10])([H:11])[N:6]1[H:12])([H:7])[H:8]>>[N:1]([C:2]([O-:3])=[C:4]1[C:5]([H:10])([H:11])[N+:6]1([H:9])[H:12])([H:7])[H:8]"
N        1.82055933      -0.04142693       0.14578898
C        0.87250285       0.93036712       0.13981680
O        1.09716879       2.09413423      -0.12877777
C       -0.53086364       0.62710120       0.54178493
C       -1.31321764       0.05868103      -0.57588706
N       -0.83551439      -1.12078630       0.18199982
H        2.74167697       0.21824129      -0.16116066
H        1.55215099      -1.00963900       0.15142410
H       -0.48023208      -0.56498881       1.18586978
H       -0.88184799       0.09657834      -1.57265367
H       -2.38929852       0.20711482      -0.57284371
H       -1.65308467      -1.49537699       0.66463845
12
Frame=2 idx=000786 GeodesicLength=0.13845594754503665 rxn_smarts="[N:1]([C:2](=[O:3])[C@@:4]1([H:9])[C:5]([H:10])([H:11])[N:6]1[H:12])([H:7])[H:8]>>[N:1]([C:2]([O-:3])=[C:4]1[C:5]([H:10])([H:11])[N+:6]1([H:9])[H:12])([H:7])[H:8]"
N        1.82561114      -0.04047449       0.12844352
C        0.87227444       0.92637328       0.13365967
O        1.09288610       2.09255282      -0.12806640
C       -0.52565837       0.60753187       0.53615214
C       -1.32049309       0.06245570      -0.58230285
N       -0.84626297      -1.11173102       0.18219108
H        2.75196825       0.22964737      -0.15187938
H        1.56716510      -1.01010594       0.17156416
H       -0.46877135      -0.57862549       1.20123304
H       -0.89238689       0.09421754      -1.58064729
H       -2.39501430       0.22096553      -0.57268955
H       -1.66131805      -1.49280717       0.66234186
12
Frame=3 idx=000786 GeodesicLength=0.20763791650467955 rxn_smarts="[N:1]([C:2](=[O:3])[C@@:4]1([H:9])[C:5]([H:10])([H:11])[N:6]1[H:12])([H:7])[H:8]>>[N:1]([C:2]([O-:3])=[C:4]1[C:5]([H:10])([H:11])[N+:6]1([H:9])[H:12])([H:7])[H:8]"
N        1.83025481      -0.04013392       0.10799377
C        0.87207055       0.92208667       0.12671540
O        1.08864774       2.09068155      -0.12782888
C       -0.52021201       0.58778886       0.53005667
C       -1.32806092       0.06629034      -0.58845856
N       -0.85737075      -1.10290514       0.18239970
H        2.76276924       0.24159026      -0.13782591
H        1.58264917      -1.00971219       0.19111204
H       -0.45640254      -0.59270171       1.21542022
H       -0.90382470       0.09154522      -1.58860245
H       -2.40079952       0.23538464      -0.57170635
H       -1.66972108      -1.48991457       0.66072434
12
Frame=4 idx=000786 GeodesicLength=0.27673446851847555 rxn_smarts="[N:1]([C:2](=[O:3])[C@@:4]1([H:9])[C:5]([H:10])([H:11])[N:6]1[H:12])([H:7])[H:8]>>[N:1]([C:2]([O-:3])=[C:4]1[C:5]([H:10])([H:11])[N+:6]1([H:9])[H:12])([H:7])[H:8]"
N        1.83455544      -0.04036684       0.08426294
C        0.87194311       0.91750170       0.11879474
O        1.08452521       2.08850603      -0.12830913
C       -0.51444603       0.56790407       0.52342746
C       -1.33594666       0.07018358      -0.59429783
N       -0.86876159      -1.09431627       0.18259963
H        2.77359083       0.25373211      -0.11805555
H        1.59868176      -1.00814635       0.20965018
H       -0.44297335      -0.60722092       1.22833354
H       -0.91634107       0.08859412      -1.59650596
H       -2.40664823       0.25035885      -0.56973091
H       -1.67817943      -1.48673005       0.65983090
12
Frame=5 idx=000786 GeodesicLength=0.3457193290778584 rxn_smarts="[N:1]([C:2](=[O:3])[C@@:4]1([H:9])[C:5]([H:10])([H:11])[N:6]1[H:12])([H:7])[H:8]>>[N:1]([C:2]([O-:3])=[C:4]1[C:5]([H:10])([H:11])[N+:6]1([H:9])[H:12])([H:7])[H:8]"
N        1.83876040      -0.04078318       0.05951443
C        0.87185773       0.91277067       0.11068414
O        1.08049653       2.08616882      -0.12871096
C       -0.50855055       0.54797355       0.51642834
C       -1.34368179       0.07402319      -0.59999006
N       -0.88025110      -1.08593925       0.18299104
H        2.78288353       0.26513974      -0.09626328
H        1.61520505      -1.00496196       0.22737482
H       -0.42889950      -0.62202321       1.24030093
H       -0.92901440       0.08518110      -1.60432090
H       -2.41208833       0.26569505      -0.56750666
H       -1.68671756      -1.48324451       0.65949817
12
Frame=6 idx=000786 GeodesicLength=0.41459081110797097 rxn_smarts="[N:1]([C:2](=[O:3])[C@@:4]1([H:9])[C:5]([H:10])([H:11])[N:6]1[H:12])([H:7])[H:8]>>[N:1]([C:2]([O-:3])=[C:4]1[C:5]([H:10])([H:11])[N+:6]1([H:9])[H:12])([H:7])[H:8]"
N        1.84314305      -0.04087331       0.03728291
C        0.87173149       0.90811502       0.10361347
O        1.07649728       2.08387120      -0.12787561
C       -0.50286268       0.52810683       0.50937405
C       -1.35069864       0.07763784      -0.60579381
N       -0.89178778      -1.07776310       0.18383110
H        2.78974820       0.27526187      -0.07830449
H        1.63201030      -1.00017740       0.24468534
H       -0.41500767      -0.63688753       1.25187727
H       -0.94055987       0.08100804      -1.61200038
H       -2.41658674       0.28114437      -0.56612784
H       -1.69562694      -1.47944385       0.65943802
12
Frame=7 idx=000786 GeodesicLength=0.48339074054406805 rxn_smarts="[N:1]([C:2](=[O:3])[C@@:4]1([H:9])[C:5]([H:10])([H:11])[N:6]1[H:12])([H:7])[H:8]>>[N:1]([C:2]([O-:3])=[C:4]1[C:5]([H:10])([H:11])[N+:6]1([H:9])[H:12])([H:7])[H:8]"
N        1.84771961      -0.04056136       0.01879587
C        0.87150096       0.90357913       0.09807431
O        1.07244193       2.08163673      -0.12540058
C       -0.49753571       0.50830928       0.50241708
C       -1.35686262       0.08099065      -0.61180720
N       -0.90344150      -1.06978573       0.18515711
H        2.79466705       0.28441767      -0.06656406
H        1.64897511      -0.99418167       0.26205187
H       -0.40173702      -0.65177537       1.26331495
H       -0.95058988       0.07603197      -1.61954045
H       -2.42003066       0.29666399      -0.56598883
H       -1.70510726      -1.47532528       0.65948994
12
Frame=8 idx=000786 GeodesicLength=0.5521314709558444 rxn_smarts="[N:1]([C:2](=[O:3])[C@@:4]1([H:9])[C:5]([H:10])([H:11])[N:6]1[H:12])([H:7])[H:8]>>[N:1]([C:2]([O-:3])=[C:4]1[C:5]([H:10])([H:11])[N+:6]1([H:9])[H:12])([H:7])[H:8]"
N        1.85240471      -0.03998968       0.00334588
C        0.87116641       0.89909801       0.09375554
O        1.06831355       2.07939487      -0.12165424
C       -0.49249503       0.48854116       0.49549639
C       -1.36236819       0.08413205      -0.61796188
N       -0.91528312      -1.06200828       0.18684793
H        2.79845336       0.29308893      -0.05975133
H        1.66608708      -0.98729580       0.27946699
H       -0.38901132      -0.66675928       1.27452251
H       -0.95952075       0.07037794      -1.62695885
H       -2.42260120       0.31232725      -0.56678504
H       -1.71514550      -1.47090719       0.65967609
12
Frame=9 idx=000786 GeodesicLength=0.6208100059874895 rxn_smarts="[N:1]([C:2](=[O:3])[C@@:4]1([H:9])[C:5]([H:10])([H:11])[N:6]1[H:12])([H:7])[H:8]>>[N:1]([C:2]([O-:3])=[C:4]1[C:5]([H:10])([H:11])[N+:6]1([H:9])[H:12])([H:7])[H:8]"
N        1.85713286      -0.03927386      -0.00985745
C        0.87074124       0.89461238       0.09029766
O        1.06411452       2.07708372      -0.11701976
C       -0.48764296       0.46876858       0.48852522
C       -1.36739301       0.08710518      -0.62418286
N       -0.92734201      -1.05442179       0.18879257
H        2.80160767       0.30156523      -0.05632884
H        1.68335741      -0.97969168       0.29680738
H       -0.37667740      -0.68189755       1.28537641
H       -0.96777171       0.06415320      -1.63427075
H       -2.42445239       0.32819141      -0.56818365
H       -1.72567423      -1.46619482       0.66004406
12
Frame=10 idx=000786 GeodesicLength=0.6894466444258456 rxn_smarts="[N:1]([C:2](=[O:3])[C@@:4]1([H:9])[C:5]([H:10])([H:11])[N:6]1[H:12])([H:7])[H:8]>>[N:1]([C:2]([O-:3])=[C:4]1[C:5]([H:10])([H:11])[N+:6]1([H:9])[H:12])([H:7])[H:8]"
N        1.86190459      -0.03846492      -0.02138028
C        0.87022972       0.89007511       0.08745277
O        1.05982183       2.07465754      -0.11170480
C       -0.48290927       0.44895018       0.48142843
C       -1.37204924       0.08994366      -0.63042642
N       -0.93961566      -1.04701575       0.19089985
H        2.80433693       0.30996122      -0.05537302
H        1.70082487      -0.97143386       0.31417184
H       -0.36461605      -0.69725252       1.29577696
H       -0.97562885       0.05744189      -1.64148486
H       -2.42567139       0.34431914      -0.56996727
H       -1.73662748      -1.46118168       0.66060682
12
Frame=11 idx=000786 GeodesicLength=0.7580529129595281 rxn_smarts="[N:1]([C:2](=[O:3])[C@@:4]1([H:9])[C:5]([H:10])([H:11])[N:6]1[H:12])([H:7])[H:8]>>[N:1]([C:2]([O-:3])=[C:4]1[C:5]([H:10])([H:11])[N+:6]1([H:9])[H:12])([H:7])[H:8]"
N        1.86672008      -0.03761206      -0.03159395
C        0.86965929       0.88546005       0.08502028
O        1.05547136       2.07210629      -0.10588337
C       -0.47823239       0.42905276       0.47415098
C       -1.37643649       0.09266441      -0.63666975
N       -0.95212598      -1.03979291       0.19311102
H        2.80682900       0.31839038      -0.05614012
H        1.71851739      -0.96255108       0.33154327
H       -0.35274253      -0.71288065       1.30567389
H       -0.98333409       0.05029835      -1.64864138
H       -2.42633579       0.36074286      -0.57196999
H       -1.74798984      -1.45587842       0.66139912
12
Frame=12 idx=000786 GeodesicLength=0.8266307431336514 rxn_smarts="[N:1]([C:2](=[O:3])[C@@:4]1([H:9])[C:5]([H:10])([H:11])[N:6]1[H:12])([H:7])[H:8]>>[N:1]([C:2]([O-:3])=[C:4]1[C:5]([H:10])([H:11])[N+:6]1([H:9])[H:12])([H:7])[H:8]"
N        1.87157682      -0.03674595      -0.04074257
C        0.86902319       0.88073502       0.08285478
O        1.05103271       2.06939183      -0.09967354
C       -0.47357105       0.40904694       0.46663098
C       -1.38060421       0.09527951      -0.64288872
N       -0.96485287      -1.03272898       0.19538654
H        2.80914665       0.32689352      -0.05808628
H        1.73643687      -0.95306058       0.34887680
H       -0.34098099      -0.72880436       1.31500625
H       -0.99104064       0.04275217      -1.65573312
H       -2.42646510       0.37748909      -0.57407232
H       -1.75970138      -1.45024820       0.66244118
12
Frame=13 idx=000786 GeodesicLength=0.8951929624362045 rxn_smarts="[N:1]([C:2](=[O:3])[C@@:4]1([H:9])[C:5]([H:10])([H:11])[N:6]1[H:12])([H:7])[H:8]>>[N:1]([C:2]([O-:3])=[C:4]1[C:5]([H:10])([H:11])[N+:6]1([H:9])[H:12])([H:7])[H:8]"
N        1.87650156      -0.03587353      -0.04900783
C        0.86833507       0.87588356       0.08085574
O        1.04651532       2.06651452      -0.09310228
C       -0.46888841       0.38889062       0.45882506
C       -1.38459590       0.09779076      -0.64908629
N       -0.97781250      -1.02582529       0.19769601
H        2.81133942       0.33551223      -0.06093864
H        1.75459954      -0.94294791       0.36624880
H       -0.32928410      -0.74507958       1.32374708
H       -0.99887331       0.03481341      -1.66279229
H       -2.42606947       0.39459469      -0.57620973
H       -1.77176723      -1.44427349       0.66376438
12
Frame=14 idx=000786 GeodesicLength=0.9637490124808036 rxn_smarts="[N:1]([C:2](=[O:3])[C@@:4]1([H:9])[C:5]([H:10])([H:11])[N:6]1[H:12])([H:7])[H:8]>>[N:1]([C:2]([O-:3])=[C:4]1[C:5]([H:10])([H:11])[N+:6]1([H:9])[H:12])([H:7])[H:8]"
N        1.88150831      -0.03499793      -0.05649695
C        0.86759452       0.87088305       0.07892677
O        1.04190236       2.06345801      -0.08618729
C       -0.46415320       0.36853833       0.45067781
C       -1.38844126       0.10019244      -0.65526513
N       -0.99101107      -1.01907033       0.20002266
H        2.81344314       0.34428521      -0.06443204
H        1.77301656      -0.93220619       0.38364825
H       -0.31760113      -0.76174693       1.33185683
H       -1.00693886       0.02646787      -1.66983465
H       -2.42513713       0.41209821      -0.57832565
H       -1.78418224      -1.43790174       0.66540941
12
Frame=15 idx=000786 GeodesicLength=1.0322935373485873 rxn_smarts="[N:1]([C:2](=[O:3])[C@@:4]1([H:9])[C:5]([H:10])([H:11])[N:6]1[H:12])([H:7])[H:8]>>[N:1]([C:2]([O-:3])=[C:4]1[C:5]([H:10])([H:11])[N+:6]1([H:9])[H:12])([H:7])[H:8]"
N        1.88659881      -0.03412785      -0.06328746
C        0.86680140       0.86572789       0.07706381
O        1.03717751       2.06021237      -0.07893437
C       -0.45935246       0.34796506       0.44216297
C       -1.39214510       0.10248545      -0.66142849
N       -1.00443437      -1.01244147       0.20236379
H        2.81545912       0.35321473      -0.06848550
H        1.79166616      -0.92082650       0.40109012
H       -0.30592781      -0.77882083       1.33934237
H       -1.01527091       0.01773034      -1.67686030
H       -2.42364784       0.42998791      -0.58041491
H       -1.79692452      -1.43110711       0.66738798
12
Frame=16 idx=000786 GeodesicLength=1.1008393845553672 rxn_smarts="[N:1]([C:2](=[O:3])[C@@:4]1([H:9])[C:5]([H:10])([H:11])[N:6]1[H:12])([H:7])[H:8]>>[N:1]([C:2]([O-:3])=[C:4]1[C:5]([H:10])([H:11])[N+:6]1([H:9])[H:12])([H:7])[H:8]"
N        1.89179504      -0.03326111      -0.06943821
C        0.86595781       0.86039956       0.07520097
O        1.03232601       2.05676503      -0.07132671
C       -0.45445983       0.32711859       0.43322559
C       -1.39573023       0.10465979      -0.66758904
N       -1.01809309      -1.00592607       0.20471196
H        2.81740978       0.36233030      -0.07295121
H        1.81055440      -0.90878602       0.41858903
H       -0.29422393      -0.79634745       1.34617232
H       -1.02395722       0.00858502      -1.68389166
H       -2.42157974       0.44829473      -0.58245048
H       -1.80999899      -1.42383237       0.66974744
