13
Frame=0 idx=009889 GeodesicLength=0.0 rxn_smarts="[C:1]([C@@:2]([O:3][C:4](=[O:5])[H:12])([C:6]#[C:7][H:13])[H:11])([H:8])([H:9])[H:10]>>[C:1]([C-:2]([O+:3]=[C:4]([O:5][C:6]#[C:7][H:13])[H:12])[H:11])([H:8])([H:9])[H:10]"
C       -1.35322442      -1.45517274      -0.00266038
C       -0.13572722      -0.64469579       0.26757077
O        0.88022310      -0.86072765      -0.59389632
C        1.87542171      -0.05114226      -0.57074828
O        1.74747045       1.01657185       0.20089662
C        0.46719810       1.58338280       0.21882654
C       -0.21896498       2.56700855       0.34459448
H       -1.67240500      -1.35804799      -1.04163838
H       -2.16518170      -1.09113451       0.62775973
H       -1.21911152      -2.52216195       0.21488116
H        0.17399541      -0.46175893       1.28783060
H        2.56087638      -0.06332367      -1.40428533
H       -0.94057029       3.34120233       0.45086881
13
Frame=1 idx=009889 GeodesicLength=0.10018793194300137 rxn_smarts="[C:1]([C@@:2]([O:3][C:4](=[O:5])[H:12])([C:6]#[C:7][H:13])[H:11])([H:8])([H:9])[H:10]>>[C:1]([C-:2]([O+:3]=[C:4]([O:5][C:6]#[C:7][H:13])[H:12])[H:11])([H:8])([H:9])[H:10]"
C       -1.35414153      -1.45137970      -0.00165184
C       -0.14172640      -0.62886128       0.25890537
O        0.86779771      -0.84460343      -0.61194680
C        1.88743706      -0.06155772      -0.56339131
O        1.76928635       1.00087584       0.21504452
C        0.45968732       1.57927302       0.23530142
C       -0.23255066       2.55987759       0.34833402
H       -1.67812434      -1.36106136      -1.03958580
H       -2.16593173      -1.09293575       0.63220484
H       -1.20396744      -2.51493806       0.22127910
H        0.17614880      -0.46873284       1.28129959
H        2.55875034      -0.06317770      -1.40938136
H       -0.94266550       3.34722138       0.43358825
13
Frame=2 idx=009889 GeodesicLength=0.20036123207416295 rxn_smarts="[C:1]([C@@:2]([O:3][C:4](=[O:5])[H:12])([C:6]#[C:7][H:13])[H:11])([H:8])([H:9])[H:10]>>[C:1]([C-:2]([O+:3]=[C:4]([O:5][C:6]#[C:7][H:13])[H:12])[H:11])([H:8])([H:9])[H:10]"
C       -1.35465022      -1.44774532      -0.00069308
C       -0.14759366      -0.61325227       0.25080964
O        0.85588300      -0.82852270      -0.62889212
C        1.89854953      -0.07239530      -0.55676371
O        1.79075736       0.98447413       0.22871624
C        0.45077377       1.57537653       0.24978880
C       -0.24684686       2.55327708       0.34974523
H       -1.68284352      -1.36420854      -1.03770159
H       -2.16652381      -1.09490943       0.63622083
H       -1.18849810      -2.50762710       0.22751820
H        0.17772486      -0.47454444       1.27480265
H        2.55694106      -0.06384652      -1.41373899
H       -0.94367342       3.35392388       0.42018792
13
Frame=3 idx=009889 GeodesicLength=0.300484948681041 rxn_smarts="[C:1]([C@@:2]([O:3][C:4](=[O:5])[H:12])([C:6]#[C:7][H:13])[H:11])([H:8])([H:9])[H:10]>>[C:1]([C-:2]([O+:3]=[C:4]([O:5][C:6]#[C:7][H:13])[H:12])[H:11])([H:8])([H:9])[H:10]"
C       -1.35490834      -1.44402835       0.00039326
C       -0.15308357      -0.59828522       0.24375090
O        0.84388450      -0.81163405      -0.64552436
C        1.90848873      -0.08308458      -0.55119413
O        1.81245983       0.96656569       0.24345197
C        0.44110967       1.57120039       0.26591842
C       -0.26074544       2.54690540       0.35413642
H       -1.68763951      -1.36548393      -1.03538826
H       -2.16646769      -1.09768481       0.64127796
H       -1.17289370      -2.50040862       0.23191134
H        0.17991145      -0.48138133       1.26880513
H        2.55419464      -0.06330374      -1.41850808
H       -0.94431056       3.36062316       0.40096943
13
Frame=4 idx=009889 GeodesicLength=0.4005734159522249 rxn_smarts="[C:1]([C@@:2]([O:3][C:4](=[O:5])[H:12])([C:6]#[C:7][H:13])[H:11])([H:8])([H:9])[H:10]>>[C:1]([C-:2]([O+:3]=[C:4]([O:5][C:6]#[C:7][H:13])[H:12])[H:11])([H:8])([H:9])[H:10]"
C       -1.35480912      -1.44047062       0.00143794
C       -0.15844811      -0.58354103       0.23721791
O        0.83236617      -0.79483439      -0.66110859
C        1.91773342      -0.09419422      -0.54620690
O        1.83401617       0.94772489       0.25797655
C        0.43013942       1.56726155       0.28021507
C       -0.27492122       2.54140131       0.35608687
H       -1.69151238      -1.36695949      -1.03326063
H       -2.16628863      -1.10056839       0.64588405
H       -1.15706457      -2.49311610       0.23625500
H        0.18155854      -0.48712557       1.26290909
H        2.55155738      -0.06328007      -1.42283795
H       -0.94432707       3.36770213       0.38543160
13
Frame=5 idx=009889 GeodesicLength=0.5006224793242827 rxn_smarts="[C:1]([C@@:2]([O:3][C:4](=[O:5])[H:12])([C:6]#[C:7][H:13])[H:11])([H:8])([H:9])[H:10]>>[C:1]([C-:2]([O+:3]=[C:4]([O:5][C:6]#[C:7][H:13])[H:12])[H:11])([H:8])([H:9])[H:10]"
C       -1.35437444      -1.43707669       0.00245176
C       -0.16367885      -0.56904972       0.23117889
O        0.82128421      -0.77811960      -0.67575679
C        1.92633727      -0.10570452      -0.54176987
O        1.85552990       0.92779216       0.27249144
C        0.41791683       1.56355241       0.29290667
C       -0.28914241       2.53686880       0.35589997
H       -1.69455450      -1.36858593      -1.03128789
H       -2.16597039      -1.10358737       0.65011669
H       -1.14103488      -2.48576795       0.24051721
H        0.18275120      -0.49192651       1.25715710
H        2.54890413      -0.06357101      -1.42687859
H       -0.94396807       3.37517591       0.37297341
13
Frame=6 idx=009889 GeodesicLength=0.6006310249299835 rxn_smarts="[C:1]([C@@:2]([O:3][C:4](=[O:5])[H:12])([C:6]#[C:7][H:13])[H:11])([H:8])([H:9])[H:10]>>[C:1]([C-:2]([O+:3]=[C:4]([O:5][C:6]#[C:7][H:13])[H:12])[H:11])([H:8])([H:9])[H:10]"
C       -1.35369112      -1.43378797       0.00351644
C       -0.16869306      -0.55501001       0.22589771
O        0.81027536      -0.76096720      -0.68986468
C        1.93413316      -0.11729210      -0.53809121
O        1.87728247       0.90626322       0.28779493
C        0.40471646       1.55982079       0.30594719
C       -0.30280961       2.53324281       0.35646938
H       -1.69735224      -1.36939562      -1.02918344
H       -2.16527132      -1.10718472       0.65473195
H       -1.12484598      -2.47854033       0.24379383
H        0.18407071      -0.49693045       1.25178436
H        2.54556690      -0.06299751      -1.43118027
H       -0.94338174       3.38277908       0.35838382
13
Frame=7 idx=009889 GeodesicLength=0.7004960488286204 rxn_smarts="[C:1]([C@@:2]([O:3][C:4](=[O:5])[H:12])([C:6]#[C:7][H:13])[H:11])([H:8])([H:9])[H:10]>>[C:1]([C-:2]([O+:3]=[C:4]([O:5][C:6]#[C:7][H:13])[H:12])[H:11])([H:8])([H:9])[H:10]"
C       -1.35276938      -1.43058514       0.00463896
C       -0.17352163      -0.54136970       0.22133012
O        0.79932140      -0.74332885      -0.70340778
C        1.94117577      -0.12895146      -0.53516269
O        1.89931819       0.88300511       0.30381708
C        0.39054447       1.55603105       0.31925037
C       -0.31573636       2.53064252       0.35768296
H       -1.69985892      -1.36950067      -1.02693217
H       -2.16423231      -1.11130221       0.65962866
H       -1.10852867      -2.47135107       0.24623409
H        0.18545307      -0.50204934       1.24672776
H        2.54157949      -0.06149229      -1.43570222
H       -0.94274513       3.39025205       0.34189486
13
Frame=8 idx=009889 GeodesicLength=0.8002234671563874 rxn_smarts="[C:1]([C@@:2]([O:3][C:4](=[O:5])[H:12])([C:6]#[C:7][H:13])[H:11])([H:8])([H:9])[H:10]>>[C:1]([C-:2]([O+:3]=[C:4]([O:5][C:6]#[C:7][H:13])[H:12])[H:11])([H:8])([H:9])[H:10]"
C       -1.35154674      -1.42762640       0.00574318
C       -0.17824368      -0.52798489       0.21716083
O        0.78877559      -0.72583942      -0.71611382
C        1.94773309      -0.14105048      -0.53273002
O        1.92143927       0.85825521       0.32000080
C        0.37508596       1.55254314       0.33095478
C       -0.32826578       2.52944618       0.35672041
H       -1.70159958      -1.36996663      -1.02485800
H       -2.16309659      -1.11556575       0.66412525
H       -1.09204615      -2.46418770       0.24876758
H        0.18639287      -0.50621955       1.24186624
H        2.53751436      -0.06000106      -1.44008404
H       -0.94214263       3.39819737       0.32844681
13
Frame=9 idx=009889 GeodesicLength=0.9000627498291784 rxn_smarts="[C:1]([C@@:2]([O:3][C:4](=[O:5])[H:12])([C:6]#[C:7][H:13])[H:11])([H:8])([H:9])[H:10]>>[C:1]([C-:2]([O+:3]=[C:4]([O:5][C:6]#[C:7][H:13])[H:12])[H:11])([H:8])([H:9])[H:10]"
C       -1.34997176      -1.42490011       0.00679677
C       -0.18287257      -0.51475641       0.21312433
O        0.77880295      -0.70884511      -0.72793379
C        1.95396860      -0.15376785      -0.53068450
O        1.94368630       0.83198998       0.33595403
C        0.35816599       1.54949164       0.33991967
C       -0.34041126       2.52970444       0.35313033
H       -1.70233600      -1.37127358      -1.02306767
H       -2.16193681      -1.11966931       0.66787123
H       -1.07538046      -2.45688971       0.25192596
H        0.18666988      -0.50885652       1.23705741
H        2.53364951      -0.05906633      -1.44403996
H       -0.94203437       3.40683887       0.31994618
13
Frame=10 idx=009889 GeodesicLength=0.9997702048486158 rxn_smarts="[C:1]([C@@:2]([O:3][C:4](=[O:5])[H:12])([C:6]#[C:7][H:13])[H:11])([H:8])([H:9])[H:10]>>[C:1]([C-:2]([O+:3]=[C:4]([O:5][C:6]#[C:7][H:13])[H:12])[H:11])([H:8])([H:9])[H:10]"
C       -1.34816231      -1.42238113       0.00790059
C       -0.18736088      -0.50190916       0.20966285
O        0.76887761      -0.69146526      -0.73929449
C        1.95957213      -0.16666008      -0.52935116
O        1.96629843       0.80353220       0.35271250
C        0.34011847       1.54650774       0.34891010
C       -0.35141309       2.53147201       0.35024554
H       -1.70281143      -1.37217942      -1.02118864
H       -2.16047077      -1.12434422       0.67184827
H       -1.05853046      -2.44974114       0.25442819
H        0.18696498      -0.51146944       1.23259059
H        2.52917849      -0.05704454      -1.44822578
H       -0.94226115       3.41568243       0.30976145
13
Frame=11 idx=009889 GeodesicLength=1.09940902398071 rxn_smarts="[C:1]([C@@:2]([O:3][C:4](=[O:5])[H:12])([C:6]#[C:7][H:13])[H:11])([H:8])([H:9])[H:10]>>[C:1]([C-:2]([O+:3]=[C:4]([O:5][C:6]#[C:7][H:13])[H:12])[H:11])([H:8])([H:9])[H:10]"
C       -1.34610922      -1.42015804       0.00906261
C       -0.19178758      -0.48941648       0.20677133
O        0.75890232      -0.67358213      -0.75020990
C        1.96450374      -0.17967468      -0.52874726
O        1.98925776       0.77261479       0.37031253
C        0.32081822       1.54360080       0.35803839
C       -0.36113637       2.53487286       0.34800231
H       -1.70305235      -1.37280839      -1.01920790
H       -2.15869857      -1.12977096       0.67607001
H       -1.04137217      -2.44279594       0.25629222
H        0.18722399      -0.51407179       1.22847032
H        2.52400504      -0.05365528      -1.45258682
H       -0.94255480       3.42484525       0.29773215
13
Frame=12 idx=009889 GeodesicLength=1.1990146650885258 rxn_smarts="[C:1]([C@@:2]([O:3][C:4](=[O:5])[H:12])([C:6]#[C:7][H:13])[H:11])([H:8])([H:9])[H:10]>>[C:1]([C-:2]([O+:3]=[C:4]([O:5][C:6]#[C:7][H:13])[H:12])[H:11])([H:8])([H:9])[H:10]"
C       -1.34382030      -1.41829331       0.01030684
C       -0.19616072      -0.47736995       0.20460983
O        0.74870089      -0.65490874      -0.76073138
C        1.96863781      -0.19258195      -0.52903540
O        2.01259038       0.73887764       0.38890363
C        0.30014244       1.54062569       0.36806868
C       -0.36958781       2.53980563       0.34819271
H       -1.70324880      -1.37288149      -1.01702831
H       -2.15651805      -1.13626749       0.68078710
H       -1.02384463      -2.43619101       0.25713962
H        0.18762565      -0.51708440       1.22478816
H        2.51780833      -0.04818311      -1.45725310
H       -0.94232519       3.43445249       0.28125162
13
Frame=13 idx=009889 GeodesicLength=1.2986057535393 rxn_smarts="[C:1]([C@@:2]([O:3][C:4](=[O:5])[H:12])([C:6]#[C:7][H:13])[H:11])([H:8])([H:9])[H:10]>>[C:1]([C-:2]([O+:3]=[C:4]([O:5][C:6]#[C:7][H:13])[H:12])[H:11])([H:8])([H:9])[H:10]"
C       -1.34116667      -1.41673496       0.01154983
C       -0.20051933      -0.46537228       0.20239529
O        0.73901202      -0.63669157      -0.77054270
C        1.97250645      -0.20621658      -0.52970969
O        2.03610387       0.70273817       0.40729627
C        0.27778589       1.53826047       0.37516442
C       -0.37691742       2.54669430       0.34508282
H       -1.70243713      -1.37413343      -1.01509722
H       -2.15433610      -1.14263337       0.68475169
H       -1.00602869      -2.42943109       0.25891786
H        0.18730708      -0.51833142       1.22116316
H        2.51191009      -0.04291478      -1.46133860
H       -0.94322005       3.44476655       0.27036687
13
Frame=14 idx=009889 GeodesicLength=1.3982041788806836 rxn_smarts="[C:1]([C@@:2]([O:3][C:4](=[O:5])[H:12])([C:6]#[C:7][H:13])[H:11])([H:8])([H:9])[H:10]>>[C:1]([C-:2]([O+:3]=[C:4]([O:5][C:6]#[C:7][H:13])[H:12])[H:11])([H:8])([H:9])[H:10]"
C       -1.33817298      -1.41553748       0.01283198
C       -0.20489520      -0.45351122       0.20032116
O        0.72953776      -0.61846681      -0.77985122
C        1.97594743      -0.22038111      -0.53099803
O        2.05990526       0.66357604       0.42600269
C        0.25378668       1.53632024       0.38055367
C       -0.38264570       2.55571452       0.34107498
H       -1.70096265      -1.37606440      -1.01324987
H       -2.15199612      -1.14934797       0.68843455
H       -0.98779329      -2.42268933       0.26100712
H        0.18653489      -0.51848323       1.21772078
H        2.50588001      -0.03693131      -1.46515033
H       -0.94512609       3.45580204       0.26130251
13
Frame=15 idx=009889 GeodesicLength=1.497904060161669 rxn_smarts="[C:1]([C@@:2]([O:3][C:4](=[O:5])[H:12])([C:6]#[C:7][H:13])[H:11])([H:8])([H:9])[H:10]>>[C:1]([C-:2]([O+:3]=[C:4]([O:5][C:6]#[C:7][H:13])[H:12])[H:11])([H:8])([H:9])[H:10]"
C       -1.33481806      -1.41479275       0.01419527
C       -0.20937677      -0.44178619       0.19852602
O        0.72003634      -0.59982427      -0.78875172
C        1.97877583      -0.23489473      -0.53298649
O        2.08394644       0.62085562       0.44523222
C        0.22794532       1.53476296       0.38509223
C       -0.38662389       2.56676934       0.33603517
H       -1.69898773      -1.37849867      -1.01137952
H       -2.14939713      -1.15683019       0.69211621
H       -0.96892085      -2.41607597       0.26309341
H        0.18540481      -0.51787744       1.21456986
H        2.49944063      -0.02950883      -1.46863511
H       -0.94742493       3.46770109       0.25289245
13
Frame=16 idx=009889 GeodesicLength=1.597612547614423 rxn_smarts="[C:1]([C@@:2]([O:3][C:4](=[O:5])[H:12])([C:6]#[C:7][H:13])[H:11])([H:8])([H:9])[H:10]>>[C:1]([C-:2]([O+:3]=[C:4]([O:5][C:6]#[C:7][H:13])[H:12])[H:11])([H:8])([H:9])[H:10]"
C       -1.33108617      -1.41477646       0.01568131
C       -0.21414572      -0.43028454       0.19716040
O        0.71011579      -0.58022853      -0.79729999
C        1.98059078      -0.24916727      -0.53596165
O        2.10798822       0.57404151       0.46510588
C        0.19983485       1.53338684       0.38961694
C       -0.38886790       2.57968467       0.33406459
H       -1.69674824      -1.38137408      -1.00928344
H       -2.14637802      -1.16589210       0.69612827
H       -0.94912610      -2.40982226       0.26466968
H        0.18395763      -0.51692262       1.21170695
H        2.49194592      -0.01919314      -1.47183652
H       -0.94808105       3.48054799       0.24024757
