15
Frame=0 idx=009327 GeodesicLength=0.0 rxn_smarts="[C:1]([n:2]1[c:3]([H:11])[c:4]([C:5]([H:12])([H:13])[H:14])[c:6]([H:15])[n:7]1)([H:8])([H:9])[H:10]>>[C:1]([N:2]1[C@@:3]([C:5]([H:12])([H:13])[H:14])([H:11])[C+:4]=[C:6]([H:15])[N-:7]1)([H:8])([H:9])[H:10]"
C       -2.00252323      -0.44681803       0.16973510
N       -0.84071571       0.33477798      -0.16390282
C        0.28452975      -0.07662360      -0.86437995
C        1.31705994       0.89465895      -0.76133206
C        1.55185648      -0.79292028       0.12533089
C        0.67925437       1.76444530       0.22766934
N       -0.54743122       1.44054522       0.53423804
H       -2.26750822      -1.07585126      -0.68013393
H       -2.82942910       0.22632387       0.38564592
H       -1.82851256      -1.08525505       1.04254166
H        0.14531657      -0.80616609      -1.65171394
H        2.31348638      -0.25526609       0.67728316
H        2.03250192      -1.50055974      -0.53928893
H        0.89284283      -1.28589174       0.84395073
H        1.09927180       2.66460057       0.65435678
15
Frame=1 idx=009327 GeodesicLength=0.06719399376721899 rxn_smarts="[C:1]([n:2]1[c:3]([H:11])[c:4]([C:5]([H:12])([H:13])[H:14])[c:6]([H:15])[n:7]1)([H:8])([H:9])[H:10]>>[C:1]([N:2]1[C@@:3]([C:5]([H:12])([H:13])[H:14])([H:11])[C+:4]=[C:6]([H:15])[N-:7]1)([H:8])([H:9])[H:10]"
C       -2.01463950      -0.44516610       0.16025397
N       -0.84498940       0.33037126      -0.15877186
C        0.28382383      -0.08522318      -0.85295749
C        1.30999348       0.89219591      -0.75198254
C        1.57232873      -0.79099525       0.13212836
C        0.66823537       1.76966663       0.22131132
N       -0.56176694       1.44509536       0.52399492
H       -2.30305441      -1.03508816      -0.70994347
H       -2.83092980       0.22735067       0.41493385
H       -1.83664849      -1.11962004       1.00424681
H        0.14511217      -0.80578751      -1.64868731
H        2.36967545      -0.26413906       0.64353770
H        2.01518980      -1.53025969      -0.52505574
H        0.93831562      -1.25417518       0.89177873
H        1.08935407       2.66577434       0.65521276
15
Frame=2 idx=009327 GeodesicLength=0.13378443613645993 rxn_smarts="[C:1]([n:2]1[c:3]([H:11])[c:4]([C:5]([H:12])([H:13])[H:14])[c:6]([H:15])[n:7]1)([H:8])([H:9])[H:10]>>[C:1]([N:2]1[C@@:3]([C:5]([H:12])([H:13])[H:14])([H:11])[C+:4]=[C:6]([H:15])[N-:7]1)([H:8])([H:9])[H:10]"
C       -2.02640019      -0.44380632       0.15070303
N       -0.84950485       0.32615785      -0.15405951
C        0.28309317      -0.09363286      -0.84158037
C        1.30311785       0.88963401      -0.74219111
C        1.59250077      -0.78892814       0.13906457
C        0.65689636       1.77508620       0.21449422
N       -0.57680979       1.45027046       0.51224325
H       -2.33754134      -0.99328236      -0.73811947
H       -2.83176551       0.22583116       0.44471190
H       -1.84444638      -1.15351771       0.96395430
H        0.14502346      -0.80479025      -1.64600741
H        2.42508400      -0.27461561       0.60625045
H        1.99540234      -1.56091776      -0.50693605
H        0.98544630      -1.21890232       0.93919564
H        1.07990381       2.66541364       0.65827656
15
Frame=3 idx=009327 GeodesicLength=0.19977479194587142 rxn_smarts="[C:1]([n:2]1[c:3]([H:11])[c:4]([C:5]([H:12])([H:13])[H:14])[c:6]([H:15])[n:7]1)([H:8])([H:9])[H:10]>>[C:1]([N:2]1[C@@:3]([C:5]([H:12])([H:13])[H:14])([H:11])[C+:4]=[C:6]([H:15])[N-:7]1)([H:8])([H:9])[H:10]"
C       -2.03776146      -0.44270446       0.14114881
N       -0.85419505       0.32214740      -0.14971467
C        0.28236341      -0.10178116      -0.83025526
C        1.29648920       0.88700030      -0.73181929
C        1.61236606      -0.78681284       0.14608774
C        0.64528014       1.78068792       0.20731780
N       -0.59251882       1.45607218       0.49891538
H       -2.37085333      -0.95068581      -0.76441418
H       -2.83185486       0.22184662       0.47470966
H       -1.85194997      -1.18665597       0.92185600
H        0.14509275      -0.80307169      -1.64364686
H        2.47921781      -0.28709436       0.56552941
H        1.97325842      -1.59216465      -0.48470777
H        1.03441767      -1.18044981       0.98560366
H        1.07064801       2.66366634       0.66338957
15
Frame=4 idx=009327 GeodesicLength=0.2652389611989691 rxn_smarts="[C:1]([n:2]1[c:3]([H:11])[c:4]([C:5]([H:12])([H:13])[H:14])[c:6]([H:15])[n:7]1)([H:8])([H:9])[H:10]>>[C:1]([N:2]1[C@@:3]([C:5]([H:12])([H:13])[H:14])([H:11])[C+:4]=[C:6]([H:15])[N-:7]1)([H:8])([H:9])[H:10]"
C       -2.04871136      -0.44182228       0.13161101
N       -0.85895726       0.31831313      -0.14557187
C        0.28169174      -0.10960861      -0.81891641
C        1.29020469       0.88430129      -0.72059987
C        1.63196458      -0.78482771       0.15316383
C        0.63349869       1.78637776       0.20009200
N       -0.60877471       1.46237489       0.48418609
H       -2.40302718      -0.90728848      -0.78876003
H       -2.83110634       0.21548594       0.50480508
H       -1.85928327      -1.21891607       0.87794959
H        0.14537678      -0.80050053      -1.64155038
H        2.53161670      -0.30212541       0.52156005
H        1.94895003      -1.62362421      -0.45819543
H        1.08552317      -1.13934251       1.03043441
H        1.06103374       2.66120281       0.66979192
15
Frame=5 idx=009327 GeodesicLength=0.3302106357007314 rxn_smarts="[C:1]([n:2]1[c:3]([H:11])[c:4]([C:5]([H:12])([H:13])[H:14])[c:6]([H:15])[n:7]1)([H:8])([H:9])[H:10]>>[C:1]([N:2]1[C@@:3]([C:5]([H:12])([H:13])[H:14])([H:11])[C+:4]=[C:6]([H:15])[N-:7]1)([H:8])([H:9])[H:10]"
C       -2.05931819      -0.44114066       0.12201520
N       -0.86373515       0.31459354      -0.14148663
C        0.28113132      -0.11715568      -0.80746521
C        1.28428085       0.88149092      -0.70827875
C        1.65137635      -0.78317861       0.16023735
C        0.62164928       1.79201972       0.19314790
N       -0.62539837       1.46895292       0.46837511
H       -2.43425072      -0.86317709      -0.81117864
H       -2.82945376       0.20688925       0.53474674
H       -1.86662003      -1.25018135       0.83230554
H        0.14597568      -0.79704295      -1.63969573
H        2.58204923      -0.31999889       0.47438771
H        1.92276158      -1.65495181      -0.42752536
H        1.13882026      -1.09564034       1.07349404
H        1.05073167       2.65852105       0.67692073
15
Frame=6 idx=009327 GeodesicLength=0.3947499517002566 rxn_smarts="[C:1]([n:2]1[c:3]([H:11])[c:4]([C:5]([H:12])([H:13])[H:14])[c:6]([H:15])[n:7]1)([H:8])([H:9])[H:10]>>[C:1]([N:2]1[C@@:3]([C:5]([H:12])([H:13])[H:14])([H:11])[C+:4]=[C:6]([H:15])[N-:7]1)([H:8])([H:9])[H:10]"
C       -2.06959004      -0.44059908       0.11242014
N       -0.86841145       0.31093604      -0.13718893
C        0.28073272      -0.12437323      -0.79580125
C        1.27884704       0.87859065      -0.69458603
C        1.67064982      -0.78200713       0.16733001
C        0.60982491       1.79755972       0.18678138
N       -0.64229554       1.47568263       0.45173118
H       -2.46443242      -0.81824025      -0.83165270
H       -2.82692292       0.19616421       0.56446814
H       -1.87420280      -1.28036798       0.78484082
H        0.14691839      -0.79259764      -1.63792701
H        2.62989271      -0.34118569       0.42449597
H        1.89505306      -1.68561340      -0.39263778
H        1.19475113      -1.05054927       1.11403446
H        1.03918542       2.65660043       0.68369160
15
Frame=7 idx=009327 GeodesicLength=0.45889728961011234 rxn_smarts="[C:1]([n:2]1[c:3]([H:11])[c:4]([C:5]([H:12])([H:13])[H:14])[c:6]([H:15])[n:7]1)([H:8])([H:9])[H:10]>>[C:1]([N:2]1[C@@:3]([C:5]([H:12])([H:13])[H:14])([H:11])[C+:4]=[C:6]([H:15])[N-:7]1)([H:8])([H:9])[H:10]"
C       -2.07959905      -0.44013288       0.10281326
N       -0.87297606       0.30729555      -0.13259114
C        0.28046809      -0.13133012      -0.78387758
C        1.27381996       0.87558754      -0.67955466
C        1.68987569      -0.78129419       0.17442685
C        0.59795803       1.80304381       0.18083394
N       -0.65939577       1.48245140       0.43428374
H       -2.49359967      -0.77260112      -0.85011874
H       -2.82356514       0.18350980       0.59366019
H       -1.88223754      -1.30923690       0.73571756
H        0.14818163      -0.78733271      -1.63608077
H        2.67469962      -0.36563312       0.37218684
H        1.86632858      -1.71501014      -0.35359271
H        1.25359453      -1.00464099       1.15169226
H        1.02644709       2.65532406       0.69020098
15
Frame=8 idx=009327 GeodesicLength=0.522682847574084 rxn_smarts="[C:1]([n:2]1[c:3]([H:11])[c:4]([C:5]([H:12])([H:13])[H:14])[c:6]([H:15])[n:7]1)([H:8])([H:9])[H:10]>>[C:1]([N:2]1[C@@:3]([C:5]([H:12])([H:13])[H:14])([H:11])[C+:4]=[C:6]([H:15])[N-:7]1)([H:8])([H:9])[H:10]"
C       -2.08941029      -0.43967305       0.09316506
N       -0.87741547       0.30362827      -0.12755621
C        0.28032534      -0.13808563      -0.77158857
C        1.26916155       0.87244794      -0.66309979
C        1.70912980      -0.78108440       0.18153869
C        0.58603470       1.80846220       0.17530534
N       -0.67661177       1.48911039       0.41622758
H       -2.52178450      -0.72627198      -0.86655830
H       -2.81946987       0.16907059       0.62210679
H       -1.89093011      -1.33659416       0.68497190
H        0.14975460      -0.78133620      -1.63396763
H        2.71602151      -0.39339161       0.31791709
H        1.83717841      -1.74256005      -0.31055188
H        1.31562179      -0.95869422       1.18603536
H        1.01239429       2.65497190       0.69605457
15
Frame=9 idx=009327 GeodesicLength=0.5861334581060317 rxn_smarts="[C:1]([n:2]1[c:3]([H:11])[c:4]([C:5]([H:12])([H:13])[H:14])[c:6]([H:15])[n:7]1)([H:8])([H:9])[H:10]>>[C:1]([N:2]1[C@@:3]([C:5]([H:12])([H:13])[H:14])([H:11])[C+:4]=[C:6]([H:15])[N-:7]1)([H:8])([H:9])[H:10]"
C       -2.09916610      -0.43918839       0.08335709
N       -0.88181442       0.29990689      -0.12209266
C        0.28026951      -0.14480299      -0.75883092
C        1.26475596       0.86906981      -0.64519434
C        1.72844303      -0.78144958       0.18869455
C        0.57405774       1.81374852       0.17016027
N       -0.69380373       1.49543758       0.39785913
H       -2.54917674      -0.67945391      -0.88106544
H       -2.81474961       0.15300191       0.64953633
H       -1.90039964      -1.36230811       0.63266955
H        0.15167480      -0.77477821      -1.63154717
H        2.75377090      -0.42424268       0.26172396
H        1.80809973      -1.76808338      -0.26391746
H        1.38072093      -0.91212662       1.21718874
H        0.99731763       2.65526916       0.70145837
15
Frame=10 idx=009327 GeodesicLength=0.6492983257418561 rxn_smarts="[C:1]([n:2]1[c:3]([H:11])[c:4]([C:5]([H:12])([H:13])[H:14])[c:6]([H:15])[n:7]1)([H:8])([H:9])[H:10]>>[C:1]([N:2]1[C@@:3]([C:5]([H:12])([H:13])[H:14])([H:11])[C+:4]=[C:6]([H:15])[N-:7]1)([H:8])([H:9])[H:10]"
C       -2.10888583      -0.43861084       0.07342751
N       -0.88614190       0.29612271      -0.11606265
C        0.28027986      -0.15148247      -0.74553647
C        1.26058315       0.86550401      -0.62588083
C        1.74792443      -0.78223383       0.19592126
C        0.56196388       1.81903133       0.16515605
N       -0.71094662       1.50136049       0.37931736
H       -2.57565689      -0.63205921      -0.89362076
H       -2.80956339       0.13539627       0.67583885
H       -1.91082445      -1.38621982       0.57880155
H        0.15387184      -0.76778096      -1.62857397
H        2.78734614      -0.45815304       0.20435937
H        1.77966977      -1.79094020      -0.21368331
H        1.44930940      -0.86644607       1.24452695
H        0.98107062       2.65651163       0.70600908
15
Frame=11 idx=009327 GeodesicLength=0.712166329447129 rxn_smarts="[C:1]([n:2]1[c:3]([H:11])[c:4]([C:5]([H:12])([H:13])[H:14])[c:6]([H:15])[n:7]1)([H:8])([H:9])[H:10]>>[C:1]([N:2]1[C@@:3]([C:5]([H:12])([H:13])[H:14])([H:11])[C+:4]=[C:6]([H:15])[N-:7]1)([H:8])([H:9])[H:10]"
C       -2.11860153      -0.43788504       0.06334366
N       -0.89046353       0.29232384      -0.10950386
C        0.28031793      -0.15816097      -0.73161933
C        1.25655925       0.86172127      -0.60508833
C        1.76763198      -0.78344051       0.20321005
C        0.54974110       1.82429418       0.16024748
N       -0.72795532       1.50677119       0.36081726
H       -2.60114227      -0.58444825      -0.90427207
H       -2.80411786       0.11647127       0.70063704
H       -1.92218271      -1.40807457       0.52374036
H        0.15631336      -0.76036103      -1.62495711
H        2.81647346      -0.49492641       0.14630535
H        1.75237254      -1.81076907      -0.16027578
H        1.52132553      -0.82222517       1.26782445
H        0.96372806       2.65870926       0.70959083
15
Frame=12 idx=009327 GeodesicLength=0.7747771022339829 rxn_smarts="[C:1]([n:2]1[c:3]([H:11])[c:4]([C:5]([H:12])([H:13])[H:14])[c:6]([H:15])[n:7]1)([H:8])([H:9])[H:10]>>[C:1]([N:2]1[C@@:3]([C:5]([H:12])([H:13])[H:14])([H:11])[C+:4]=[C:6]([H:15])[N-:7]1)([H:8])([H:9])[H:10]"
C       -2.12834532      -0.43698868       0.05306340
N       -0.89485496       0.28854404      -0.10246802
C        0.28034412      -0.16486696      -0.71701893
C        1.25261125       0.85769484      -0.58274708
C        1.78758571      -0.78505463       0.21056368
C        0.53739071       1.82952047       0.15539294
N       -0.74477085       1.51158487       0.34260540
H       -2.62564291      -0.53682094      -0.91307227
H       -2.79858504       0.09631570       0.72373467
H       -1.93440038      -1.42772340       0.46760262
H        0.15898836      -0.75251935      -1.62062668
H        2.84092345      -0.53448280       0.08801477
H        1.72663781      -1.82732582      -0.10397315
H        1.59675046      -0.77981857       1.28688987
H        0.94536758       2.66194123       0.71203878
15
Frame=13 idx=009327 GeodesicLength=0.8371915346365943 rxn_smarts="[C:1]([n:2]1[c:3]([H:11])[c:4]([C:5]([H:12])([H:13])[H:14])[c:6]([H:15])[n:7]1)([H:8])([H:9])[H:10]>>[C:1]([N:2]1[C@@:3]([C:5]([H:12])([H:13])[H:14])([H:11])[C+:4]=[C:6]([H:15])[N-:7]1)([H:8])([H:9])[H:10]"
C       -2.13814662      -0.43594451       0.04250834
N       -0.89942902       0.28484731      -0.09513584
C        0.28032419      -0.17162829      -0.70173025
C        1.24867068       0.85337264      -0.55870166
C        1.80768526      -0.78715871       0.21800521
C        0.52497076       1.83462376       0.15071545
N       -0.76132744       1.51572444       0.32499478
H       -2.64934172      -0.48939179      -0.92011057
H       -2.79299446       0.07489257       0.74512532
H       -1.94726144      -1.44516077       0.41037095
H        0.16197692      -0.74416287      -1.61573186
H        2.86078151      -0.57681316       0.02973022
H        1.70262706      -1.84084342      -0.04505745
H        1.67525755      -0.73856014       1.30174498
H        0.92620677       2.66620295       0.71327238
15
Frame=14 idx=009327 GeodesicLength=0.8994434502761441 rxn_smarts="[C:1]([n:2]1[c:3]([H:11])[c:4]([C:5]([H:12])([H:13])[H:14])[c:6]([H:15])[n:7]1)([H:8])([H:9])[H:10]>>[C:1]([N:2]1[C@@:3]([C:5]([H:12])([H:13])[H:14])([H:11])[C+:4]=[C:6]([H:15])[N-:7]1)([H:8])([H:9])[H:10]"
C       -2.14799789      -0.43474371       0.03165835
N       -0.90419139       0.28124723      -0.08749042
C        0.28025790      -0.17842425      -0.68568850
C        1.24471612       0.84882493      -0.53293661
C        1.82808403      -0.78956361       0.22552145
C        0.51243832       1.83968404       0.14605434
N       -0.77763225       1.51916656       0.30814729
H       -2.67210154      -0.44233408      -0.92550927
H       -2.78763470       0.05231640       0.76456773
H       -1.96072830      -1.46024437       0.35222864
H        0.16525523      -0.73532503      -1.61006914
H        2.87557070      -0.62180971      -0.02813746
H        1.68061570      -1.85086497       0.01650438
H        1.75714573      -0.69954472       1.31198967
H        0.90620234       2.67161531       0.71315955
15
Frame=15 idx=009327 GeodesicLength=0.9615361936289155 rxn_smarts="[C:1]([n:2]1[c:3]([H:11])[c:4]([C:5]([H:12])([H:13])[H:14])[c:6]([H:15])[n:7]1)([H:8])([H:9])[H:10]>>[C:1]([N:2]1[C@@:3]([C:5]([H:12])([H:13])[H:14])([H:11])[C+:4]=[C:6]([H:15])[N-:7]1)([H:8])([H:9])[H:10]"
C       -2.15787885      -0.43340629       0.02046793
N       -0.90920094       0.27779015      -0.07965310
C        0.28012974      -0.18524481      -0.66885515
C        1.24068469       0.84403302      -0.50527604
C        1.84881548      -0.79228041       0.23308131
C        0.49982579       1.84464004       0.14149750
N       -0.79366910       1.52192296       0.29216816
H       -2.69387798      -0.39604934      -0.92944480
H       -2.78268850       0.02876463       0.78180581
H       -1.97456546      -1.47289573       0.29355253
H        0.16885799      -0.72589199      -1.60365268
H        2.88514522      -0.66935059      -0.08544690
H        1.66072415      -1.85732844       0.08048809
H        1.84221940      -0.66283839       1.31752155
H        0.88547837       2.67813520       0.71174577
15
Frame=16 idx=009327 GeodesicLength=1.0235575409229603 rxn_smarts="[C:1]([n:2]1[c:3]([H:11])[c:4]([C:5]([H:12])([H:13])[H:14])[c:6]([H:15])[n:7]1)([H:8])([H:9])[H:10]>>[C:1]([N:2]1[C@@:3]([C:5]([H:12])([H:13])[H:14])([H:11])[C+:4]=[C:6]([H:15])[N-:7]1)([H:8])([H:9])[H:10]"
C       -2.16780007      -0.43196067       0.00887498
N       -0.91450652       0.27448425      -0.07167702
C        0.27991560      -0.19208545      -0.65121488
C        1.23652119       0.83900485      -0.47556629
C        1.86988947      -0.79529179       0.24063857
C        0.48715620       1.84945027       0.13711135
N       -0.80943862       1.52399537       0.27721798
H       -2.71475120      -0.35065330      -0.93208225
H       -2.77825978       0.00422503       0.79681058
H       -1.98860092      -1.48315749       0.23433489
H        0.17282136      -0.71577412      -1.59654966
H        2.88938175      -0.71952369      -0.14200116
H        1.64311098      -1.86024309       0.14698972
H        1.93040666      -0.62824212       1.31808502
H        0.86415388       2.68577194       0.70902818
