17
Frame=0 idx=007061 GeodesicLength=0.0 rxn_smarts="[C:1]([C@@:2]([O:3][H:12])([C@@:4]1([H:13])[C:5]([H:14])([H:15])[C:6]([H:16])([H:17])[O:7]1)[H:11])([H:8])([H:9])[H:10]>>[C:1]([C@@:2]([O:3][H:12])([O:7][C:6]([C:5]([C:4][H:13])([H:14])[H:15])([H:16])[H:17])[H:11])([H:8])([H:9])[H:10]"
C       -2.10118780      -0.42518657       0.38897718
C       -1.00681949       0.54076401       0.06699848
O       -0.85939870       1.58727899       0.91329872
C        0.35559248      -0.91204888      -0.79619004
C        1.60788875      -0.09557819      -1.16425134
C        1.75050223       0.25536221       0.31141125
O        0.51550027      -0.38028397       0.68897450
H       -2.96731951       0.13423055       0.75643534
H       -2.36502634      -0.99668521      -0.49523480
H       -1.78353725      -1.12079657       1.16640089
H       -0.94409595       0.92670250      -0.93836981
H       -0.93958317       1.28046160       1.82351043
H        0.56340954      -1.98646374      -0.73229242
H        2.44763501      -0.64539281      -1.59147944
H        1.40627596       0.76742494      -1.80851914
H        1.74750143       1.31586097       0.57965470
H        2.57266259      -0.24564977       0.83067547
17
Frame=1 idx=007061 GeodesicLength=0.03721988719574641 rxn_smarts="[C:1]([C@@:2]([O:3][H:12])([C@@:4]1([H:13])[C:5]([H:14])([H:15])[C:6]([H:16])([H:17])[O:7]1)[H:11])([H:8])([H:9])[H:10]>>[C:1]([C@@:2]([O:3][H:12])([O:7][C:6]([C:5]([C:4][H:13])([H:14])[H:15])([H:16])[H:17])[H:11])([H:8])([H:9])[H:10]"
C       -2.10196389      -0.42945886       0.39285061
C       -1.00456386       0.53308278       0.06549613
O       -0.86219050       1.58598579       0.90964770
C        0.35350287      -0.89634348      -0.80205649
C        1.61472023      -0.09259248      -1.16334699
C        1.75487269       0.25417267       0.31325317
O        0.51761885      -0.38041652       0.68710551
H       -2.97345021       0.13250223       0.74244007
H       -2.35935219      -1.01564532      -0.48398472
H       -1.78936948      -1.11235987       1.18365871
H       -0.96260611       0.92681864      -0.93910044
H       -0.93085750       1.27857094       1.82045396
H        0.54024545      -1.97476425      -0.74677877
H        2.45008812      -0.65227124      -1.58635710
H        1.42338120       0.77359947      -1.80580431
H        1.75435715       1.31543743       0.57760356
H        2.57556719      -0.24631793       0.83491941
17
Frame=2 idx=007061 GeodesicLength=0.07437705384366444 rxn_smarts="[C:1]([C@@:2]([O:3][H:12])([C@@:4]1([H:13])[C:5]([H:14])([H:15])[C:6]([H:16])([H:17])[O:7]1)[H:11])([H:8])([H:9])[H:10]>>[C:1]([C@@:2]([O:3][H:12])([O:7][C:6]([C:5]([C:4][H:13])([H:14])[H:15])([H:16])[H:17])[H:11])([H:8])([H:9])[H:10]"
C       -2.10267588      -0.43370756       0.39667862
C       -1.00236064       0.52556122       0.06398925
O       -0.86503518       1.58466140       0.90619073
C        0.35147012      -0.88056326      -0.80788217
C        1.62153321      -0.08976321      -1.16245641
C        1.75916431       0.25298721       0.31503700
O        0.51966793      -0.38056159       0.68514299
H       -2.97946666       0.13036366       0.72820258
H       -2.35333707      -1.03458723      -0.47250075
H       -1.79530940      -1.10356977       1.20075669
H       -0.98115131       0.92688381      -0.93944791
H       -0.92215960       1.27663972       1.81744327
H        0.51712955      -1.96251736      -0.76141641
H        2.45234343      -0.65936831      -1.58120135
H        1.44063128       0.77946622      -1.80316758
H        1.76118427       1.31500774       0.57545656
H        2.57837164      -0.24693270       0.83917487
17
Frame=3 idx=007061 GeodesicLength=0.11149600335698413 rxn_smarts="[C:1]([C@@:2]([O:3][H:12])([C@@:4]1([H:13])[C:5]([H:14])([H:15])[C:6]([H:16])([H:17])[O:7]1)[H:11])([H:8])([H:9])[H:10]>>[C:1]([C@@:2]([O:3][H:12])([O:7][C:6]([C:5]([C:4][H:13])([H:14])[H:15])([H:16])[H:17])[H:11])([H:8])([H:9])[H:10]"
C       -2.10331989      -0.43793768       0.40047927
C       -1.00021804       0.51819773       0.06246735
O       -0.86793653       1.58331444       0.90290582
C        0.34948740      -0.86468435      -0.81368839
C        1.62833238      -0.08708114      -1.16157748
C        1.76337209       0.25179325       0.31677194
O        0.52163516      -0.38072426       0.68307493
H       -2.98537362       0.12779780       0.71371493
H       -2.34694988      -1.05354645      -0.46073189
H       -1.80135753      -1.09439364       1.21772815
H       -0.99974603       0.92688327      -0.93943037
H       -0.91347880       1.27468658       1.81445906
H        0.49405834      -1.94970075      -0.77625690
H        2.45439632      -0.66668235      -1.57600845
H        1.45805725       0.78504508      -1.80059334
H        1.76798307       1.31455403       0.57323363
H        2.58105832      -0.24752157       0.84345176
17
Frame=4 idx=007061 GeodesicLength=0.148558338465632 rxn_smarts="[C:1]([C@@:2]([O:3][H:12])([C@@:4]1([H:13])[C:5]([H:14])([H:15])[C:6]([H:16])([H:17])[O:7]1)[H:11])([H:8])([H:9])[H:10]>>[C:1]([C@@:2]([O:3][H:12])([O:7][C:6]([C:5]([C:4][H:13])([H:14])[H:15])([H:16])[H:17])[H:11])([H:8])([H:9])[H:10]"
C       -2.10390123      -0.44214886       0.40423552
C       -0.99813250       0.51099640       0.06093804
O       -0.87089755       1.58194552       0.89981310
C        0.34755359      -0.84872108      -0.81945200
C        1.63510679      -0.08456180      -1.16071138
C        1.76749831       0.25060376       0.31845046
O        0.52352737      -0.38089505       0.68091378
H       -2.99115727       0.12478802       0.69901995
H       -2.34021907      -1.07245795      -0.44872289
H       -1.80752063      -1.08487970       1.23450595
H       -1.01835190       0.92683570      -0.93903997
H       -0.90482689       1.27269994       1.81151669
H        0.47106559      -1.93631983      -0.79124495
H        2.45623330      -0.67422209      -1.57077960
H        1.47563017       0.79030254      -1.79809695
H        1.77475341       1.31409401       0.57091164
H        2.58363851      -0.24805952       0.84774261
17
Frame=5 idx=007061 GeodesicLength=0.18554111431294468 rxn_smarts="[C:1]([C@@:2]([O:3][H:12])([C@@:4]1([H:13])[C:5]([H:14])([H:15])[C:6]([H:16])([H:17])[O:7]1)[H:11])([H:8])([H:9])[H:10]>>[C:1]([C@@:2]([O:3][H:12])([O:7][C:6]([C:5]([C:4][H:13])([H:14])[H:15])([H:16])[H:17])[H:11])([H:8])([H:9])[H:10]"
C       -2.10442075      -0.44633814       0.40793192
C       -0.99609838       0.50396125       0.05940747
O       -0.87392155       1.58055515       0.89692979
C        0.34566692      -0.83268824      -0.82515125
C        1.64184392      -0.08221811      -1.15985844
C        1.77154314       0.24942926       0.32006692
O        0.52535012      -0.38106303       0.67867251
H       -2.99680236       0.12131872       0.68416547
H       -2.33316439      -1.09125219      -0.43651812
H       -1.81380010      -1.07507194       1.25102468
H       -1.03693173       0.92674988      -0.93827303
H       -0.89622006       1.27067341       1.80862911
H        0.44818797      -1.92238650      -0.80633006
H        2.45783920      -0.68199315      -1.56551770
H        1.49331911       0.79520967      -1.79569021
H        1.78149119       1.31364035       0.56847104
H        2.58611776      -0.24852638       0.85203990
17
Frame=6 idx=007061 GeodesicLength=0.22242327471232048 rxn_smarts="[C:1]([C@@:2]([O:3][H:12])([C@@:4]1([H:13])[C:5]([H:14])([H:15])[C:6]([H:16])([H:17])[O:7]1)[H:11])([H:8])([H:9])[H:10]>>[C:1]([C@@:2]([O:3][H:12])([O:7][C:6]([C:5]([C:4][H:13])([H:14])[H:15])([H:16])[H:17])[H:11])([H:8])([H:9])[H:10]"
C       -2.10488108      -0.45050300       0.41155271
C       -0.99410874       0.49709631       0.05788028
O       -0.87701063       1.57914600       0.89427228
C        0.34382707      -0.81660291      -0.83076239
C        1.64853035      -0.08006203      -1.15901882
C        1.77550829       0.24827995       0.32161579
O        0.52710928      -0.38121764       0.67636582
H       -3.00229840       0.11738198       0.66920055
H       -2.32580891      -1.10986510      -0.42416660
H       -1.82019967      -1.06501824       1.26722276
H       -1.05544573       0.92663808      -0.93712744
H       -0.88767482       1.26860091       1.80580922
H        0.42546788      -1.90791853      -0.82146058
H        2.45919868      -0.68999761      -1.56022743
H        1.51108801       0.79973950      -1.79338374
H        1.78819435       1.31320553       0.56589259
H        2.58850406      -0.24890320       0.85633500
17
Frame=7 idx=007061 GeodesicLength=0.25917973510199005 rxn_smarts="[C:1]([C@@:2]([O:3][H:12])([C@@:4]1([H:13])[C:5]([H:14])([H:15])[C:6]([H:16])([H:17])[O:7]1)[H:11])([H:8])([H:9])[H:10]>>[C:1]([C@@:2]([O:3][H:12])([O:7][C:6]([C:5]([C:4][H:13])([H:14])[H:15])([H:16])[H:17])[H:11])([H:8])([H:9])[H:10]"
C       -2.10528330      -0.45464211       0.41508063
C       -0.99215759       0.49039627       0.05636836
O       -0.88016383       1.57770488       0.89185437
C        0.34203484      -0.80048625      -0.83626141
C        1.65514987      -0.07809907      -1.15819474
C        1.77939690       0.24716785       0.32309199
O        0.52881569      -0.38134904       0.67401012
H       -3.00761784       0.11300008       0.65415276
H       -2.31818796      -1.12822905      -0.41172940
H       -1.82670830      -1.05477663       1.28304398
H       -1.07385725       0.92650372      -0.93560484
H       -0.87920752       1.26646727       1.80306969
H        0.40292786      -1.89294219      -0.83655299
H        2.46029801      -0.69822460      -1.55491761
H        1.52889012       0.80387453      -1.79118787
H        1.79486045       1.31280222       0.56316106
H        2.59080986      -0.24916790       0.86061591
17
Frame=8 idx=007061 GeodesicLength=0.29581424142140184 rxn_smarts="[C:1]([C@@:2]([O:3][H:12])([C@@:4]1([H:13])[C:5]([H:14])([H:15])[C:6]([H:16])([H:17])[O:7]1)[H:11])([H:8])([H:9])[H:10]>>[C:1]([C@@:2]([O:3][H:12])([O:7][C:6]([C:5]([C:4][H:13])([H:14])[H:15])([H:16])[H:17])[H:11])([H:8])([H:9])[H:10]"
C       -2.10563166      -0.45875556       0.41851404
C       -0.99024252       0.48386590       0.05486904
O       -0.88338421       1.57624341       0.88968050
C        0.34028814      -0.78434140      -0.84164201
C        1.66169843      -0.07633261      -1.15738672
C        1.78321232       0.24609383       0.32449490
O        0.53046912      -0.38145367       0.67161041
H       -3.01277154       0.10816193       0.63904520
H       -2.31030315      -1.14633356      -0.39921603
H       -1.83333967      -1.04436197       1.29847502
H       -1.09214608       0.92635617      -0.93371167
H       -0.87082432       1.26427877       1.80041441
H        0.38059601      -1.87746762      -0.85160376
H        2.46113066      -0.70667391      -1.54959196
H        1.54671569       0.80760955      -1.78910342
H        1.80149431       1.31243254       0.56027214
H        2.59303846      -0.24932178       0.86487991
17
Frame=9 idx=007061 GeodesicLength=0.33233022252781835 rxn_smarts="[C:1]([C@@:2]([O:3][H:12])([C@@:4]1([H:13])[C:5]([H:14])([H:15])[C:6]([H:16])([H:17])[O:7]1)[H:11])([H:8])([H:9])[H:10]>>[C:1]([C@@:2]([O:3][H:12])([O:7][C:6]([C:5]([C:4][H:13])([H:14])[H:15])([H:16])[H:17])[H:11])([H:8])([H:9])[H:10]"
C       -2.10592544      -0.46284189       0.42184869
C       -0.98835714       0.47750273       0.05338373
O       -0.88666655       1.57476123       0.88775025
C        0.33858471      -0.76817172      -0.84689657
C        1.66816164      -0.07476026      -1.15659280
C        1.78695584       0.24505936       0.32582503
O        0.53207344      -0.38152649       0.66917295
H       -3.01775717       0.10287554       0.62388603
H       -2.30215510      -1.16416178      -0.38664983
H       -1.84008736      -1.03379248       1.31350079
H       -1.11029309       0.92619721      -0.93145965
H       -0.86252422       1.26203432       1.79784388
H        0.35848760      -1.86151693      -0.86658540
H        2.46168098      -0.71533053      -1.54425104
H        1.56453279       0.81094221      -1.78712433
H        1.80809718       1.31209315       0.55722524
H        2.59519189      -0.24936367       0.86912301
17
Frame=10 idx=007061 GeodesicLength=0.36875111768645596 rxn_smarts="[C:1]([C@@:2]([O:3][H:12])([C@@:4]1([H:13])[C:5]([H:14])([H:15])[C:6]([H:16])([H:17])[O:7]1)[H:11])([H:8])([H:9])[H:10]>>[C:1]([C@@:2]([O:3][H:12])([O:7][C:6]([C:5]([C:4][H:13])([H:14])[H:15])([H:16])[H:17])[H:11])([H:8])([H:9])[H:10]"
C       -2.10616361      -0.46690967       0.42509964
C       -0.98651387       0.47130796       0.05190516
O       -0.89001707       1.57326576       0.88605079
C        0.33691801      -0.75195530      -0.85204526
C        1.67454839      -0.07337728      -1.15581328
C        1.79062528       0.24405602       0.32709000
O        0.53361787      -0.38157407       0.66668648
H       -3.02258030       0.09712804       0.60865995
H       -2.29372388      -1.18175999      -0.37397596
H       -1.84696634      -1.02304362       1.32815746
H       -1.12831412       0.92602279      -0.92885988
H       -0.85429568       1.25974885       1.79534555
H        0.33659759      -1.84505824      -0.88155606
H        2.46194893      -0.72420239      -1.53888890
H        1.58238243       0.81388738      -1.78524452
H        1.81467498       1.31177622       0.55403500
H        2.59726137      -0.24931246       0.87335384
17
Frame=11 idx=007061 GeodesicLength=0.4051052061906167 rxn_smarts="[C:1]([C@@:2]([O:3][H:12])([C@@:4]1([H:13])[C:5]([H:14])([H:15])[C:6]([H:16])([H:17])[O:7]1)[H:11])([H:8])([H:9])[H:10]>>[C:1]([C@@:2]([O:3][H:12])([O:7][C:6]([C:5]([C:4][H:13])([H:14])[H:15])([H:16])[H:17])[H:11])([H:8])([H:9])[H:10]"
C       -2.10634357      -0.47096333       0.42827799
C       -0.98471769       0.46528036       0.05042742
O       -0.89343533       1.57176201       0.88456769
C        0.33528351      -0.73567040      -0.85710149
C        1.68085775      -0.07217465      -1.15504666
C        1.79421761       0.24307409       0.32829550
O        0.53509368      -0.38160119       0.66414237
H       -3.02724593       0.09090730       0.59334322
H       -2.28497404      -1.19917161      -0.36115094
H       -1.85398967      -1.01208765       1.34247715
H       -1.14621539       0.92583446      -0.92592652
H       -0.84612410       1.25743302       1.79290552
H        0.31492085      -1.82807506      -0.89654825
H        2.46192282      -0.73328296      -1.53350422
H        1.60028091       0.81645973      -1.78344896
H        1.82123183       1.31146674       0.55071721
H        2.59923677      -0.24919086       0.87757297
17
Frame=12 idx=007061 GeodesicLength=0.44136648944911805 rxn_smarts="[C:1]([C@@:2]([O:3][H:12])([C@@:4]1([H:13])[C:5]([H:14])([H:15])[C:6]([H:16])([H:17])[O:7]1)[H:11])([H:8])([H:9])[H:10]>>[C:1]([C@@:2]([O:3][H:12])([O:7][C:6]([C:5]([C:4][H:13])([H:14])[H:15])([H:16])[H:17])[H:11])([H:8])([H:9])[H:10]"
C       -2.10646975      -0.47499967       0.43136610
C       -0.98295707       0.45941814       0.04896109
O       -0.89691801       1.57024571       0.88331894
C        0.33368502      -0.71934621      -0.86203762
C        1.68707155      -0.07115809      -1.15429412
C        1.79774036       0.24212612       0.32943554
O        0.53651571      -0.38159734       0.66156176
H       -3.03173924       0.08424033       0.57796729
H       -2.27594372      -1.21632929      -0.34824686
H       -1.86114838      -1.00098852       1.35640453
H       -1.16395771       0.92563927      -0.92266576
H       -0.83803014       1.25507625       1.79054241
H        0.29348471      -1.81061678      -0.91148468
H        2.46159291      -0.74255801      -1.52810372
H        1.61816684       0.81864304      -1.78174662
H        1.82776935       1.31117945       0.54725314
H        2.60113758      -0.24897441       0.88176859
17
Frame=13 idx=007061 GeodesicLength=0.47756275811607557 rxn_smarts="[C:1]([C@@:2]([O:3][H:12])([C@@:4]1([H:13])[C:5]([H:14])([H:15])[C:6]([H:16])([H:17])[O:7]1)[H:11])([H:8])([H:9])[H:10]>>[C:1]([C@@:2]([O:3][H:12])([O:7][C:6]([C:5]([C:4][H:13])([H:14])[H:15])([H:16])[H:17])[H:11])([H:8])([H:9])[H:10]"
C       -2.10653791      -0.47902312       0.43437578
C       -0.98123811       0.45372464       0.04750000
O       -0.90046885       1.56872359       0.88229715
C        0.33211379      -0.70295714      -0.86687105
C        1.69319294      -0.07032335      -1.15355618
C        1.80118883       0.24120360       0.33051643
O        0.53787340      -0.38156793       0.65893328
H       -3.03606924       0.07710615       0.56250868
H       -2.26659583      -1.23327714      -0.33521221
H       -1.86845341      -0.98971356       1.36997079
H       -1.18155348       0.92543953      -0.91908594
H       -0.82999778       1.25268692       1.78824652
H        0.27228277      -1.79265945      -0.92641377
H        2.46095121      -0.75203233      -1.52268358
H        1.63607167       0.82044643      -1.78013104
H        1.83428987       1.31090324       0.54365446
H        2.60295012      -0.24868007       0.88595069
17
Frame=14 idx=007061 GeodesicLength=0.5137212914260535 rxn_smarts="[C:1]([C@@:2]([O:3][H:12])([C@@:4]1([H:13])[C:5]([H:14])([H:15])[C:6]([H:16])([H:17])[O:7]1)[H:11])([H:8])([H:9])[H:10]>>[C:1]([C@@:2]([O:3][H:12])([O:7][C:6]([C:5]([C:4][H:13])([H:14])[H:15])([H:16])[H:17])[H:11])([H:8])([H:9])[H:10]"
C       -2.10654608      -0.48303998       0.43731990
C       -0.97956791       0.44819868       0.04604043
O       -0.90408790       1.56719890       0.88148972
C        0.33056573      -0.68647873      -0.87161967
C        1.69922242      -0.06966346      -1.15282914
C        1.80456122       0.24029899       0.33154297
O        0.53915990      -0.38151859       0.65624554
H       -3.04023542       0.06949098       0.54694095
H       -2.25689873      -1.25005290      -0.32199771
H       -1.87591415      -0.97823869       1.38320238
H       -1.19901925       0.92523170      -0.91520147
H       -0.82200797       1.25027428       1.78600474
H        0.25129576      -1.77418061      -0.94137711
H        2.45998940      -0.76170196      -1.51723025
H        1.65401674       0.82187906      -1.77858634
H        1.84079852       1.31062605       0.53993434
H        2.60466772      -0.24832374       0.89012071
17
Frame=15 idx=007061 GeodesicLength=0.5498693758421662 rxn_smarts="[C:1]([C@@:2]([O:3][H:12])([C@@:4]1([H:13])[C:5]([H:14])([H:15])[C:6]([H:16])([H:17])[O:7]1)[H:11])([H:8])([H:9])[H:10]>>[C:1]([C@@:2]([O:3][H:12])([O:7][C:6]([C:5]([C:4][H:13])([H:14])[H:15])([H:16])[H:17])[H:11])([H:8])([H:9])[H:10]"
C       -2.10649142      -0.48705648       0.44021195
C       -0.97795496       0.44284265       0.04457510
O       -0.90777982       1.56568125       0.88088307
C        0.32903639      -0.66988303      -0.87629964
C        1.70516485      -0.06917147      -1.15211413
C        1.80785569       0.23940042       0.33252265
O        0.54036488      -0.38145435       0.65348783
H       -3.04424520       0.06137441       0.53123964
H       -2.24680658      -1.26670361      -0.30854801
H       -1.88354217      -0.96653106       1.39613536
H       -1.21637430       0.92501597      -0.91102590
H       -0.81405196       1.24785400       1.78380228
H        0.23051184      -1.75515471      -0.95642099
H        2.45870082      -0.77156825      -1.51174655
H        1.67202739       0.82295638      -1.77710087
H        1.84730433       1.31033275       0.53611331
H        2.60628022      -0.24793488       0.89428490
17
Frame=16 idx=007061 GeodesicLength=0.5860331494736385 rxn_smarts="[C:1]([C@@:2]([O:3][H:12])([C@@:4]1([H:13])[C:5]([H:14])([H:15])[C:6]([H:16])([H:17])[O:7]1)[H:11])([H:8])([H:9])[H:10]>>[C:1]([C@@:2]([O:3][H:12])([O:7][C:6]([C:5]([C:4][H:13])([H:14])[H:15])([H:16])[H:17])[H:11])([H:8])([H:9])[H:10]"
C       -2.10636479      -0.49107895       0.44306199
C       -0.97640089       0.43765880       0.04310202
O       -0.91153839       1.56417465       0.88046653
C        0.32751924      -0.65314485      -0.88092310
C        1.71101327      -0.06883901      -1.15140828
C        1.81106654       0.23849691       0.33345891
O        0.54147906      -0.38138070       0.65064974
H       -3.04809069       0.05272692       0.51536131
H       -2.23626607      -1.28326492      -0.29480367
H       -1.89135264      -0.95455481       1.40879177
H       -1.23362741       0.92479086      -0.90656750
H       -0.80611750       1.24543641       1.78162728
H        0.20991243      -1.73555644      -0.97157860
H        2.45706566      -0.78162358      -1.50622640
H        1.69011571       0.82368876      -1.77565913
H        1.85381492       1.31000774       0.53220431
H        2.60777154      -0.24753780       0.89844279
