15
Frame=0 idx=004846 GeodesicLength=0.0 rxn_smarts="[C:1]([C:2]([C@@:3]([C:4]([H:12])([H:13])[H:14])([O:5][H:15])[H:11])([H:9])[H:10])([H:6])([H:7])[H:8]>>[C:1]([C:2]([C:3][H:11])([H:9])[H:10])([H:6])([H:7])[H:8].[C:4]([O:5][H:15])([H:12])([H:13])[H:14]"
C        2.07298843       0.26066050       0.06052806
C        0.98217771      -0.79489072      -0.13638710
C       -0.36116713      -0.25599777      -0.53437298
C       -2.28039789      -0.09886183       0.22351893
O       -0.81142575       0.74268894       0.59892270
H        1.78437894       0.98196858       0.82932091
H        2.25715448       0.80965130      -0.86686421
H        3.01667713      -0.18811231       0.37892493
H        1.27616155      -1.49184049      -0.92879153
H        0.89024832      -1.39795652       0.77342601
H       -0.27208965       0.37602539      -1.42699819
H       -2.65187201      -0.16894022      -0.79027554
H       -2.24576024      -1.06186534       0.70881284
H       -2.86692835       0.62505100       0.80873970
H       -0.79014558       1.66241944       0.30149546
15
Frame=1 idx=004846 GeodesicLength=0.044890710428150876 rxn_smarts="[C:1]([C:2]([C@@:3]([C:4]([H:12])([H:13])[H:14])([O:5][H:15])[H:11])([H:9])[H:10])([H:6])([H:7])[H:8]>>[C:1]([C:2]([C:3][H:11])([H:9])[H:10])([H:6])([H:7])[H:8].[C:4]([O:5][H:15])([H:12])([H:13])[H:14]"
C        2.07418713       0.24922253       0.06858735
C        0.96899202      -0.78751416      -0.14475597
C       -0.36096077      -0.22331643      -0.55078285
C       -2.26198511      -0.11091433       0.23158913
O       -0.80764705       0.77059894       0.59035812
H        1.79064904       0.96841239       0.84122231
H        2.27327069       0.80335512      -0.85267892
H        3.00874759      -0.21685040       0.38907296
H        1.25625006      -1.48288013      -0.94122190
H        0.86138944      -1.39821516       0.75818588
H       -0.25696182       0.41401450      -1.43766471
H       -2.64940173      -0.22865149      -0.77251631
H       -2.20515505      -1.05560432       0.75119752
H       -2.87120810       0.61349145       0.79189241
H       -0.82016634       1.68485150       0.27751498
15
Frame=2 idx=004846 GeodesicLength=0.0900928098559203 rxn_smarts="[C:1]([C:2]([C@@:3]([C:4]([H:12])([H:13])[H:14])([O:5][H:15])[H:11])([H:9])[H:10])([H:6])([H:7])[H:8]>>[C:1]([C:2]([C:3][H:11])([H:9])[H:10])([H:6])([H:7])[H:8].[C:4]([O:5][H:15])([H:12])([H:13])[H:14]"
C        2.07451875       0.23769845       0.07646947
C        0.95552543      -0.78003231      -0.15316704
C       -0.36085849      -0.19110173      -0.56656248
C       -2.24280955      -0.12219950       0.23926540
O       -0.80401131       0.79852372       0.58175837
H        1.79617819       0.95419752       0.85335686
H        2.28806110       0.79703804      -0.83833040
H        2.99990613      -0.24540331       0.39828475
H        1.23604732      -1.47345258      -0.95383291
H        0.83273835      -1.39816425       0.74262911
H       -0.24179050       0.45112635      -1.44761018
H       -2.64335425      -0.28883166      -0.75342081
H       -2.16444850      -1.04655995       0.79290799
H       -2.87516558       0.60117697       0.77390539
H       -0.85053711       1.70598424       0.25434647
15
Frame=3 idx=004846 GeodesicLength=0.13527037494599115 rxn_smarts="[C:1]([C:2]([C@@:3]([C:4]([H:12])([H:13])[H:14])([O:5][H:15])[H:11])([H:9])[H:10])([H:6])([H:7])[H:8]>>[C:1]([C:2]([C:3][H:11])([H:9])[H:10])([H:6])([H:7])[H:8].[C:4]([O:5][H:15])([H:12])([H:13])[H:14]"
C        2.07404362       0.22623376       0.08402925
C        0.94196037      -0.77261184      -0.16142680
C       -0.36082442      -0.15967622      -0.58160518
C       -2.22311398      -0.13270729       0.24653698
O       -0.80060743       0.82626617       0.57335008
H        1.80091875       0.93961746       0.86555607
H        2.30145117       0.79079504      -0.82418884
H        2.99037298      -0.27345340       0.40642488
H        1.21586410      -1.46391431      -0.96637869
H        0.80455758      -1.39786375       0.72720560
H       -0.22658874       0.48705221      -1.45687525
H       -2.63379453      -0.34817926      -0.73329302
H       -2.12443254      -1.03528193       0.83327982
H       -2.87876936       0.58802863       0.75532615
H       -0.88103757       1.72569474       0.23205894
15
Frame=4 idx=004846 GeodesicLength=0.1807084329833194 rxn_smarts="[C:1]([C:2]([C@@:3]([C:4]([H:12])([H:13])[H:14])([O:5][H:15])[H:11])([H:9])[H:10])([H:6])([H:7])[H:8]>>[C:1]([C:2]([C:3][H:11])([H:9])[H:10])([H:6])([H:7])[H:8].[C:4]([O:5][H:15])([H:12])([H:13])[H:14]"
C        2.07277416       0.21477242       0.09134089
C        0.92820853      -0.76514826      -0.16963354
C       -0.36090709      -0.12889607      -0.59600946
C       -2.20288715      -0.14245387       0.25339273
O       -0.79736394       0.85381638       0.56497980
H        1.80489553       0.92457637       0.87776070
H        2.31357554       0.78450895      -0.81006629
H        2.98008182      -0.30109490       0.41365646
H        1.19553307      -1.45406311      -0.97891060
H        0.77674294      -1.39725066       0.71167503
H       -0.21141942       0.52197134      -1.46538445
H       -2.62081925      -0.40716344      -0.71195048
H       -2.08489704      -1.02152677       0.87256175
H       -2.88198129       0.57399527       0.73588121
H       -0.91153639       1.74395637       0.21070624
15
Frame=5 idx=004846 GeodesicLength=0.2263936706565644 rxn_smarts="[C:1]([C:2]([C@@:3]([C:4]([H:12])([H:13])[H:14])([O:5][H:15])[H:11])([H:9])[H:10])([H:6])([H:7])[H:8]>>[C:1]([C:2]([C:3][H:11])([H:9])[H:10])([H:6])([H:7])[H:8].[C:4]([O:5][H:15])([H:12])([H:13])[H:14]"
C        2.07077872       0.20331013       0.09845833
C        0.91439422      -0.75781127      -0.17790053
C       -0.36104935      -0.09875766      -0.60997024
C       -2.18226122      -0.15149692       0.26002494
O       -0.79443629       0.88141009       0.55662729
H        1.80794917       0.90906931       0.89023534
H        2.32464098       0.77843886      -0.79599355
H        2.96913555      -0.32849582       0.42007582
H        1.17540074      -1.44409613      -0.99173640
H        0.74929505      -1.39675623       0.69602254
H       -0.19615207       0.55603939      -1.47349063
H       -2.60443413      -0.46579105      -0.68930654
H       -2.04603765      -1.00544877       0.91119694
H       -2.88499884       0.55923537       0.71570577
H       -0.94222489       1.76115070       0.19005093
15
Frame=6 idx=004846 GeodesicLength=0.2726256474124256 rxn_smarts="[C:1]([C:2]([C@@:3]([C:4]([H:12])([H:13])[H:14])([O:5][H:15])[H:11])([H:9])[H:10])([H:6])([H:7])[H:8]>>[C:1]([C:2]([C:3][H:11])([H:9])[H:10])([H:6])([H:7])[H:8].[C:4]([O:5][H:15])([H:12])([H:13])[H:14]"
C        2.06795831       0.19186767       0.10543231
C        0.90035938      -0.75037747      -0.18617218
C       -0.36137830      -0.06932682      -0.62337149
C       -2.16108177      -0.15987310       0.26638516
O       -0.79154692       0.90877601       0.54808802
H        1.81018452       0.89287650       0.90283913
H        2.33440005       0.77244903      -0.78163956
H        2.95741059      -0.35540808       0.42567183
H        1.15509549      -1.43358416      -1.00459060
H        0.72217517      -1.39595621       0.68004924
H       -0.18106861       0.58893502      -1.48084863
H       -2.58472528      -0.52364055      -0.66522922
H       -2.00779995      -0.98691705       0.94879526
H       -2.88728892       0.54349468       0.69471216
H       -0.97269376       1.77668453       0.16987856
15
Frame=7 idx=004846 GeodesicLength=0.3191732164680634 rxn_smarts="[C:1]([C:2]([C@@:3]([C:4]([H:12])([H:13])[H:14])([O:5][H:15])[H:11])([H:9])[H:10])([H:6])([H:7])[H:8]>>[C:1]([C:2]([C:3][H:11])([H:9])[H:10])([H:6])([H:7])[H:8].[C:4]([O:5][H:15])([H:12])([H:13])[H:14]"
C        2.06444776       0.18044703       0.11224006
C        0.88631159      -0.74312364      -0.19451792
C       -0.36177877      -0.04058905      -0.63644287
C       -2.13961074      -0.16758774       0.27261000
O       -0.78899115       0.93618101       0.53949313
H        1.81140213       0.87626126       0.91568768
H        2.34319940       0.76671452      -0.76732698
H        2.94509284      -0.38204464       0.43058294
H        1.13512827      -1.42302903      -1.01774086
H        0.69545120      -1.39538434       0.66397007
H       -0.16593008       0.62096524      -1.48792566
H       -2.56177957      -0.58064226      -0.63979898
H       -1.97045113      -0.96628366       0.98563679
H       -2.88929194       0.52691633       0.67323989
H       -1.00319980       1.79119899       0.15029270
15
Frame=8 idx=004846 GeodesicLength=0.3664302315727849 rxn_smarts="[C:1]([C:2]([C@@:3]([C:4]([H:12])([H:13])[H:14])([O:5][H:15])[H:11])([H:9])[H:10])([H:6])([H:7])[H:8]>>[C:1]([C:2]([C:3][H:11])([H:9])[H:10])([H:6])([H:7])[H:8].[C:4]([O:5][H:15])([H:12])([H:13])[H:14]"
C        2.06016387       0.16904493       0.11892486
C        0.87207022      -0.73582651      -0.20290209
C       -0.36236914      -0.01255352      -0.64909516
C       -2.11771700      -0.17463866       0.27857043
O       -0.78650788       0.96335045       0.53067040
H        1.81172940       0.85907278       0.92858280
H        2.35086555       0.76101257      -0.75277117
H        2.93203878      -0.40821724       0.43482799
H        1.11507914      -1.41205186      -1.03093729
H        0.66904879      -1.39461432       0.64758291
H       -0.15097388       0.65192571      -1.49436869
H       -2.53566057      -0.63664715      -0.61290545
H       -1.93378188      -0.94328504       1.02137376
H       -2.89059507       0.50922705       0.65113714
H       -1.03339033       1.80420080       0.13130954
15
Frame=9 idx=004846 GeodesicLength=0.4141643125696681 rxn_smarts="[C:1]([C:2]([C@@:3]([C:4]([H:12])([H:13])[H:14])([O:5][H:15])[H:11])([H:9])[H:10])([H:6])([H:7])[H:8]>>[C:1]([C:2]([C:3][H:11])([H:9])[H:10])([H:6])([H:7])[H:8].[C:4]([O:5][H:15])([H:12])([H:13])[H:14]"
C        2.05519588       0.15767403       0.12549969
C        0.85783009      -0.72868545      -0.21134600
C       -0.36308916       0.01472542      -0.66148247
C       -2.09555761      -0.18104798       0.28446074
O       -0.78430302       0.99047115       0.52164287
H        1.81099709       0.84140749       0.94167848
H        2.35755824       0.75554147      -0.73813066
H        2.91843794      -0.43402522       0.43850850
H        1.09540540      -1.40095622      -1.04433747
H        0.64309440      -1.39402658       0.63105660
H       -0.13611348       0.68188305      -1.50056098
H       -2.50661165      -0.69114225      -0.58462163
H       -1.89801302      -0.91841823       1.05606845
H       -2.89137769       0.49054635       0.62883935
H       -1.06345341       1.81605298       0.11272453
15
Frame=10 idx=004846 GeodesicLength=0.4625458352545377 rxn_smarts="[C:1]([C:2]([C@@:3]([C:4]([H:12])([H:13])[H:14])([O:5][H:15])[H:11])([H:9])[H:10])([H:6])([H:7])[H:8]>>[C:1]([C:2]([C:3][H:11])([H:9])[H:10])([H:6])([H:7])[H:8].[C:4]([O:5][H:15])([H:12])([H:13])[H:14]"
C        2.04949997       0.14643538       0.13189449
C        0.84349754      -0.72165659      -0.21972347
C       -0.36393112       0.04116113      -0.67348232
C       -2.07314074      -0.18687028       0.29015018
O       -0.78221916       1.01733083       0.51246377
H        1.80927953       0.82348349       0.95467659
H        2.36322219       0.75018902      -0.72347357
H        2.90417514      -0.45922904       0.44159921
H        1.07586588      -1.38977787      -1.05764136
H        0.61750205      -1.39340719       0.61450586
H       -0.12137002       0.71069954      -1.50626251
H       -2.47479023      -0.74370060      -0.55522439
H       -1.86328235      -0.89195765       1.08925520
H       -2.89131917       0.47074152       0.60654606
H       -1.09298950       1.82655831       0.09471623
15
Frame=11 idx=004846 GeodesicLength=0.5115579878338733 rxn_smarts="[C:1]([C:2]([C@@:3]([C:4]([H:12])([H:13])[H:14])([O:5][H:15])[H:11])([H:9])[H:10])([H:6])([H:7])[H:8]>>[C:1]([C:2]([C:3][H:11])([H:9])[H:10])([H:6])([H:7])[H:8].[C:4]([O:5][H:15])([H:12])([H:13])[H:14]"
C        2.04316619       0.13526409       0.13820250
C        0.82917441      -0.71475987      -0.22811035
C       -0.36494250       0.06676991      -0.68523695
C       -2.05053683      -0.19206152       0.29574554
O       -0.78034317       1.04400369       0.50299991
H        1.80654632       0.80511653       0.96776761
H        2.36793593       0.74501865      -0.70866070
H        2.88944745      -0.48393606       0.44419669
H        1.05668184      -1.37846638      -1.07099251
H        0.59238854      -1.39286687       0.59784270
H       -0.10683371       0.73837391      -1.51167849
H       -2.44050073      -0.79418003      -0.52462357
H       -1.82944119      -0.86392969       1.12106710
H       -2.89054663       0.44986416       0.58439899
H       -1.12219591       1.83578949       0.07708154
15
Frame=12 idx=004846 GeodesicLength=0.5612283002170476 rxn_smarts="[C:1]([C:2]([C@@:3]([C:4]([H:12])([H:13])[H:14])([O:5][H:15])[H:11])([H:9])[H:10])([H:6])([H:7])[H:8]>>[C:1]([C:2]([C:3][H:11])([H:9])[H:10])([H:6])([H:7])[H:8].[C:4]([O:5][H:15])([H:12])([H:13])[H:14]"
C        2.03621097       0.12420424       0.14441507
C        0.81487826      -0.70804618      -0.23647328
C       -0.36609590       0.09152480      -0.69677813
C       -2.02780565      -0.19665161       0.30123735
O       -0.77867219       1.07048617       0.49327578
H        1.80277822       0.78645676       0.98089126
H        2.37175126       0.74003721      -0.69377434
H        2.87425978      -0.50810593       0.44636683
H        1.03788582      -1.36716329      -1.08433849
H        0.56774750      -1.39245082       0.58117614
H       -0.09247747       0.76491328      -1.51687598
H       -2.40396922      -0.84232994      -0.49303347
H       -1.79653359      -0.83465714       1.15136300
H       -2.88898346       0.42793343       0.56268434
H       -1.15097433       1.84384903       0.05986390
15
Frame=13 idx=004846 GeodesicLength=0.6117260987358024 rxn_smarts="[C:1]([C:2]([C@@:3]([C:4]([H:12])([H:13])[H:14])([O:5][H:15])[H:11])([H:9])[H:10])([H:6])([H:7])[H:8]>>[C:1]([C:2]([C:3][H:11])([H:9])[H:10])([H:6])([H:7])[H:8].[C:4]([O:5][H:15])([H:12])([H:13])[H:14]"
C        2.02862383       0.11328435       0.15054418
C        0.80055756      -0.70146095      -0.24478399
C       -0.36741035       0.11538959      -0.70807647
C       -2.00494497      -0.20064618       0.30657325
O       -0.77709505       1.09665619       0.48321786
H        1.79801823       0.76750327       0.99394847
H        2.37464869       0.73521584      -0.67871362
H        2.85857771      -0.53163023       0.44811669
H        1.01936074      -1.35579192      -1.09754870
H        0.54352780      -1.39203446       0.56446666
H       -0.07833851       0.79022061      -1.52174040
H       -2.36545541      -0.88797941      -0.46053537
H       -1.76445107      -0.80424292       1.17994273
H       -2.88648742       0.40490795       0.54150698
H       -1.17913179       1.85060828       0.04308172
15
Frame=14 idx=004846 GeodesicLength=0.6627499381244498 rxn_smarts="[C:1]([C:2]([C@@:3]([C:4]([H:12])([H:13])[H:14])([O:5][H:15])[H:11])([H:9])[H:10])([H:6])([H:7])[H:8]>>[C:1]([C:2]([C:3][H:11])([H:9])[H:10])([H:6])([H:7])[H:8].[C:4]([O:5][H:15])([H:12])([H:13])[H:14]"
C        2.02054359       0.10257356       0.15651606
C        0.78636296      -0.69509866      -0.25289955
C       -0.36884455       0.13829584      -0.71910395
C       -1.98214445      -0.20407409       0.31170911
O       -0.77571552       1.12243435       0.47301657
H        1.79236216       0.74857299       1.00678109
H        2.37672245       0.73049644      -0.66379748
H        2.84263208      -0.55442224       0.44951869
H        1.00128725      -1.34464330      -1.11044884
H        0.51992082      -1.39163383       0.54808766
H       -0.06445501       0.81427905      -1.52635958
H       -2.32552233      -0.93056908      -0.42772771
H       -1.73340221      -0.77339145       1.20654318
H       -2.88311281       0.38099285       0.52129547
H       -1.20663443       1.85618758       0.02686926
15
Frame=15 idx=004846 GeodesicLength=0.7142584859831147 rxn_smarts="[C:1]([C:2]([C@@:3]([C:4]([H:12])([H:13])[H:14])([O:5][H:15])[H:11])([H:9])[H:10])([H:6])([H:7])[H:8]>>[C:1]([C:2]([C:3][H:11])([H:9])[H:10])([H:6])([H:7])[H:8].[C:4]([O:5][H:15])([H:12])([H:13])[H:14]"
C        2.01204317       0.09212726       0.16230370
C        0.77231435      -0.68895281      -0.26074069
C       -0.37038937       0.16020419      -0.72981732
C       -1.95949402      -0.20696504       0.31657290
O       -0.77447884       1.14769844       0.46273026
H        1.78594297       0.72979710       1.01927889
H        2.37801063       0.72586376      -0.64909628
H        2.82651629      -0.57637318       0.45057566
H        0.98362478      -1.33377718      -1.12288839
H        0.49695473      -1.39116360       0.53217263
H       -0.05085534       0.83703427      -1.53068052
H       -2.28462925      -0.96994101      -0.39494175
H       -1.70340526      -0.74242959       1.23102271
H       -2.87883697       0.35630769       0.50218101
H       -1.23331785       1.86056968       0.01132720
15
Frame=16 idx=004846 GeodesicLength=0.7661271867809445 rxn_smarts="[C:1]([C:2]([C@@:3]([C:4]([H:12])([H:13])[H:14])([O:5][H:15])[H:11])([H:9])[H:10])([H:6])([H:7])[H:8]>>[C:1]([C:2]([C:3][H:11])([H:9])[H:10])([H:6])([H:7])[H:8].[C:4]([O:5][H:15])([H:12])([H:13])[H:14]"
C        2.00321816       0.08199587       0.16786865
C        0.75846188      -0.68303597      -0.26822124
C       -0.37202243       0.18109527      -0.74017547
C       -1.93710505      -0.20936020       0.32109588
O       -0.77337338       1.17234995       0.45246089
H        1.77890223       0.71134873       1.03132898
H        2.37857628       0.72128995      -0.63474516
H        2.81035591      -0.59740689       0.45131098
H        0.96637657      -1.32330031      -1.13472957
H        0.47469119      -1.39056885       0.51690210
H       -0.03756744       0.85847651      -1.53468273
H       -2.24324288      -1.00598555      -0.36257031
H       -1.67451205      -0.71174050       1.25329452
H       -2.87368637       0.33103756       0.48429297
H       -1.25907263       1.86380443      -0.00343048
