14
Frame=0 idx=010215 GeodesicLength=0.0 rxn_smarts="[C:1]([C:2]([N:3](/[C:4](=[N:5]/[H:14])[C:6]#[N:7])[H:13])([H:11])[H:12])([H:8])([H:9])[H:10]>>[C:1]([C:2]([N:3]=[C:4]=[N:5][H:14])([H:11])[H:12])([H:8])([H:9])[H:10].[C:6]=[N:7][H:13]"
C       -1.80669975       0.40758189      -0.44047609
C       -1.04215618      -0.50019371       0.50410121
N        0.37195825      -0.10512662       0.59517160
C        1.31372523      -0.75436847       0.03860247
N        2.00602363      -1.65729718      -0.30294808
C        2.45155276       1.39120420      -0.27044141
N        2.02942321       2.12631342       0.52952637
H       -1.41221937       0.33802616      -1.45459122
H       -1.73862800       1.44818558      -0.12136451
H       -2.85873063       0.12059629      -0.45515026
H       -1.07714638      -1.54154007       0.18373564
H       -1.44434805      -0.45147166       1.51651005
H        0.67596963       0.85936530       0.84191988
H        2.53127571      -1.68127519      -1.16459568
14
Frame=1 idx=010215 GeodesicLength=0.07381767521691429 rxn_smarts="[C:1]([C:2]([N:3](/[C:4](=[N:5]/[H:14])[C:6]#[N:7])[H:13])([H:11])[H:12])([H:8])([H:9])[H:10]>>[C:1]([C:2]([N:3]=[C:4]=[N:5][H:14])([H:11])[H:12])([H:8])([H:9])[H:10].[C:6]=[N:7][H:13]"
C       -1.82372504       0.40408468      -0.43525840
C       -1.03680296      -0.50143062       0.49299239
N        0.37184074      -0.08856041       0.56414125
C        1.32561900      -0.74393163       0.03500143
N        1.99574790      -1.67105988      -0.29669787
C        2.51984097       1.38160304      -0.20924640
N        2.02221574       2.14257976       0.51905401
H       -1.44317853       0.34371947      -1.45535069
H       -1.76272424       1.44362174      -0.11096393
H       -2.87313848       0.10730857      -0.43704668
H       -1.07023248      -1.54154864       0.16833980
H       -1.42488094      -0.46218055       1.51148976
H        0.67445288       0.89241301       0.80918723
H        2.52496544      -1.70661854      -1.15564191
14
Frame=2 idx=010215 GeodesicLength=0.1463451951123672 rxn_smarts="[C:1]([C:2]([N:3](/[C:4](=[N:5]/[H:14])[C:6]#[N:7])[H:13])([H:11])[H:12])([H:8])([H:9])[H:10]>>[C:1]([C:2]([N:3]=[C:4]=[N:5][H:14])([H:11])[H:12])([H:8])([H:9])[H:10].[C:6]=[N:7][H:13]"
C       -1.84069801       0.40048812      -0.42991662
C       -1.03150073      -0.50232416       0.48171169
N        0.37154213      -0.07253773       0.53170112
C        1.33722732      -0.73413581       0.03143635
N        1.98532329      -1.68406987      -0.29094531
C        2.58219140       1.37210415      -0.14467906
N        2.01906602       2.15560782       0.50716909
H       -1.47496444       0.34841139      -1.45600103
H       -1.78591927       1.43905252      -0.10094241
H       -2.88738212       0.09434036      -0.41801924
H       -1.06410468      -1.54143810       0.15338885
H       -1.40458584      -0.47159257       1.50632870
H        0.67295056       0.92543956       0.77447092
H        2.52085436      -1.72934569      -1.14570305
14
Frame=3 idx=010215 GeodesicLength=0.21704675891522945 rxn_smarts="[C:1]([C:2]([N:3](/[C:4](=[N:5]/[H:14])[C:6]#[N:7])[H:13])([H:11])[H:12])([H:8])([H:9])[H:10]>>[C:1]([C:2]([N:3]=[C:4]=[N:5][H:14])([H:11])[H:12])([H:8])([H:9])[H:10].[C:6]=[N:7][H:13]"
C       -1.85655972       0.39744077      -0.42421098
C       -1.02601948      -0.50326402       0.47015756
N        0.37135320      -0.05825023       0.49873258
C        1.34884362      -0.72527061       0.02840326
N        1.97521581      -1.69638204      -0.28541663
C        2.63847514       1.36265483      -0.07514531
N        2.01465527       2.16688640       0.48910299
H       -1.50645547       0.35287818      -1.45611650
H       -1.80629143       1.43486760      -0.09082396
H       -2.90059998       0.08336920      -0.39807963
H       -1.05869758      -1.54119996       0.13816411
H       -1.38354490      -0.48048177       1.50064049
H        0.67182007       0.95670659       0.73987667
H        2.51780546      -1.74995494      -1.13528466
14
Frame=4 idx=010215 GeodesicLength=0.2870134500088859 rxn_smarts="[C:1]([C:2]([N:3](/[C:4](=[N:5]/[H:14])[C:6]#[N:7])[H:13])([H:11])[H:12])([H:8])([H:9])[H:10]>>[C:1]([C:2]([N:3]=[C:4]=[N:5][H:14])([H:11])[H:12])([H:8])([H:9])[H:10].[C:6]=[N:7][H:13]"
C       -1.87193702       0.39438436      -0.41835026
C       -1.02049064      -0.50399157       0.45857154
N        0.37113441      -0.04476759       0.46481129
C        1.36039531      -0.71723856       0.02636998
N        1.96491257      -1.70811517      -0.28083018
C        2.68899437       1.35317328      -0.00055959
N        2.01284437       2.17585341       0.46735724
H       -1.53799879       0.35655908      -1.45595365
H       -1.82540503       1.43078138      -0.08092667
H       -2.91322836       0.07284298      -0.37751448
H       -1.05396206      -1.54097122       0.12346452
H       -1.36188569      -0.48825486       1.49482648
H        0.67084980       0.98773945       0.70379779
H        2.51577674      -1.76799496      -1.12506402
14
Frame=5 idx=010215 GeodesicLength=0.3564124177980585 rxn_smarts="[C:1]([C:2]([N:3](/[C:4](=[N:5]/[H:14])[C:6]#[N:7])[H:13])([H:11])[H:12])([H:8])([H:9])[H:10]>>[C:1]([C:2]([N:3]=[C:4]=[N:5][H:14])([H:11])[H:12])([H:8])([H:9])[H:10].[C:6]=[N:7][H:13]"
C       -1.88781322       0.39055489      -0.41258549
C       -1.01476500      -0.50386351       0.44700190
N        0.37082764      -0.03117668       0.42788356
C        1.37163604      -0.70943835       0.02409990
N        1.95409937      -1.71892441      -0.27781352
C        2.73381350       1.34362220       0.07868469
N        2.01705769       2.18081134       0.44882000
H       -1.57175613       0.35731945      -1.45600134
H       -1.84414514       1.42645873      -0.07301434
H       -2.92606901       0.06187351      -0.35500587
H       -1.04980296      -1.54049995       0.11080614
H       -1.33837080      -0.49298580       1.48917908
H        0.66981286       1.01970345       0.66280350
H        2.51547514      -1.78345488      -1.11485820
14
Frame=6 idx=010215 GeodesicLength=0.4254867515038747 rxn_smarts="[C:1]([C:2]([N:3](/[C:4](=[N:5]/[H:14])[C:6]#[N:7])[H:13])([H:11])[H:12])([H:8])([H:9])[H:10]>>[C:1]([C:2]([N:3]=[C:4]=[N:5][H:14])([H:11])[H:12])([H:8])([H:9])[H:10].[C:6]=[N:7][H:13]"
C       -1.90379444       0.38640290      -0.40663571
C       -1.00881558      -0.50307574       0.43538024
N        0.37053865      -0.01812558       0.38805540
C        1.38263432      -0.70226001       0.02170655
N        1.94312070      -1.72912212      -0.27643137
C        2.77232466       1.33380866       0.16395133
N        2.02499122       2.18269378       0.43083575
H       -1.60728671       0.35583214      -1.45594664
H       -1.86180894       1.42229814      -0.06648510
H       -2.93878946       0.05127201      -0.33035857
H       -1.04638051      -1.53991190       0.09976827
H       -1.31306684      -0.49506562       1.48358661
H        0.66901983       1.05188564       0.61719700
H        2.51731311      -1.79663229      -1.10462377
14
Frame=7 idx=010215 GeodesicLength=0.4941297239434645 rxn_smarts="[C:1]([C:2]([N:3](/[C:4](=[N:5]/[H:14])[C:6]#[N:7])[H:13])([H:11])[H:12])([H:8])([H:9])[H:10]>>[C:1]([C:2]([N:3]=[C:4]=[N:5][H:14])([H:11])[H:12])([H:8])([H:9])[H:10].[C:6]=[N:7][H:13]"
C       -1.91935015       0.38282641      -0.40005461
C       -1.00251750      -0.50206311       0.42310797
N        0.37040384      -0.00656777       0.34536415
C        1.39360881      -0.69595083       0.01908840
N        1.93246027      -1.73928273      -0.27532345
C        2.80216579       1.32537822       0.25144281
N        2.03434050       2.18176739       0.41301729
H       -1.64413133       0.35398678      -1.45526049
H       -1.87740939       1.41880422      -0.05991567
H       -2.95090430       0.04243544      -0.30341968
H       -1.04374437      -1.53918844       0.08861730
H       -1.28590911      -0.49597034       1.47732046
H        0.66868018       1.08295101       0.56838065
H        2.52230676      -1.80912626      -1.09236514
14
Frame=8 idx=010215 GeodesicLength=0.5625487502184806 rxn_smarts="[C:1]([C:2]([N:3](/[C:4](=[N:5]/[H:14])[C:6]#[N:7])[H:13])([H:11])[H:12])([H:8])([H:9])[H:10]>>[C:1]([C:2]([N:3]=[C:4]=[N:5][H:14])([H:11])[H:12])([H:8])([H:9])[H:10].[C:6]=[N:7][H:13]"
C       -1.93459991       0.37949674      -0.39300347
C       -0.99573708      -0.50052723       0.41034714
N        0.37047555       0.00379560       0.29917146
C        1.40429785      -0.69016251       0.01513207
N        1.92230242      -1.74920606      -0.27461273
C        2.82324445       1.31808133       0.34006647
N        2.04570957       2.17827422       0.39958213
H       -1.68264978       0.35075588      -1.45409053
H       -1.89114776       1.41593729      -0.05415871
H       -2.96239220       0.03488376      -0.27388493
H       -1.04181139      -1.53833703       0.07830709
H       -1.25647381      -0.49470932       1.47057456
H        0.66894044       1.11339762       0.51504895
H        2.52984166      -1.82168029      -1.07847948
14
Frame=9 idx=010215 GeodesicLength=0.6310020098035671 rxn_smarts="[C:1]([C:2]([N:3](/[C:4](=[N:5]/[H:14])[C:6]#[N:7])[H:13])([H:11])[H:12])([H:8])([H:9])[H:10]>>[C:1]([C:2]([N:3]=[C:4]=[N:5][H:14])([H:11])[H:12])([H:8])([H:9])[H:10].[C:6]=[N:7][H:13]"
C       -1.94984026       0.37656349      -0.38493045
C       -0.98829646      -0.49827848       0.39699456
N        0.37073106       0.01280066       0.24814674
C        1.41455902      -0.68499216       0.00875767
N        1.91234818      -1.75907775      -0.27554396
C        2.83477993       1.31061265       0.43606794
N        2.05865472       2.17196580       0.38734688
H       -1.72391710       0.34618419      -1.45188322
H       -1.90309161       1.41384683      -0.04883898
H       -2.97332849       0.02887282      -0.24043488
H       -1.04073448      -1.53719462       0.06906926
H       -1.22374250      -0.49080103       1.46328355
H        0.66994786       1.14332333       0.45414419
H        2.54193014      -1.83382573      -1.06217931
14
Frame=10 idx=010215 GeodesicLength=0.6994902509104419 rxn_smarts="[C:1]([C:2]([N:3](/[C:4](=[N:5]/[H:14])[C:6]#[N:7])[H:13])([H:11])[H:12])([H:8])([H:9])[H:10]>>[C:1]([C:2]([N:3]=[C:4]=[N:5][H:14])([H:11])[H:12])([H:8])([H:9])[H:10].[C:6]=[N:7][H:13]"
C       -1.96423491       0.37458631      -0.37570597
C       -0.98003220      -0.49567943       0.38281296
N        0.37129943       0.01978549       0.19316797
C        1.42450859      -0.68029862      -0.00067892
N        1.90322868      -1.76911085      -0.27671432
C        2.83464692       1.30441091       0.53416230
N        2.07113542       2.16357895       0.37825258
H       -1.76668276       0.34152782      -1.44826670
H       -1.91226494       1.41286588      -0.04316220
H       -2.98286265       0.02518868      -0.20359894
H       -1.04033849      -1.53586723       0.05991786
H       -1.18800546      -0.48541434       1.45495411
H        0.67194549       1.17186581       0.38744234
H        2.55765690      -1.84743937      -1.04258306
14
Frame=11 idx=010215 GeodesicLength=0.7680696972585326 rxn_smarts="[C:1]([C:2]([N:3](/[C:4](=[N:5]/[H:14])[C:6]#[N:7])[H:13])([H:11])[H:12])([H:8])([H:9])[H:10]>>[C:1]([C:2]([N:3]=[C:4]=[N:5][H:14])([H:11])[H:12])([H:8])([H:9])[H:10].[C:6]=[N:7][H:13]"
C       -1.97638220       0.37500678      -0.36489798
C       -0.97116293      -0.49433223       0.36675374
N        0.37229164       0.02354943       0.13761803
C        1.43469391      -0.67619990      -0.01109125
N        1.89604393      -1.77973903      -0.27379054
C        2.82265429       1.30294032       0.62494691
N        2.07954371       2.15479296       0.36716934
H       -1.80768029       0.34221812      -1.44245813
H       -1.91755853       1.41322287      -0.03293559
H       -2.98986323       0.02486397      -0.16598955
H       -1.04044062      -1.53475225       0.04594252
H       -1.15135073      -0.48409474       1.44410122
H        0.67446854       1.19734322       0.32227845
H        2.57474252      -1.86481952      -1.01764717
14
Frame=12 idx=010215 GeodesicLength=0.8370450615939474 rxn_smarts="[C:1]([C:2]([N:3](/[C:4](=[N:5]/[H:14])[C:6]#[N:7])[H:13])([H:11])[H:12])([H:8])([H:9])[H:10]>>[C:1]([C:2]([N:3]=[C:4]=[N:5][H:14])([H:11])[H:12])([H:8])([H:9])[H:10].[C:6]=[N:7][H:13]"
C       -1.98753488       0.37542178      -0.35333006
C       -0.96081329      -0.49153184       0.35077146
N        0.37362852       0.02594018       0.07651699
C        1.44443079      -0.67155126      -0.02915985
N        1.88921921      -1.79014809      -0.27301308
C        2.79817980       1.30031932       0.71991603
N        2.08645766       2.14452825       0.36773852
H       -1.85110761       0.33877819      -1.43538186
H       -1.91961718       1.41466893      -0.02604239
H       -2.99484820       0.02644677      -0.12342104
H       -1.04075975      -1.53322755       0.03616874
H       -1.10993051      -0.47737718       1.43297873
H        0.67866182       1.22231267       0.24741677
H        2.59403363      -1.88458016      -0.99115897
14
Frame=13 idx=010215 GeodesicLength=0.9059692825940784 rxn_smarts="[C:1]([C:2]([N:3](/[C:4](=[N:5]/[H:14])[C:6]#[N:7])[H:13])([H:11])[H:12])([H:8])([H:9])[H:10]>>[C:1]([C:2]([N:3]=[C:4]=[N:5][H:14])([H:11])[H:12])([H:8])([H:9])[H:10].[C:6]=[N:7][H:13]"
C       -1.99459988       0.37861117      -0.34069469
C       -0.95061965      -0.49162896       0.33324343
N        0.37542976       0.02424935       0.02114583
C        1.45479371      -0.66798410      -0.04223228
N        1.88449076      -1.80066635      -0.26548017
C        2.76522791       1.30509474       0.79950925
N        2.08741582       2.13506456       0.35945483
H       -1.88736837       0.34438674      -1.42617372
H       -1.91688666       1.41680200      -0.01202801
H       -2.99608238       0.03104970      -0.08480397
H       -1.04149116      -1.53257259       0.01875754
H       -1.07179423      -0.47955937       1.41914321
H        0.68240563       1.24330915       0.18239709
H        2.60907875      -1.90615604      -0.96223833
14
Frame=14 idx=010215 GeodesicLength=0.9757334425893189 rxn_smarts="[C:1]([C:2]([N:3](/[C:4](=[N:5]/[H:14])[C:6]#[N:7])[H:13])([H:11])[H:12])([H:8])([H:9])[H:10]>>[C:1]([C:2]([N:3]=[C:4]=[N:5][H:14])([H:11])[H:12])([H:8])([H:9])[H:10].[C:6]=[N:7][H:13]"
C       -1.99958695       0.38257531      -0.32737447
C       -0.93970606      -0.49190568       0.31555072
N        0.37750070       0.02056732      -0.03490708
C        1.46510426      -0.66436133      -0.05828459
N        1.88029143      -1.81088754      -0.25736993
C        2.72213018       1.31122321       0.87726655
N        2.08616043       2.12491898       0.35358354
H       -1.92227713       0.35040678      -1.41551372
H       -1.91060524       1.41969140       0.00212659
H       -2.99475787       0.03748294      -0.04496493
H       -1.04253803      -1.53208793       0.00172755
H       -1.03228476      -0.48166600       1.40445918
H        0.68700980       1.26301726       0.11592644
H        2.62355925      -1.92897473      -0.93222585
14
Frame=15 idx=010215 GeodesicLength=1.0464823045672969 rxn_smarts="[C:1]([C:2]([N:3](/[C:4](=[N:5]/[H:14])[C:6]#[N:7])[H:13])([H:11])[H:12])([H:8])([H:9])[H:10]>>[C:1]([C:2]([N:3]=[C:4]=[N:5][H:14])([H:11])[H:12])([H:8])([H:9])[H:10].[C:6]=[N:7][H:13]"
C       -2.00221851       0.38720152      -0.31355643
C       -0.92805744      -0.49232534       0.29797584
N        0.37980820       0.01503751      -0.09098599
C        1.47541052      -0.66064313      -0.07698259
N        1.87652391      -1.82054702      -0.24863279
C        2.66913308       1.31816746       0.95186982
N        2.08209041       2.11410023       0.35060446
H       -1.95511810       0.35670171      -1.40353346
H       -1.90071189       1.42321246       0.01608993
H       -2.99060360       0.04556655      -0.00443241
H       -1.04372701      -1.53173489      -0.01445318
H       -0.99173583      -0.48359973       1.38915489
H        0.69255274       1.28150570       0.04879375
H        2.63665352      -1.95264302      -0.90191186
14
Frame=16 idx=010215 GeodesicLength=1.1173827470484243 rxn_smarts="[C:1]([C:2]([N:3](/[C:4](=[N:5]/[H:14])[C:6]#[N:7])[H:13])([H:11])[H:12])([H:8])([H:9])[H:10]>>[C:1]([C:2]([N:3]=[C:4]=[N:5][H:14])([H:11])[H:12])([H:8])([H:9])[H:10].[C:6]=[N:7][H:13]"
C       -2.00191902       0.39279477      -0.29964082
C       -0.91684843      -0.49457897       0.28037716
N        0.38240101       0.00707847      -0.14182368
C        1.48590562      -0.65738215      -0.09183391
N        1.87371725      -1.82948868      -0.23585334
C        2.61255835       1.32947616       1.01525754
N        2.07524724       2.10396858       0.34448006
H       -1.98199946       0.36743371      -1.39063580
H       -1.88763535       1.42650864       0.03326683
H       -2.98400179       0.05455799       0.03236437
H       -1.04535413      -1.53213369      -0.03368201
H       -0.95446003      -0.49053833       1.37296844
H        0.69765029       1.29824984      -0.01197761
H        2.64473845      -1.97594636      -0.87326724
