14
Frame=0 idx=011712 GeodesicLength=0.0 rxn_smarts="[C:1]([c:2]1[c:3]([H:11])[o:4][c:5]([H:12])[c:6]1[N:7]([H:13])[H:14])([H:8])([H:9])[H:10]>>[C:1]([C:2](=[C:3]=[O:4])[H:11])([H:8])([H:9])[H:10].[C:5](#[C:6][N:7]([H:13])[H:14])[H:12]"
C       -1.61270633       0.14872210      -0.15223275
C       -0.49917304      -0.68212294       0.36265045
C       -0.18755196      -1.96816516       0.14690902
O        0.58600215      -2.81449672      -0.21790202
C        1.47755594       0.09455933      -1.10246380
C        1.50192728       0.92492112      -0.23150187
N        1.55678677       1.83558355       0.74973280
H       -2.51863232      -0.12064322       0.39709594
H       -1.80559518       0.03182674      -1.22072202
H       -1.42899903       1.19881672       0.07464854
H       -1.13312584      -2.19501578       0.81614275
H        1.57255183      -0.65166943      -1.85567425
H        1.37010951       1.47497059       1.67236571
H        1.12085026       2.72271313       0.56095151
14
Frame=1 idx=011712 GeodesicLength=0.11832899116510195 rxn_smarts="[C:1]([c:2]1[c:3]([H:11])[o:4][c:5]([H:12])[c:6]1[N:7]([H:13])[H:14])([H:8])([H:9])[H:10]>>[C:1]([C:2](=[C:3]=[O:4])[H:11])([H:8])([H:9])[H:10].[C:5](#[C:6][N:7]([H:13])[H:14])[H:12]"
C       -1.62762506       0.15918547      -0.13337899
C       -0.50897744      -0.67656846       0.36466389
C       -0.19658814      -1.95626560       0.11870902
O        0.63373393      -2.76100734      -0.22303454
C        1.51950658       0.04207401      -1.09095434
C        1.48051905       0.87808875      -0.22079890
N        1.54508793       1.80762276       0.74378903
H       -2.54014642      -0.13801930       0.38971724
H       -1.80179313       0.07906410      -1.20840981
H       -1.45909974       1.20299499       0.13162664
H       -1.11633496      -2.17510435       0.84413344
H        1.61724778      -0.64676381      -1.89726919
H        1.29821915       1.47678808       1.66350183
H        1.15625046       2.70791068       0.51770469
14
Frame=2 idx=011712 GeodesicLength=0.23497848917472905 rxn_smarts="[C:1]([c:2]1[c:3]([H:11])[o:4][c:5]([H:12])[c:6]1[N:7]([H:13])[H:14])([H:8])([H:9])[H:10]>>[C:1]([C:2](=[C:3]=[O:4])[H:11])([H:8])([H:9])[H:10].[C:5](#[C:6][N:7]([H:13])[H:14])[H:12]"
C       -1.64361310       0.16708235      -0.11494080
C       -0.51903725      -0.67140911       0.36752917
C       -0.20398023      -1.94456810       0.09558340
O        0.67382003      -2.70770081      -0.23220575
C        1.55310564      -0.00434133      -1.08193058
C        1.45548852       0.83555552      -0.21454250
N        1.53584401       1.77910048       0.73720935
H       -2.56196551      -0.15758966       0.38052107
H       -1.79863969       0.12291757      -1.19491028
H       -1.49197378       1.20347279       0.18718886
H       -1.09968150      -2.15528956       0.87114559
H        1.67059937      -0.63964102      -1.92840762
H        1.22798900       1.47974229       1.64932951
H        1.20204448       2.69266859       0.47843059
14
Frame=3 idx=011712 GeodesicLength=0.34880186309498484 rxn_smarts="[C:1]([c:2]1[c:3]([H:11])[o:4][c:5]([H:12])[c:6]1[N:7]([H:13])[H:14])([H:8])([H:9])[H:10]>>[C:1]([C:2](=[C:3]=[O:4])[H:11])([H:8])([H:9])[H:10].[C:5](#[C:6][N:7]([H:13])[H:14])[H:12]"
C       -1.65689348       0.17287247      -0.09908916
C       -0.52720562      -0.66673195       0.37219803
C       -0.20848019      -1.93377103       0.07972187
O        0.70644265      -2.65752516      -0.24624898
C        1.58560531      -0.04801793      -1.07030395
C        1.43233147       0.79449689      -0.20753461
N        1.52691584       1.75121374       0.73199728
H       -2.58123694      -0.17712857       0.36673966
H       -1.79097373       0.16221536      -1.18265857
H       -1.52315841       1.20119999       0.23744289
H       -1.08271143      -2.13471840       0.89996225
H        1.71001896      -0.62494699      -1.95709078
H        1.15961463       1.48638898       1.63277858
H        1.24973095       2.67445261       0.44208549
14
Frame=4 idx=011712 GeodesicLength=0.4619953436815949 rxn_smarts="[C:1]([c:2]1[c:3]([H:11])[o:4][c:5]([H:12])[c:6]1[N:7]([H:13])[H:14])([H:8])([H:9])[H:10]>>[C:1]([C:2](=[C:3]=[O:4])[H:11])([H:8])([H:9])[H:10].[C:5](#[C:6][N:7]([H:13])[H:14])[H:12]"
C       -1.67084904       0.17724836      -0.08334316
C       -0.53553944      -0.66197853       0.37796448
C       -0.21190460      -1.92275397       0.06738038
O        0.73399196      -2.60843379      -0.26309174
C        1.61050484      -0.08620660      -1.06239988
C        1.40701673       0.75699894      -0.20441797
N        1.51858351       1.72289411       0.72624424
H       -2.60021818      -0.19738186       0.35195086
H       -1.78415448       0.19942197      -1.16904927
H       -1.55616845       1.19652745       0.28639849
H       -1.06607450      -2.11387190       0.92864474
H        1.75831512      -0.61041897      -1.97835646
H        1.09399891       1.49401237       1.61158265
H        1.30249763       2.65394242       0.41049266
14
Frame=5 idx=011712 GeodesicLength=0.5743299331156693 rxn_smarts="[C:1]([c:2]1[c:3]([H:11])[o:4][c:5]([H:12])[c:6]1[N:7]([H:13])[H:14])([H:8])([H:9])[H:10]>>[C:1]([C:2](=[C:3]=[O:4])[H:11])([H:8])([H:9])[H:10].[C:5](#[C:6][N:7]([H:13])[H:14])[H:12]"
C       -1.68369701       0.18123028      -0.06744957
C       -0.54299875      -0.65754217       0.38443189
C       -0.21477540      -1.91214625       0.05711405
O        0.75640823      -2.56183307      -0.28317203
C        1.63234016      -0.12151127      -1.05563248
C        1.38229215       0.72104165      -0.20278227
N        1.50912185       1.69543053       0.71968865
H       -2.61734356      -0.21650054       0.33670745
H       -1.77675145       0.23599586      -1.15387139
H       -1.58811111       1.19033984       0.33448217
H       -1.05013785      -2.09285417       0.95657871
H        1.81019629      -0.59540170      -1.99400271
H        1.03202505       1.50356656       1.58694208
H        1.35143139       2.63018444       0.38096545
14
Frame=6 idx=011712 GeodesicLength=0.6858793749257347 rxn_smarts="[C:1]([c:2]1[c:3]([H:11])[o:4][c:5]([H:12])[c:6]1[N:7]([H:13])[H:14])([H:8])([H:9])[H:10]>>[C:1]([C:2](=[C:3]=[O:4])[H:11])([H:8])([H:9])[H:10].[C:5](#[C:6][N:7]([H:13])[H:14])[H:12]"
C       -1.69563094       0.18460844      -0.05198821
C       -0.54967291      -0.65329363       0.39140871
C       -0.21694315      -1.90187209       0.04899161
O        0.77491365      -2.51736901      -0.30522483
C        1.65152541      -0.15409774      -1.04996983
C        1.35800353       0.68676215      -0.20253855
N        1.49896572       1.66847180       0.71289384
H       -2.63276674      -0.23467659       0.32069621
H       -1.76894228       0.27121656      -1.13779414
H       -1.61929571       1.18268454       0.38067435
H       -1.03456464      -2.07145383       0.98440724
H        1.86262700      -0.57917745      -2.00520754
H        0.97318093       1.51440057       1.55932925
H        1.39860012       2.60379628       0.35432190
14
Frame=7 idx=011712 GeodesicLength=0.797170954853512 rxn_smarts="[C:1]([c:2]1[c:3]([H:11])[o:4][c:5]([H:12])[c:6]1[N:7]([H:13])[H:14])([H:8])([H:9])[H:10]>>[C:1]([C:2](=[C:3]=[O:4])[H:11])([H:8])([H:9])[H:10].[C:5](#[C:6][N:7]([H:13])[H:14])[H:12]"
C       -1.70751528       0.18741666      -0.03620588
C       -0.55595302      -0.64916958       0.39851876
C       -0.21886342      -1.89173832       0.04187264
O        0.78995515      -2.47459804      -0.32915788
C        1.66782917      -0.18399281      -1.04602013
C        1.33312564       0.65467839      -0.20471856
N        1.48828323       1.64188537       0.70544910
H       -2.64711634      -0.25246215       0.30479041
H       -1.76207393       0.30585269      -1.12005232
H       -1.65068345       1.17336560       0.42644598
H       -1.01932194      -2.04986070       1.01164973
H        1.91987719      -0.56333928      -2.01110288
H        0.91661907       1.52669987       1.52804468
H        1.44583794       2.57526230       0.33048635
14
Frame=8 idx=011712 GeodesicLength=0.9081788744251803 rxn_smarts="[C:1]([c:2]1[c:3]([H:11])[o:4][c:5]([H:12])[c:6]1[N:7]([H:13])[H:14])([H:8])([H:9])[H:10]>>[C:1]([C:2](=[C:3]=[O:4])[H:11])([H:8])([H:9])[H:10].[C:5](#[C:6][N:7]([H:13])[H:14])[H:12]"
C       -1.71910289       0.18964326      -0.02042168
C       -0.56171540      -0.64517429       0.40575681
C       -0.22043795      -1.88182880       0.03589045
O        0.80200008      -2.43347155      -0.35453224
C        1.68189068      -0.21165538      -1.04343762
C        1.30803588       0.62445420      -0.20890285
N        1.47700593       1.61561519       0.69760173
H       -2.66026146      -0.26982913       0.28852149
H       -1.75565242       0.33982913      -1.10102676
H       -1.68203541       1.16240274       0.47144182
H       -1.00421915      -2.02793648       1.03873173
H        1.97920009      -0.54706620      -2.01246432
H        0.86207707       1.54048439       1.49324632
H        1.49321495       2.54453292       0.30959511
14
Frame=9 idx=011712 GeodesicLength=1.018985496835576 rxn_smarts="[C:1]([c:2]1[c:3]([H:11])[o:4][c:5]([H:12])[c:6]1[N:7]([H:13])[H:14])([H:8])([H:9])[H:10]>>[C:1]([C:2](=[C:3]=[O:4])[H:11])([H:8])([H:9])[H:10].[C:5](#[C:6][N:7]([H:13])[H:14])[H:12]"
C       -1.73051390       0.19128254      -0.00459461
C       -0.56698938      -0.64126765       0.41299378
C       -0.22169879      -1.87210501       0.03077904
O        0.81136786      -2.39375946      -0.38126656
C        1.69386654      -0.23720168      -1.04234145
C        1.28263959       0.59608520      -0.21518106
N        1.46512249       1.58953353       0.68945202
H       -2.67226983      -0.28678897       0.27220139
H       -1.75001067       0.37303642      -1.08072485
H       -1.71335641       1.14985427       0.51560722
H       -0.98904864      -2.00563401       1.06571710
H        2.04045729      -0.53046595      -2.00923289
H        0.80916164       1.55594114       1.45466120
H        1.54127222       2.51148965       0.29192967
14
Frame=10 idx=011712 GeodesicLength=1.1294737869307532 rxn_smarts="[C:1]([c:2]1[c:3]([H:11])[o:4][c:5]([H:12])[c:6]1[N:7]([H:13])[H:14])([H:8])([H:9])[H:10]>>[C:1]([C:2](=[C:3]=[O:4])[H:11])([H:8])([H:9])[H:10].[C:5](#[C:6][N:7]([H:13])[H:14])[H:12]"
C       -1.74135403       0.19254372       0.01124057
C       -0.57158222      -0.63751912       0.42018070
C       -0.22265725      -1.86263294       0.02619783
O        0.81817956      -2.35547374      -0.40957874
C        1.70441144      -0.26095626      -1.04236549
C        1.25747317       0.56908993      -0.22289233
N        1.45230538       1.56386272       0.68106688
H       -2.68286811      -0.30273408       0.25632078
H       -1.74494871       0.40528080      -1.05930410
H       -1.74375112       1.13616983       0.55852797
H       -0.97380013      -1.98304439       1.09236665
H        2.10240404      -0.51362562      -2.00145623
H        0.75817122       1.57288436       1.41264118
H        1.58801674       2.47615479       0.27705433
14
Frame=11 idx=011712 GeodesicLength=1.2398843007448592 rxn_smarts="[C:1]([c:2]1[c:3]([H:11])[o:4][c:5]([H:12])[c:6]1[N:7]([H:13])[H:14])([H:8])([H:9])[H:10]>>[C:1]([C:2](=[C:3]=[O:4])[H:11])([H:8])([H:9])[H:10].[C:5](#[C:6][N:7]([H:13])[H:14])[H:12]"
C       -1.75186013       0.19339127       0.02729185
C       -0.57559553      -0.63389560       0.42725232
C       -0.22337398      -1.85338066       0.02203945
O        0.82257776      -2.31838341      -0.43936589
C        1.71337372      -0.28309742      -1.04384086
C        1.23218726       0.54357738      -0.23256359
N        1.43845391       1.53845967       0.67222730
H       -2.69229795      -0.31804730       0.24075924
H       -1.74061011       0.43701816      -1.03653027
H       -1.77361592       1.12109146       0.60093148
H       -0.95829394      -1.96011303       1.11883356
H        2.16586572      -0.49658851      -1.98875246
H        0.70863243       1.59150031       1.36637232
H        1.63455674       2.43846768       0.26534554
14
Frame=12 idx=011712 GeodesicLength=1.3501742631236726 rxn_smarts="[C:1]([c:2]1[c:3]([H:11])[o:4][c:5]([H:12])[c:6]1[N:7]([H:13])[H:14])([H:8])([H:9])[H:10]>>[C:1]([C:2](=[C:3]=[O:4])[H:11])([H:8])([H:9])[H:10].[C:5](#[C:6][N:7]([H:13])[H:14])[H:12]"
C       -1.76166576       0.19418241       0.04388215
C       -0.57886382      -0.63053442       0.43406241
C       -0.22408499      -1.84442459       0.01755986
O        0.82425916      -2.28258995      -0.47145283
C        1.72155943      -0.30410624      -1.04628446
C        1.20719271       0.51904442      -0.24378544
N        1.42302743       1.51388587       0.66241385
H       -2.70038226      -0.33202395       0.22618765
H       -1.73684126       0.46866308      -1.01210402
H       -1.80197240       1.10498144       0.64321678
H       -0.94257715      -1.93714186       1.14453048
H        2.23141019      -0.48013924      -1.97007610
H        0.66119408       1.61108157       1.31638540
H        1.67774465       2.39912146       0.25546429
14
Frame=13 idx=011712 GeodesicLength=1.460382457740035 rxn_smarts="[C:1]([c:2]1[c:3]([H:11])[o:4][c:5]([H:12])[c:6]1[N:7]([H:13])[H:14])([H:8])([H:9])[H:10]>>[C:1]([C:2](=[C:3]=[O:4])[H:11])([H:8])([H:9])[H:10].[C:5](#[C:6][N:7]([H:13])[H:14])[H:12]"
C       -1.76991959       0.19533393       0.06078822
C       -0.58107196      -0.62764512       0.44062197
C       -0.22483752      -1.83606956       0.01275628
O        0.82302812      -2.24850857      -0.50592018
C        1.73077918      -0.32521027      -1.04791475
C        1.18354148       0.49445809      -0.25538739
N        1.40578208       1.49088002       0.65115665
H       -2.70665908      -0.34396949       0.21159730
H       -1.73203560       0.50111253      -0.98610102
H       -1.82785785       1.08798435       0.68562584
H       -0.92691515      -1.91423687       1.16936436
H        2.29585635      -0.46374788      -1.94624210
H        0.61670567       1.62990861       1.26418164
H        1.71360385       2.35971022       0.24547316
14
Frame=14 idx=011712 GeodesicLength=1.5706129624975702 rxn_smarts="[C:1]([c:2]1[c:3]([H:11])[o:4][c:5]([H:12])[c:6]1[N:7]([H:13])[H:14])([H:8])([H:9])[H:10]>>[C:1]([C:2](=[C:3]=[O:4])[H:11])([H:8])([H:9])[H:10].[C:5](#[C:6][N:7]([H:13])[H:14])[H:12]"
C       -1.77731966       0.19651214       0.07835333
C       -0.58247082      -0.62514125       0.44678053
C       -0.22562972      -1.82805657       0.00713673
O        0.81899208      -2.21531846      -0.54330015
C        1.73993160      -0.34560532      -1.04982906
C        1.16028451       0.47056437      -0.26828983
N        1.38693652       1.46900151       0.63866894
H       -2.71167023      -0.35433786       0.19827646
H       -1.72757469       0.53352647      -0.95833055
H       -1.85171907       1.07009592       0.72809118
H       -0.91074750      -1.89156724       1.19320193
H        2.36149420      -0.44850767      -1.91574156
H        0.57396325       1.64900706       1.20852314
H        1.74552954       2.31982691       0.23645891
14
Frame=15 idx=011712 GeodesicLength=1.6809130732254483 rxn_smarts="[C:1]([c:2]1[c:3]([H:11])[o:4][c:5]([H:12])[c:6]1[N:7]([H:13])[H:14])([H:8])([H:9])[H:10]>>[C:1]([C:2](=[C:3]=[O:4])[H:11])([H:8])([H:9])[H:10].[C:5](#[C:6][N:7]([H:13])[H:14])[H:12]"
C       -1.78362485       0.19775346       0.09642054
C       -0.58295526      -0.62308703       0.45250549
C       -0.22635538      -1.82043470       0.00064639
O        0.81214822      -2.18278409      -0.58371414
C        1.74972090      -0.36562370      -1.05118888
C        1.13767505       0.44716924      -0.28213258
N        1.36645141       1.44841886       0.62499668
H       -2.71535247      -0.36296558       0.18617897
H       -1.72304686       0.56572956      -0.92902813
H       -1.87313122       1.05153189       0.77032472
H       -0.89394322      -1.86920817       1.21601112
H        2.42650352      -0.43445615      -1.87898056
H        0.53288284       1.66792724       1.14974907
H        1.77302732       2.28002916       0.22821131
14
Frame=16 idx=011712 GeodesicLength=1.791372799767617 rxn_smarts="[C:1]([c:2]1[c:3]([H:11])[o:4][c:5]([H:12])[c:6]1[N:7]([H:13])[H:14])([H:8])([H:9])[H:10]>>[C:1]([C:2](=[C:3]=[O:4])[H:11])([H:8])([H:9])[H:10].[C:5](#[C:6][N:7]([H:13])[H:14])[H:12]"
C       -1.78855155       0.19920701       0.11501339
C       -0.58242714      -0.62160401       0.45774295
C       -0.22706818      -1.81327914      -0.00699639
O        0.80214130      -2.15065884      -0.62773348
C        1.76113754      -0.38588201      -1.05065692
C        1.11603132       0.42396819      -0.29653289
N        1.34430071       1.42954734       0.60980959
H       -2.71763501      -0.36956222       0.17522686
H       -1.71792445       0.59797475      -0.89813725
H       -1.89162307       1.03243453       0.81248879
H       -0.87648815      -1.84738987       1.23755283
H        2.49000178      -0.42201601      -1.83603717
H        0.49359533       1.68572855       1.08876775
H        1.79450958       2.24153175       0.21949193
