14
Frame=0 idx=011222 GeodesicLength=0.0 rxn_smarts="[N:1](=[C:2]1\[O:3][C@@:4]2([H:9])[C:5]([H:10])([H:11])[C:6]([H:12])([H:13])[C@@:7]12[H:14])\[H:8]>>[N:1](=[C:2]1\[O:3][C@:4]([C:5]([H:10])([H:11])[H:13])([H:9])[C@:7]1([C:6][H:12])[H:14])\[H:8]"
N        2.62213456       0.12035069       0.43296621
C        1.47399318      -0.04818043      -0.02230500
O        0.78400173      -1.21501226      -0.28976585
C       -0.35434765      -0.47170723      -0.78467050
C       -1.54320945      -0.53462331       0.16441935
C       -0.58629159       1.42578950       0.59175742
C        0.34841231       0.85286278      -0.46272608
H        3.08655750      -0.76336543       0.62837051
H       -0.56639283      -0.73604953      -1.81924562
H       -1.40392398      -1.24515366       0.97446480
H       -2.50838541      -0.68086615      -0.32124547
H       -0.21935060       1.16814637       1.59760742
H       -1.72403455       0.56738424       0.56411178
H        0.59083680       1.56042438      -1.25373901
14
Frame=1 idx=011222 GeodesicLength=0.058602427093224496 rxn_smarts="[N:1](=[C:2]1\[O:3][C@@:4]2([H:9])[C:5]([H:10])([H:11])[C:6]([H:12])([H:13])[C@@:7]12[H:14])\[H:8]>>[N:1](=[C:2]1\[O:3][C@:4]([C:5]([H:10])([H:11])[H:13])([H:9])[C@:7]1([C:6][H:12])[H:14])\[H:8]"
N        2.62122155       0.11458466       0.43726256
C        1.47498667      -0.05322155      -0.02302157
O        0.78573797      -1.21798164      -0.29799362
C       -0.35483435      -0.47322715      -0.78739151
C       -1.54057929      -0.53279841       0.16517874
C       -0.58657772       1.41870610       0.59502595
C        0.34853077       0.84951640      -0.45742933
H        3.08928128      -0.76950989       0.62196020
H       -0.56788128      -0.73121233      -1.82332601
H       -1.39596433      -1.23295468       0.98367990
H       -2.50064664      -0.70712765      -0.32136604
H       -0.21058083       1.18327358       1.60235895
H       -1.75158622       0.58559588       0.54636777
H        0.58889241       1.56635669      -1.24130600
14
Frame=2 idx=011222 GeodesicLength=0.11721120197130164 rxn_smarts="[N:1](=[C:2]1\[O:3][C@@:4]2([H:9])[C:5]([H:10])([H:11])[C:6]([H:12])([H:13])[C@@:7]12[H:14])\[H:8]>>[N:1](=[C:2]1\[O:3][C@:4]([C:5]([H:10])([H:11])[H:13])([H:9])[C@:7]1([C:6][H:12])[H:14])\[H:8]"
N        2.62013548       0.10883932       0.44188493
C        1.47593287      -0.05827597      -0.02365719
O        0.78747288      -1.22099768      -0.30597195
C       -0.35529831      -0.47494371      -0.79006076
C       -1.53812748      -0.53102586       0.16581978
C       -0.58726546       1.41112447       0.59859591
C        0.34848932       0.84604380      -0.45193939
H        3.09228904      -0.77541611       0.61501519
H       -0.56924514      -0.72655699      -1.82734333
H       -1.38848652      -1.22114169       0.99231772
H       -2.49274090      -0.73248531      -0.32100740
H       -0.20138043       1.19926274       1.60684129
H       -1.77847528       0.60337447       0.52800931
H        0.58669993       1.57219850      -1.22850412
14
Frame=3 idx=011222 GeodesicLength=0.17579351818576433 rxn_smarts="[N:1](=[C:2]1\[O:3][C@@:4]2([H:9])[C:5]([H:10])([H:11])[C:6]([H:12])([H:13])[C@@:7]12[H:14])\[H:8]>>[N:1](=[C:2]1\[O:3][C@:4]([C:5]([H:10])([H:11])[H:13])([H:9])[C@:7]1([C:6][H:12])[H:14])\[H:8]"
N        2.61893357       0.10310247       0.44665062
C        1.47684784      -0.06333878      -0.02427941
O        0.78923712      -1.22403385      -0.31377678
C       -0.35574349      -0.47683237      -0.79268447
C       -1.53582664      -0.52933987       0.16635165
C       -0.58830872       1.40302469       0.60248510
C        0.34827618       0.84243491      -0.44627470
H        3.09543461      -0.78107291       0.60784335
H       -0.57050877      -0.72203919      -1.83128743
H       -1.38142835      -1.20978419       1.00035840
H       -2.48470600      -0.75688199      -0.32020792
H       -0.19175246       1.21612394       1.61096195
H       -1.80466289       0.62070851       0.50919863
H        0.58420800       1.57792864      -1.21533900
14
Frame=4 idx=011222 GeodesicLength=0.23436232561033238 rxn_smarts="[N:1](=[C:2]1\[O:3][C@@:4]2([H:9])[C:5]([H:10])([H:11])[C:6]([H:12])([H:13])[C@@:7]12[H:14])\[H:8]>>[N:1](=[C:2]1\[O:3][C@:4]([C:5]([H:10])([H:11])[H:13])([H:9])[C@:7]1([C:6][H:12])[H:14])\[H:8]"
N        2.61778486       0.09745154       0.45078910
C        1.47780933      -0.06833826      -0.02544073
O        0.79106739      -1.22704119      -0.32193874
C       -0.35625676      -0.47881922      -0.79545680
C       -1.53352846      -0.52786222       0.16685207
C       -0.58946325       1.39436903       0.60678260
C        0.34786061       0.83877585      -0.44065337
H        3.09776473      -0.78652512       0.60246102
H       -0.57198777      -0.71748858      -1.83534710
H       -1.37443881      -1.19913958       1.00779181
H       -2.47656171      -0.78034548      -0.31878184
H       -0.18130803       1.23372308       1.61462605
H       -1.82993378       0.63750652       0.49033194
H        0.58119165       1.58373362      -1.20201602
14
Frame=5 idx=011222 GeodesicLength=0.29285825299090446 rxn_smarts="[N:1](=[C:2]1\[O:3][C@@:4]2([H:9])[C:5]([H:10])([H:11])[C:6]([H:12])([H:13])[C@@:7]12[H:14])\[H:8]>>[N:1](=[C:2]1\[O:3][C@:4]([C:5]([H:10])([H:11])[H:13])([H:9])[C@:7]1([C:6][H:12])[H:14])\[H:8]"
N        2.61638900       0.09174451       0.45568000
C        1.47865365      -0.07338893      -0.02606983
O        0.79286459      -1.23009977      -0.32951128
C       -0.35669074      -0.48101872      -0.79800340
C       -1.53148756      -0.52648807       0.16719178
C       -0.59102161       1.38527026       0.61134123
C        0.34734326       0.83491417      -0.43467470
H        3.10102982      -0.79168735       0.59515445
H       -0.57311181      -0.71317777      -1.83915982
H       -1.36815251      -1.18893181       1.01467605
H       -2.46841077      -0.80282181      -0.31726491
H       -0.17092121       1.25244282       1.61779593
H       -1.85462803       0.65398608       0.47100645
H        0.57814392       1.58925639      -1.18816195
14
Frame=6 idx=011222 GeodesicLength=0.3514204588780427 rxn_smarts="[N:1](=[C:2]1\[O:3][C@@:4]2([H:9])[C:5]([H:10])([H:11])[C:6]([H:12])([H:13])[C@@:7]12[H:14])\[H:8]>>[N:1](=[C:2]1\[O:3][C@:4]([C:5]([H:10])([H:11])[H:13])([H:9])[C@:7]1([C:6][H:12])[H:14])\[H:8]"
N        2.61500604       0.08604782       0.46035141
C        1.47949807      -0.07842867      -0.02685106
O        0.79471835      -1.23319179      -0.33718734
C       -0.35714889      -0.48334948      -0.80060067
C       -1.52951472      -0.52534992       0.16747628
C       -0.59273335       1.37571325       0.61630334
C        0.34666530       0.83097154      -0.42861076
H        3.10405891      -0.79666942       0.58847212
H       -0.57428196      -0.70890243      -1.84303259
H       -1.36208376      -1.17945038       1.02103941
H       -2.46025334      -0.82440398      -0.31541453
H       -0.16013448       1.27215973       1.62043313
H       -1.87853598       0.67008846       0.45166999
H        0.57473981       1.59476525      -1.17404875
14
Frame=7 idx=011222 GeodesicLength=0.4099210339383445 rxn_smarts="[N:1](=[C:2]1\[O:3][C@@:4]2([H:9])[C:5]([H:10])([H:11])[C:6]([H:12])([H:13])[C@@:7]12[H:14])\[H:8]>>[N:1](=[C:2]1\[O:3][C@:4]([C:5]([H:10])([H:11])[H:13])([H:9])[C@:7]1([C:6][H:12])[H:14])\[H:8]"
N        2.61364041       0.08035152       0.46480681
C        1.48032958      -0.08345890      -0.02769568
O        0.79664546      -1.23625454      -0.34488240
C       -0.35760591      -0.48578468      -0.80316821
C       -1.52760196      -0.52442943       0.16769631
C       -0.59459707       1.36564266       0.62164546
C        0.34582753       0.82689716      -0.42240408
H        3.10695490      -0.80148973       0.58214851
H       -0.57543494      -0.70463246      -1.84682652
H       -1.35624230      -1.17065024       1.02684824
H       -2.45209669      -0.84504338      -0.31331934
H       -0.14911649       1.29286299       1.62237117
H       -1.90169100       0.68584059       0.43235915
H        0.57098847       1.60014845      -1.15957942
14
Frame=8 idx=011222 GeodesicLength=0.4684611212900632 rxn_smarts="[N:1](=[C:2]1\[O:3][C@@:4]2([H:9])[C:5]([H:10])([H:11])[C:6]([H:12])([H:13])[C@@:7]12[H:14])\[H:8]>>[N:1](=[C:2]1\[O:3][C@:4]([C:5]([H:10])([H:11])[H:13])([H:9])[C@:7]1([C:6][H:12])[H:14])\[H:8]"
N        2.61238793       0.07472894       0.46873105
C        1.48119027      -0.08843969      -0.02883663
O        0.79864746      -1.23931447      -0.35284270
C       -0.35810455      -0.48831372      -0.80582865
C       -1.52569012      -0.52381689       0.16790400
C       -0.59646200       1.35510539       0.62745304
C        0.34483981       0.82277085      -0.41616967
H        3.10932187      -0.80623486       0.57706417
H       -0.57671798      -0.70032486      -1.85071798
H       -1.35048560      -1.16271232       1.03217828
H       -2.44397895      -0.86483816      -0.31095283
H       -0.13775753       1.31454949       1.62361392
H       -1.92401963       0.70127793       0.41330873
H        0.56682902       1.60556238      -1.14490472
14
Frame=9 idx=011222 GeodesicLength=0.5268940010373183 rxn_smarts="[N:1](=[C:2]1\[O:3][C@@:4]2([H:9])[C:5]([H:10])([H:11])[C:6]([H:12])([H:13])[C@@:7]12[H:14])\[H:8]>>[N:1](=[C:2]1\[O:3][C@:4]([C:5]([H:10])([H:11])[H:13])([H:9])[C@:7]1([C:6][H:12])[H:14])\[H:8]"
N        2.61101180       0.06897566       0.47311918
C        1.48195611      -0.09349155      -0.02949234
O        0.80067161      -1.24238521      -0.36041216
C       -0.35852559      -0.49098564      -0.80827779
C       -1.52394692      -0.52339893       0.16800829
C       -0.59855008       1.34409475       0.63360075
C        0.34377741       0.81842504      -0.40958632
H        3.11240261      -0.81072724       0.57049457
H       -0.57770409      -0.69610592      -1.85435463
H       -1.34525123      -1.15535844       1.03701547
H       -2.43596349      -0.88371322      -0.30863119
H       -0.12675404       1.33747480       1.62400509
H       -1.94575051       0.71654361       0.39419083
H        0.56262641       1.61065229      -1.12967976
14
Frame=10 idx=011222 GeodesicLength=0.5853701609031425 rxn_smarts="[N:1](=[C:2]1\[O:3][C@@:4]2([H:9])[C:5]([H:10])([H:11])[C:6]([H:12])([H:13])[C@@:7]12[H:14])\[H:8]>>[N:1](=[C:2]1\[O:3][C@:4]([C:5]([H:10])([H:11])[H:13])([H:9])[C@:7]1([C:6][H:12])[H:14])\[H:8]"
N        2.60970896       0.06318451       0.47733423
C        1.48270673      -0.09856426      -0.03009732
O        0.80276302      -1.24548700      -0.36802447
C       -0.35894469      -0.49376517      -0.81071006
C       -1.52224745      -0.52327888       0.16808364
C       -0.60066662       1.33263995       0.64021666
C        0.34260524       0.81397208      -0.40283405
H        3.11546984      -0.81512160       0.56409939
H       -0.57867381      -0.69187225      -1.85798144
H       -1.34022067      -1.14882392       1.04142260
H       -2.42804650      -0.90178687      -0.30624974
H       -0.11585426       1.36158357       1.62353682
H       -1.96675974       0.73166617       0.37530786
H        0.55815994       1.61565366      -1.11410412
14
Frame=11 idx=011222 GeodesicLength=0.6438539733087153 rxn_smarts="[N:1](=[C:2]1\[O:3][C@@:4]2([H:9])[C:5]([H:10])([H:11])[C:6]([H:12])([H:13])[C@@:7]12[H:14])\[H:8]>>[N:1](=[C:2]1\[O:3][C@:4]([C:5]([H:10])([H:11])[H:13])([H:9])[C@:7]1([C:6][H:12])[H:14])\[H:8]"
N        2.60853387       0.05738162       0.48120255
C        1.48346174      -0.10363952      -0.03073828
O        0.80494188      -1.24857821      -0.37578662
C       -0.35936607      -0.49662054      -0.81314323
C       -1.52054965      -0.52347968       0.16815772
C       -0.60274294       1.32070008       0.64733220
C        0.34133047       0.80941485      -0.39593491
H        3.11834389      -0.81949079       0.55821816
H       -0.57967234      -0.68755769      -1.86159685
H       -1.33530806      -1.14314776       1.04540668
H       -2.42022832      -0.91910062      -0.30379765
H       -0.10511937       1.38687061       1.62208633
H       -1.98702768       0.74667612       0.35677471
H        0.55340258       1.62057154      -1.09818079
14
Frame=12 idx=011222 GeodesicLength=0.7023838012856761 rxn_smarts="[N:1](=[C:2]1\[O:3][C@@:4]2([H:9])[C:5]([H:10])([H:11])[C:6]([H:12])([H:13])[C@@:7]12[H:14])\[H:8]>>[N:1](=[C:2]1\[O:3][C@:4]([C:5]([H:10])([H:11])[H:13])([H:9])[C@:7]1([C:6][H:12])[H:14])\[H:8]"
N        2.60750584       0.05155570       0.48482990
C        1.48422051      -0.10873182      -0.03132547
O        0.80718407      -1.25169503      -0.38366352
C       -0.35979632      -0.49956692      -0.81557632
C       -1.51887591      -0.52403185       0.16823798
C       -0.60473241       1.30829905       0.65498625
C        0.33998679       0.80476384      -0.38886239
H        3.12116560      -0.82384153       0.55261750
H       -0.58069899      -0.68317247      -1.86523516
H       -1.33055801      -1.13838016       1.04902428
H       -2.41256515      -0.93572660      -0.30135247
H       -0.09469280       1.41343862       1.61960536
H       -2.00656774       0.76166090       0.33861742
H        0.54842453       1.62542827      -1.08190336
14
Frame=13 idx=011222 GeodesicLength=0.7607425198841897 rxn_smarts="[N:1](=[C:2]1\[O:3][C@@:4]2([H:9])[C:5]([H:10])([H:11])[C:6]([H:12])([H:13])[C@@:7]12[H:14])\[H:8]>>[N:1](=[C:2]1\[O:3][C@:4]([C:5]([H:10])([H:11])[H:13])([H:9])[C@:7]1([C:6][H:12])[H:14])\[H:8]"
N        2.60659788       0.04564840       0.48812013
C        1.48496890      -0.11387047      -0.03179185
O        0.80957390      -1.25469818      -0.39152530
C       -0.36014211      -0.50253868      -0.81784608
C       -1.51717392      -0.52480614       0.16832249
C       -0.60670220       1.29529311       0.66313244
C        0.33855024       0.79989075      -0.38151796
H        3.12400790      -0.82816601       0.54692582
H       -0.58157317      -0.67865110      -1.86858031
H       -1.32595307      -1.13430431       1.05215832
H       -2.40495234      -0.95146949      -0.29891423
H       -0.08497119       1.44105007       1.61577853
H       -2.02541147       0.77667022       0.32081733
H        0.54318066       1.62995184      -1.06507933
14
Frame=14 idx=011222 GeodesicLength=0.8191856743606382 rxn_smarts="[N:1](=[C:2]1\[O:3][C@@:4]2([H:9])[C:5]([H:10])([H:11])[C:6]([H:12])([H:13])[C@@:7]12[H:14])\[H:8]>>[N:1](=[C:2]1\[O:3][C@:4]([C:5]([H:10])([H:11])[H:13])([H:9])[C@:7]1([C:6][H:12])[H:14])\[H:8]"
N        2.60575279       0.03951772       0.49190431
C        1.48565985      -0.11916627      -0.03161049
O        0.81195088      -1.25786573      -0.39902158
C       -0.36043618      -0.50568291      -0.81994336
C       -1.51564822      -0.52588619       0.16838098
C       -0.60863370       1.28190446       0.67185399
C        0.33714221       0.79484954      -0.37376806
H        3.12779444      -0.83222478       0.53952297
H       -0.58221718      -0.67420278      -1.87183912
H       -1.32189271      -1.13105392       1.05505276
H       -2.39763550      -0.96654279      -0.29678452
H       -0.07624617       1.47013376       1.61080874
H       -2.04362424       0.79194502       0.30316173
H        0.53803375       1.63427488      -1.04771834
14
Frame=15 idx=011222 GeodesicLength=0.8776396243952032 rxn_smarts="[N:1](=[C:2]1\[O:3][C@@:4]2([H:9])[C:5]([H:10])([H:11])[C:6]([H:12])([H:13])[C@@:7]12[H:14])\[H:8]>>[N:1](=[C:2]1\[O:3][C@:4]([C:5]([H:10])([H:11])[H:13])([H:9])[C@:7]1([C:6][H:12])[H:14])\[H:8]"
N        2.60511373       0.03329933       0.49510889
C        1.48636106      -0.12451805      -0.03147930
O        0.81448384      -1.26096688      -0.40682236
C       -0.36069667      -0.50882795      -0.82200959
C       -1.51399035      -0.52729962       0.16850107
C       -0.61038285       1.26790804       0.68119963
C        0.33564650       0.78966045      -0.36580525
H        3.13124682      -0.83645052       0.53283519
H       -0.58290051      -0.66948784      -1.87498778
H       -1.31772612      -1.12871197       1.05751438
H       -2.39033962      -0.98095702      -0.29462071
H       -0.06832116       1.50052832       1.60431313
H       -2.06103364       0.80738626       0.28612925
H        0.53253896       1.63843745      -1.02987656
14
Frame=16 idx=011222 GeodesicLength=0.9361111732483602 rxn_smarts="[N:1](=[C:2]1\[O:3][C@@:4]2([H:9])[C:5]([H:10])([H:11])[C:6]([H:12])([H:13])[C@@:7]12[H:14])\[H:8]>>[N:1](=[C:2]1\[O:3][C@:4]([C:5]([H:10])([H:11])[H:13])([H:9])[C@:7]1([C:6][H:12])[H:14])\[H:8]"
N        2.60470722       0.02692552       0.49823590
C        1.48707191      -0.12999163      -0.03098455
O        0.81708853      -1.26411239      -0.41453223
C       -0.36089985      -0.51205357      -0.82393792
C       -1.51236941      -0.52902442       0.16866780
C       -0.61193784       1.25339536       0.69120757
C        0.33417390       0.78429905      -0.35749326
H        3.13510743      -0.84061538       0.52547245
H       -0.58345976      -0.66466564      -1.87800855
H       -1.31383655      -1.12725642       1.05969604
H       -2.38327010      -0.99469722      -0.29265820
H       -0.06166503       1.53223753       1.59630689
H       -2.07770024       0.82317969       0.26953519
H        0.52698978       1.64237952      -1.01150712
