17
Frame=0 idx=009556 GeodesicLength=0.0 rxn_smarts="[C:1]1([H:8])([H:9])[C:2]([H:10])([H:11])[C:3]12[C:4]([H:12])([H:13])[C@@:5]1([H:14])[C:6]([H:15])([H:16])[C@@:7]21[H:17]>>[C:1]1([H:8])([H:9])[C:2]([H:10])([H:11])[C:3]12[C:4]([H:12])([H:13])[C:5]([H:14])([H:15])[C:6]([H:16])=[C:7]2[H:17]"
C       -1.94799404      -0.37925054      -0.01766368
C       -1.54390419       0.92591635      -0.65231261
C       -0.50959493      -0.01003159      -0.14325459
C        0.56156522      -0.76730781      -0.92799777
C        1.55583241      -0.53699144       0.22650416
C        1.51028469       1.22620191       0.74710368
C        0.46062186       0.23210034       1.00000694
H       -2.33232056      -1.16230009      -0.66022467
H       -2.39540774      -0.34888236       0.96869919
H       -1.65552270       1.02357442      -1.72504458
H       -1.70545794       1.84129465      -0.09766541
H        0.33696664      -1.82581381      -1.06172477
H        0.86050553      -0.33519928      -1.88344111
H        2.12221641      -1.31278867       0.72507996
H        2.26853014       0.34063014      -0.12036300
H        2.19398535       1.17143254       1.61094771
H        0.21969382      -0.08258478       2.01135054
17
Frame=1 idx=009556 GeodesicLength=0.09161062297119822 rxn_smarts="[C:1]1([H:8])([H:9])[C:2]([H:10])([H:11])[C:3]12[C:4]([H:12])([H:13])[C@@:5]1([H:14])[C:6]([H:15])([H:16])[C@@:7]21[H:17]>>[C:1]1([H:8])([H:9])[C:2]([H:10])([H:11])[C:3]12[C:4]([H:12])([H:13])[C:5]([H:14])([H:15])[C:6]([H:16])=[C:7]2[H:17]"
C       -1.94757280      -0.38145341      -0.01876164
C       -1.54642413       0.92495631      -0.65234589
C       -0.50966016      -0.00723939      -0.14019042
C        0.56182563      -0.76452529      -0.92453661
C        1.56191443      -0.53420316       0.22421525
C        1.51952790       1.20147930       0.74896473
C        0.45152856       0.23633930       1.00807880
H       -2.32715943      -1.16597019      -0.66233939
H       -2.39903308      -0.35236443       0.96575221
H       -1.65487441       1.02172751      -1.72551156
H       -1.71324567       1.83971845      -0.09816168
H        0.33527829      -1.82241202      -1.05969592
H        0.85661178      -0.33118765      -1.88083805
H        2.12522076      -1.31420944       0.72025844
H        2.28473561       0.34787517      -0.14008179
H        2.20145923       1.16277532       1.61342488
H        0.19986748      -0.06130639       2.02176864
17
Frame=2 idx=009556 GeodesicLength=0.18321257120519086 rxn_smarts="[C:1]1([H:8])([H:9])[C:2]([H:10])([H:11])[C:3]12[C:4]([H:12])([H:13])[C@@:5]1([H:14])[C:6]([H:15])([H:16])[C@@:7]21[H:17]>>[C:1]1([H:8])([H:9])[C:2]([H:10])([H:11])[C:3]12[C:4]([H:12])([H:13])[C:5]([H:14])([H:15])[C:6]([H:16])=[C:7]2[H:17]"
C       -1.94700951      -0.38374629      -0.01972508
C       -1.54889316       0.92387697      -0.65234155
C       -0.50962569      -0.00450250      -0.13708943
C        0.56214154      -0.76167099      -0.92122808
C        1.56811560      -0.53198193       0.22173305
C        1.52860828       1.17628206       0.75110356
C        0.44253796       0.24070939       1.01607713
H       -2.32188367      -1.16974420      -0.66424590
H       -2.40245320      -0.35591879       0.96294610
H       -1.65428181       1.01972615      -1.72592249
H       -1.72100087       1.83802340      -0.09867885
H        0.33353133      -1.81886511      -1.05817107
H        0.85289447      -0.32687868      -1.87823070
H        2.12810760      -1.31627281       0.71530017
H        2.30057781       0.35558044      -0.15934062
H        2.20887652       1.15388682       1.61581700
H        0.17975680      -0.03850392       2.03199675
17
Frame=3 idx=009556 GeodesicLength=0.2748200961747969 rxn_smarts="[C:1]1([H:8])([H:9])[C:2]([H:10])([H:11])[C:3]12[C:4]([H:12])([H:13])[C@@:5]1([H:14])[C:6]([H:15])([H:16])[C@@:7]21[H:17]>>[C:1]1([H:8])([H:9])[C:2]([H:10])([H:11])[C:3]12[C:4]([H:12])([H:13])[C:5]([H:14])([H:15])[C:6]([H:16])=[C:7]2[H:17]"
C       -1.94630514      -0.38612722      -0.02054452
C       -1.55130168       0.92267021      -0.65230056
C       -0.50948886      -0.00183577      -0.13395182
C        0.56251089      -0.75876047      -0.91807918
C        1.57443856      -0.53036611       0.21905199
C        1.53749324       1.15058722       0.75355992
C        0.43365582       0.24518748       1.02400270
H       -2.31650776      -1.17361829      -0.66592893
H       -2.40566170      -0.35953048       0.96029340
H       -1.65374068       1.01755741      -1.72627838
H       -1.72869367       1.83620756      -0.09922405
H        0.33171688      -1.81518616      -1.05716723
H        0.84936125      -0.32227461      -1.87562056
H        2.13090143      -1.31900599       0.71018277
H        2.31600710       0.36386668      -0.17809877
H        2.21622723       1.14473123       1.61813417
H        0.15938709      -0.01410268       2.04196905
17
Frame=4 idx=009556 GeodesicLength=0.36651323696128135 rxn_smarts="[C:1]1([H:8])([H:9])[C:2]([H:10])([H:11])[C:3]12[C:4]([H:12])([H:13])[C@@:5]1([H:14])[C:6]([H:15])([H:16])[C@@:7]21[H:17]>>[C:1]1([H:8])([H:9])[C:2]([H:10])([H:11])[C:3]12[C:4]([H:12])([H:13])[C:5]([H:14])([H:15])[C:6]([H:16])=[C:7]2[H:17]"
C       -1.94546799      -0.38859421      -0.02121045
C       -1.55363890       0.92133418      -0.65222203
C       -0.50924951       0.00074035      -0.13077490
C        0.56293590      -0.75582311      -0.91509677
C        1.58088169      -0.52941020       0.21617574
C        1.54614179       1.12436247       0.75638133
C        0.42488322       0.24974016       1.03186292
H       -2.31105424      -1.17758586      -0.66737947
H       -2.40866502      -0.36318721       0.95781038
H       -1.65323874       1.01522178      -1.72658258
H       -1.73629313       1.83427734      -0.09979773
H        0.32983670      -1.81140946      -1.05670160
H        0.84602695      -0.31739019      -1.87301437
H        2.13363506      -1.32245128       0.70488422
H        2.33095993       0.37291324      -0.19633273
H        2.22349709       1.13526436       1.62039174
H        0.13880919       0.01199764       2.05160631
17
Frame=5 idx=009556 GeodesicLength=0.45842850515846073 rxn_smarts="[C:1]1([H:8])([H:9])[C:2]([H:10])([H:11])[C:3]12[C:4]([H:12])([H:13])[C@@:5]1([H:14])[C:6]([H:15])([H:16])[C@@:7]21[H:17]>>[C:1]1([H:8])([H:9])[C:2]([H:10])([H:11])[C:3]12[C:4]([H:12])([H:13])[C:5]([H:14])([H:15])[C:6]([H:16])=[C:7]2[H:17]"
C       -1.94452970      -0.39115016      -0.02172146
C       -1.55590943       0.91986875      -0.65211590
C       -0.50891366       0.00319794      -0.12755897
C        0.56343047      -0.75288609      -0.91228352
C        1.58745980      -0.52917814       0.21309991
C        1.55451549       1.09754047       0.75960673
C        0.41622207       0.25431998       1.03966787
H       -2.30557361      -1.18163705      -0.66860296
H       -2.41150176      -0.36689063       0.95550961
H       -1.65277815       1.01273344      -1.72685699
H       -1.74378670       1.83223602      -0.10040888
H        0.32791458      -1.80755195      -1.05678553
H        0.84291787      -0.31224012      -1.87040661
H        2.13637229      -1.32665883       0.69936219
H        2.34536931       0.38292318      -0.21400714
H        2.23069248       1.12540552       1.62259364
H        0.11809864       0.03996768       2.06090802
17
Frame=6 idx=009556 GeodesicLength=0.5498423682845393 rxn_smarts="[C:1]1([H:8])([H:9])[C:2]([H:10])([H:11])[C:3]12[C:4]([H:12])([H:13])[C@@:5]1([H:14])[C:6]([H:15])([H:16])[C@@:7]21[H:17]>>[C:1]1([H:8])([H:9])[C:2]([H:10])([H:11])[C:3]12[C:4]([H:12])([H:13])[C:5]([H:14])([H:15])[C:6]([H:16])=[C:7]2[H:17]"
C       -1.94338114      -0.39379033      -0.02207658
C       -1.55805467       0.91823962      -0.65196012
C       -0.50844694       0.00557365      -0.12430958
C        0.56392780      -0.74989098      -0.90960758
C        1.59420076      -0.52948349       0.20970770
C        1.56265512       1.07019954       0.76320266
C        0.40766642       0.25900267       1.04740928
H       -2.29994061      -1.18579575      -0.66957495
H       -2.41401486      -0.37060233       0.95336171
H       -1.65231479       1.00999992      -1.72703801
H       -1.75109990       1.83005455      -0.10104891
H        0.32581527      -1.80351290      -1.05732092
H        0.83991567      -0.30681683      -1.86774593
H        2.13900779      -1.33151091       0.69355420
H        2.35922274       0.39354621      -0.23095855
H        2.23776326       1.11531375       1.62470520
H        0.09707807       0.06947361       2.06970036
17
Frame=7 idx=009556 GeodesicLength=0.6412274300657005 rxn_smarts="[C:1]1([H:8])([H:9])[C:2]([H:10])([H:11])[C:3]12[C:4]([H:12])([H:13])[C@@:5]1([H:14])[C:6]([H:15])([H:16])[C@@:7]21[H:17]>>[C:1]1([H:8])([H:9])[C:2]([H:10])([H:11])[C:3]12[C:4]([H:12])([H:13])[C:5]([H:14])([H:15])[C:6]([H:16])=[C:7]2[H:17]"
C       -1.94213222      -0.39651038      -0.02224909
C       -1.56012003       0.91648821      -0.65178739
C       -0.50787554       0.00783438      -0.12101519
C        0.56450891      -0.74690669      -0.90709038
C        1.60111961      -0.53048820       0.20607212
C        1.57048784       1.04223876       0.76721834
C        0.39920831       0.26371840       1.05512500
H       -2.29428496      -1.19005192      -0.67028208
H       -2.41636042      -0.37432412       0.95144230
H       -1.65187271       1.00709631      -1.72721384
H       -1.75828127       1.82779595      -0.10174911
H        0.32369235      -1.79939435      -1.05837374
H        0.83714860      -0.30114100      -1.86506610
H        2.14164632      -1.33714916       0.68745177
H        2.37241163       0.40518496      -0.24724178
H        2.24471574       1.10484411       1.62676729
H        0.07598782       0.10076477       2.07799189
17
Frame=8 idx=009556 GeodesicLength=0.7323071566141537 rxn_smarts="[C:1]1([H:8])([H:9])[C:2]([H:10])([H:11])[C:3]12[C:4]([H:12])([H:13])[C@@:5]1([H:14])[C:6]([H:15])([H:16])[C@@:7]21[H:17]>>[C:1]1([H:8])([H:9])[C:2]([H:10])([H:11])[C:3]12[C:4]([H:12])([H:13])[C:5]([H:14])([H:15])[C:6]([H:16])=[C:7]2[H:17]"
C       -1.94074035      -0.39922213      -0.02220654
C       -1.56209138       0.91461461      -0.65160010
C       -0.50718386       0.01003183      -0.11766708
C        0.56515123      -0.74393873      -0.90467932
C        1.60814085      -0.53209103       0.20226736
C        1.57798892       1.01380737       0.77162919
C        0.39088072       0.26858442       1.06276681
H       -2.28857688      -1.19431800      -0.67062544
H       -2.41845321      -0.37791420       0.94974637
H       -1.65146707       1.00396715      -1.72734507
H       -1.76529908       1.82545774      -0.10257647
H        0.32150630      -1.79521437      -1.05982796
H        0.83460931      -0.29528993      -1.86236293
H        2.14406104      -1.34344425       0.68122944
H        2.38503139       0.41783239      -0.26289655
H        2.25143416       1.09419294       1.62877427
H        0.05500792       0.13294419       2.08537403
17
Frame=9 idx=009556 GeodesicLength=0.8235099295050149 rxn_smarts="[C:1]1([H:8])([H:9])[C:2]([H:10])([H:11])[C:3]12[C:4]([H:12])([H:13])[C@@:5]1([H:14])[C:6]([H:15])([H:16])[C@@:7]21[H:17]>>[C:1]1([H:8])([H:9])[C:2]([H:10])([H:11])[C:3]12[C:4]([H:12])([H:13])[C:5]([H:14])([H:15])[C:6]([H:16])=[C:7]2[H:17]"
C       -1.93919756      -0.40210616      -0.02199903
C       -1.56396579       0.91254260      -0.65136168
C       -0.50637198       0.01205993      -0.11428771
C        0.56583791      -0.74095685      -0.90247325
C        1.61535802      -0.53451115       0.19813714
C        1.58522209       0.98447638       0.77658249
C        0.38265065       0.27338382       1.07039260
H       -2.28278928      -1.19877263      -0.67074377
H       -2.42029281      -0.38164065       0.94826463
H       -1.65108872       1.00060576      -1.72742353
H       -1.77217016       1.82294037      -0.10338519
H        0.31919955      -1.79087280      -1.06195475
H        0.83226914      -0.28906108      -1.85960771
H        2.14651974      -1.35071316       0.67452988
H        2.39682256       0.43172327      -0.27757953
H        2.25811838       1.08289740       1.63075536
H        0.03387827       0.16800496       2.09215404
17
Frame=10 idx=009556 GeodesicLength=0.9147021242114077 rxn_smarts="[C:1]1([H:8])([H:9])[C:2]([H:10])([H:11])[C:3]12[C:4]([H:12])([H:13])[C@@:5]1([H:14])[C:6]([H:15])([H:16])[C@@:7]21[H:17]>>[C:1]1([H:8])([H:9])[C:2]([H:10])([H:11])[C:3]12[C:4]([H:12])([H:13])[C:5]([H:14])([H:15])[C:6]([H:16])=[C:7]2[H:17]"
C       -1.93751416      -0.40509762      -0.02156796
C       -1.56575162       0.91031268      -0.65109362
C       -0.50543658       0.01396217      -0.11086424
C        0.56660095      -0.73798593      -0.90045274
C        1.62274328      -0.53770376       0.19372946
C        1.59215234       0.95434670       0.78204510
C        0.37452098       0.27821000       1.07799912
H       -2.27693131      -1.20338847      -0.67052778
H       -2.42189123      -0.38538460       0.94706673
H       -1.65074685       0.99700462      -1.72747749
H       -1.77890208       1.82032387      -0.10424602
H        0.31681656      -1.78642986      -1.06468406
H        0.83019258      -0.28251470      -1.85683072
H        2.14887678      -1.35892276       0.66746148
H        2.40782306       0.44692219      -0.29130562
H        2.26466423       1.07110787       1.63270824
H        0.01278307       0.20523760       2.09804013
17
Frame=11 idx=009556 GeodesicLength=1.005730258577743 rxn_smarts="[C:1]1([H:8])([H:9])[C:2]([H:10])([H:11])[C:3]12[C:4]([H:12])([H:13])[C@@:5]1([H:14])[C:6]([H:15])([H:16])[C@@:7]21[H:17]>>[C:1]1([H:8])([H:9])[C:2]([H:10])([H:11])[C:3]12[C:4]([H:12])([H:13])[C:5]([H:14])([H:15])[C:6]([H:16])=[C:7]2[H:17]"
C       -1.93567078      -0.40810105      -0.02090013
C       -1.56744028       0.90788724      -0.65081758
C       -0.50436906       0.01576926      -0.10739986
C        0.56740979      -0.73501665      -0.89854876
C        1.63024149      -0.54158979       0.18912559
C        1.59876497       0.92344698       0.78801632
C        0.36653404       0.28315095       1.08551528
H       -2.27101582      -1.20804416      -0.66988415
H       -2.42317921      -0.38897951       0.94610527
H       -1.65047708       0.99306310      -1.72747589
H       -1.78544357       1.81754810      -0.10526633
H        0.31432311      -1.78185180      -1.06790821
H        0.82834602      -0.27570386      -1.85396525
H        2.15100564      -1.36793952       0.66013699
H        2.41798792       0.46353738      -0.30402583
H        2.27101814       1.05890944       1.63461532
H       -0.00803531       0.24391388       2.10267720
17
Frame=12 idx=009556 GeodesicLength=1.0967929851751375 rxn_smarts="[C:1]1([H:8])([H:9])[C:2]([H:10])([H:11])[C:3]12[C:4]([H:12])([H:13])[C@@:5]1([H:14])[C:6]([H:15])([H:16])[C@@:7]21[H:17]>>[C:1]1([H:8])([H:9])[C:2]([H:10])([H:11])[C:3]12[C:4]([H:12])([H:13])[C:5]([H:14])([H:15])[C:6]([H:16])=[C:7]2[H:17]"
C       -1.93367363      -0.41125030      -0.01998615
C       -1.56903759       0.90525870      -0.65051554
C       -0.50316729       0.01742912      -0.10389520
C        0.56829528      -0.73204160      -0.89685107
C        1.63791324      -0.54631997       0.18420320
C        1.60506184       0.89152215       0.79457221
C        0.35864750       0.28809628       1.09302596
H       -2.26502245      -1.21292039      -0.66886920
H       -2.42418856      -0.39261779       0.94546908
H       -1.65026432       0.98881207      -1.72745808
H       -1.79183674       1.81463402      -0.10634823
H        0.31173796      -1.77711306      -1.07183192
H        0.82678470      -0.26849176      -1.85103542
H        2.15298164      -1.37804162       0.65231101
H        2.42714894       0.48170011      -0.31543544
H        2.27722537       1.04607512       1.63650132
H       -0.02860590       0.28526893       2.10614347
17
Frame=13 idx=009556 GeodesicLength=1.1878984800539243 rxn_smarts="[C:1]1([H:8])([H:9])[C:2]([H:10])([H:11])[C:3]12[C:4]([H:12])([H:13])[C@@:5]1([H:14])[C:6]([H:15])([H:16])[C@@:7]21[H:17]>>[C:1]1([H:8])([H:9])[C:2]([H:10])([H:11])[C:3]12[C:4]([H:12])([H:13])[C:5]([H:14])([H:15])[C:6]([H:16])=[C:7]2[H:17]"
C       -1.93149756      -0.41453495      -0.01879025
C       -1.57057611       0.90239617      -0.65018824
C       -0.50182425       0.01896082      -0.10035585
C        0.56925767      -0.72903085      -0.89536266
C        1.64574355      -0.55191088       0.17898459
C        1.61105396       0.85848296       0.80174603
C        0.35087991       0.29308943       1.10050122
H       -2.25891900      -1.21801429      -0.66740346
H       -2.42485357      -0.39627139       0.94518552
H       -1.65017776       0.98418439      -1.72740559
H       -1.79813002       1.81154195      -0.10752329
H        0.30904295      -1.77215933      -1.07649977
H        0.82553238      -0.26081606      -1.84802750
H        2.15471036      -1.38927775       0.64400458
H        2.43529985       0.50147370      -0.32534720
H        2.28326407       1.03255616       1.63837610
H       -0.04880641       0.32932994       2.10810577
17
Frame=14 idx=009556 GeodesicLength=1.2790389444606929 rxn_smarts="[C:1]1([H:8])([H:9])[C:2]([H:10])([H:11])[C:3]12[C:4]([H:12])([H:13])[C@@:5]1([H:14])[C:6]([H:15])([H:16])[C@@:7]21[H:17]>>[C:1]1([H:8])([H:9])[C:2]([H:10])([H:11])[C:3]12[C:4]([H:12])([H:13])[C:5]([H:14])([H:15])[C:6]([H:16])=[C:7]2[H:17]"
C       -1.92914125      -0.41797195      -0.01726553
C       -1.57208040       0.89929874      -0.64985024
C       -0.50033328       0.02038123      -0.09678428
C        0.57032924      -0.72596933      -0.89410994
C        1.65373507      -0.55839796       0.17345359
C        1.61674036       0.82422931       0.80956155
C        0.34322820       0.29817547       1.10794677
H       -2.25268742      -1.22338518      -0.66541592
H       -2.42516604      -0.39994563       0.94533694
H       -1.65024935       0.97914925      -1.72735226
H       -1.80437227       1.80829618      -0.10881953
H        0.30627328      -1.76697045      -1.08198675
H        0.82465502      -0.25260829      -1.84494554
H        2.15611133      -1.40175451       0.63515932
H        2.44234641       0.52292252      -0.33354256
H        2.28910198       1.01831389       1.64024350
H       -0.06849087       0.37623671       2.10837085
17
Frame=15 idx=009556 GeodesicLength=1.370128285487824 rxn_smarts="[C:1]1([H:8])([H:9])[C:2]([H:10])([H:11])[C:3]12[C:4]([H:12])([H:13])[C@@:5]1([H:14])[C:6]([H:15])([H:16])[C@@:7]21[H:17]>>[C:1]1([H:8])([H:9])[C:2]([H:10])([H:11])[C:3]12[C:4]([H:12])([H:13])[C:5]([H:14])([H:15])[C:6]([H:16])=[C:7]2[H:17]"
C       -1.92654278      -0.42158630      -0.01541634
C       -1.57355193       0.89586105      -0.64947824
C       -0.49867954       0.02169916      -0.09318937
C        0.57145605      -0.72276720      -0.89307497
C        1.66181985      -0.56578888       0.16763146
C        1.62210203       0.78859600       0.81808827
C        0.33572987       0.30339340       1.11532462
H       -2.24627965      -1.22904271      -0.66287897
H       -2.42497641      -0.40367484       0.94588770
H       -1.65054699       0.97356689      -1.72722455
H       -1.81054174       1.80473524      -0.11022918
H        0.30333379      -1.76136231      -1.08837382
H        0.82410879      -0.24374053      -1.84166252
H        2.15700764      -1.41549153       0.62573207
H        2.44820001       0.54603335      -0.33964778
H        2.29471453       1.00324809       1.64210535
H       -0.08735353       0.42632112       2.10640627
17
Frame=16 idx=009556 GeodesicLength=1.4612472054414327 rxn_smarts="[C:1]1([H:8])([H:9])[C:2]([H:10])([H:11])[C:3]12[C:4]([H:12])([H:13])[C@@:5]1([H:14])[C:6]([H:15])([H:16])[C@@:7]21[H:17]>>[C:1]1([H:8])([H:9])[C:2]([H:10])([H:11])[C:3]12[C:4]([H:12])([H:13])[C:5]([H:14])([H:15])[C:6]([H:16])=[C:7]2[H:17]"
C       -1.92372958      -0.42536832      -0.01315874
C       -1.57504897       0.89213028      -0.64911959
C       -0.49686937       0.02294521      -0.08958262
C        0.57270663      -0.71943719      -0.89230134
C        1.67003280      -0.57412898       0.16149502
C        1.62710763       0.75149454       0.82732777
C        0.32836085       0.30884329       1.12262983
H       -2.23968770      -1.23505302      -0.65966389
H       -2.42432596      -0.40739996       0.94698580
H       -1.65112129       0.96743583      -1.72711554
H       -1.81674270       1.80097651      -0.11183350
H        0.30030536      -1.75537221      -1.09571713
H        0.82401870      -0.23417156      -1.83824178
H        2.15738738      -1.43061698       0.61567142
H        2.45278403       0.57090138      -0.34340078
H        2.30001976       0.98738177       1.64393281
H       -0.10519758       0.47943940       2.10209224
