16
Frame=0 idx=006153 GeodesicLength=0.0 rxn_smarts="[O:1]([C:2]([C:3]1([H:10])[C:4]([H:11])([H:12])[C:5]([H:13])([H:14])[C:6]1([H:15])[H:16])([H:8])[H:9])[H:7]>>[C:5](=[C:6]([H:15])[H:16])([H:13])[H:14].[O:1](/[C:2](=[C:3](/[C:4]([H:8])([H:11])[H:12])[H:10])[H:9])[H:7]"
O        2.70871500       0.29636349       0.09860949
C        1.52033626      -0.25963029       0.45173164
C        0.34917034      -0.03361249      -0.38684332
C       -0.49322467      -1.20551372       0.05621923
C       -1.84970130       0.47600836      -0.38401414
C       -0.60812648       1.23286694      -0.24659545
H        3.29402711       0.34840380       0.85662266
H        0.68147764      -1.73184349       0.34407461
H        1.33735999      -0.30107149       1.52638933
H        0.59491485      -0.15099317      -1.44271129
H       -0.92772872      -1.16664689       1.04885507
H       -0.91429201      -1.89754176      -0.66114638
H       -2.21200196       0.24909868      -1.37958461
H       -2.59689762       0.47626786       0.39766969
H       -0.49241190       1.69354322       0.73493223
H       -0.39161660       1.97430100      -1.01420879
16
Frame=1 idx=006153 GeodesicLength=0.10483463191370677 rxn_smarts="[O:1]([C:2]([C:3]1([H:10])[C:4]([H:11])([H:12])[C:5]([H:13])([H:14])[C:6]1([H:15])[H:16])([H:8])[H:9])[H:7]>>[C:5](=[C:6]([H:15])[H:16])([H:13])[H:14].[O:1](/[C:2](=[C:3](/[C:4]([H:8])([H:11])[H:12])[H:10])[H:9])[H:7]"
O        2.70855681       0.29225125       0.08538995
C        1.52858871      -0.28038904       0.44844394
C        0.35712200      -0.05474697      -0.38593639
C       -0.49839710      -1.21835264       0.05676358
C       -1.85535713       0.48986073      -0.38706363
C       -0.61104782       1.23720880      -0.24128973
H        3.27290503       0.41448472       0.85111471
H        0.69108953      -1.74725235       0.36170159
H        1.35311003      -0.31371511       1.52497680
H        0.59776613      -0.16813561      -1.44346815
H       -0.93581281      -1.18450892       1.04857549
H       -0.91260851      -1.91552436      -0.66031192
H       -2.22005498       0.28359668      -1.38661729
H       -2.61030912       0.50094115       0.38764237
H       -0.49246366       1.68791987       0.74452043
H       -0.37308710       1.97636180      -1.00444174
16
Frame=2 idx=006153 GeodesicLength=0.20971558813518631 rxn_smarts="[O:1]([C:2]([C:3]1([H:10])[C:4]([H:11])([H:12])[C:5]([H:13])([H:14])[C:6]1([H:15])[H:16])([H:8])[H:9])[H:7]>>[C:5](=[C:6]([H:15])[H:16])([H:13])[H:14].[O:1](/[C:2](=[C:3](/[C:4]([H:8])([H:11])[H:12])[H:10])[H:9])[H:7]"
O        2.70827047       0.28851886       0.07303455
C        1.53697498      -0.30086882       0.44556807
C        0.36527215      -0.07618837      -0.38483557
C       -0.50331064      -1.23130302       0.05744027
C       -1.86082518       0.50380878      -0.39050911
C       -0.61416237       1.24189338      -0.23557793
H        3.24878200       0.47902610       0.84194055
H        0.70129411      -1.76243286       0.38020317
H        1.36897372      -0.32584274       1.52386486
H        0.60092691      -0.18521748      -1.44398067
H       -0.94377697      -1.20259520       1.04832863
H       -0.91004076      -1.93416853      -0.65906195
H       -2.22717303       0.31901941      -1.39403425
H       -2.62376082       0.52593249       0.37670182
H       -0.49316246       1.68199927       0.75471420
H       -0.35428213       1.97841876      -0.99379665
16
Frame=3 idx=006153 GeodesicLength=0.3146623566693199 rxn_smarts="[O:1]([C:2]([C:3]1([H:10])[C:4]([H:11])([H:12])[C:5]([H:13])([H:14])[C:6]1([H:15])[H:16])([H:8])[H:9])[H:7]>>[C:5](=[C:6]([H:15])[H:16])([H:13])[H:14].[O:1](/[C:2](=[C:3](/[C:4]([H:8])([H:11])[H:12])[H:10])[H:9])[H:7]"
O        2.70783888       0.28525148       0.06146008
C        1.54549957      -0.32100658       0.44306954
C        0.37361141      -0.09791927      -0.38357247
C       -0.50796023      -1.24435908       0.05822803
C       -1.86614418       0.51785498      -0.39435863
C       -0.61752761       1.24694821      -0.22946417
H        3.22188145       0.54165403       0.82930534
H        0.71212276      -1.77732152       0.39957197
H        1.38495261      -0.33735176       1.52301852
H        0.60436972      -0.20220698      -1.44428622
H       -0.95158509      -1.22091488       1.04810828
H       -0.90656482      -1.95349142      -0.65737782
H       -2.23338271       0.35537205      -1.40180329
H       -2.63725867       0.55122370       0.36484766
H       -0.49457664       1.67578524       0.76550414
H       -0.33527646       1.98048182      -0.98225094
16
Frame=4 idx=006153 GeodesicLength=0.4196987361036644 rxn_smarts="[O:1]([C:2]([C:3]1([H:10])[C:4]([H:11])([H:12])[C:5]([H:13])([H:14])[C:6]1([H:15])[H:16])([H:8])[H:9])[H:7]>>[C:5](=[C:6]([H:15])[H:16])([H:13])[H:14].[O:1](/[C:2](=[C:3](/[C:4]([H:8])([H:11])[H:12])[H:10])[H:9])[H:7]"
O        2.70724606       0.28255951       0.05059638
C        1.55417169      -0.34074117       0.44090166
C        0.38213185      -0.11992557      -0.38219236
C       -0.51234620      -1.25751399       0.05909821
C       -1.87136330       0.53200780      -0.39860933
C       -0.62120060       1.25240219      -0.22296917
H        3.19247112       0.60199316       0.81349662
H        0.72361045      -1.79185525       0.41977698
H        1.40104122      -0.34815356       1.52239113
H        0.60806731      -0.21908091      -1.44443816
H       -0.95919738      -1.23947348       1.04790850
H       -0.90217397      -1.97350638      -0.65524264
H       -2.23874034       0.39263807      -1.40987156
H       -2.65080549       0.57680145       0.35211175
H       -0.49675676       1.66929748       0.77685779
H       -0.31615567       1.98255065      -0.96981581
16
Frame=5 idx=006153 GeodesicLength=0.5248283690961115 rxn_smarts="[O:1]([C:2]([C:3]1([H:10])[C:4]([H:11])([H:12])[C:5]([H:13])([H:14])[C:6]1([H:15])[H:16])([H:8])[H:9])[H:7]>>[C:5](=[C:6]([H:15])[H:16])([H:13])[H:14].[O:1](/[C:2](=[C:3](/[C:4]([H:8])([H:11])[H:12])[H:10])[H:9])[H:7]"
O        2.70645453       0.28046488       0.04033717
C        1.56298827      -0.36004257       0.43902385
C        0.39082312      -0.14221021      -0.38072700
C       -0.51646973      -1.27076553       0.06002949
C       -1.87651025       0.54628834      -0.40327239
C       -0.62523006       1.25827862      -0.21609589
H        3.16076912       0.65983583       0.79475037
H        0.73577833      -1.80598485       0.44080646
H        1.41723381      -0.35818449       1.52193090
H        0.61198090      -0.23583005      -1.44446607
H       -0.96657470      -1.25827685       1.04771825
H       -0.89685385      -1.99422381      -0.65262422
H       -2.24326284       0.43083895      -1.41819802
H       -2.66439174       0.60266111       0.33848929
H       -0.49975794       1.66252536       0.78875786
H       -0.29697696       1.98462529      -0.95646007
16
Frame=6 idx=006153 GeodesicLength=0.6300326100449593 rxn_smarts="[O:1]([C:2]([C:3]1([H:10])[C:4]([H:11])([H:12])[C:5]([H:13])([H:14])[C:6]1([H:15])[H:16])([H:8])[H:9])[H:7]>>[C:5](=[C:6]([H:15])[H:16])([H:13])[H:14].[O:1](/[C:2](=[C:3](/[C:4]([H:8])([H:11])[H:12])[H:10])[H:9])[H:7]"
O        2.70540545       0.27911125       0.03056018
C        1.57193772      -0.37879395       0.43740221
C        0.39966617      -0.16473323      -0.37920843
C       -0.52032960      -1.28409680       0.06100398
C       -1.88165031       0.56068707      -0.40837552
C       -0.62971662       1.26461364      -0.20885834
H        3.12731730       0.71460101       0.77335678
H        0.74866252      -1.81959973       0.46266422
H        1.43350468      -0.36728974       1.52159700
H        0.61606962      -0.25240409      -1.44440500
H       -0.97368625      -1.27732331       1.04753537
H       -0.89056460      -2.01565977      -0.64948417
H       -2.24699611       0.46994414      -1.42675999
H       -2.67805788       0.62874070       0.32396258
H       -0.50370549       1.65547920       0.80117749
H       -0.27785662       1.98672359      -0.94216834
16
Frame=7 idx=006153 GeodesicLength=0.7352926023589584 rxn_smarts="[O:1]([C:2]([C:3]1([H:10])[C:4]([H:11])([H:12])[C:5]([H:13])([H:14])[C:6]1([H:15])[H:16])([H:8])[H:9])[H:7]>>[C:5](=[C:6]([H:15])[H:16])([H:13])[H:14].[O:1](/[C:2](=[C:3](/[C:4]([H:8])([H:11])[H:12])[H:10])[H:9])[H:7]"
O        2.70405189       0.27851583       0.02115441
C        1.58102042      -0.39697708       0.43597770
C        0.40865185      -0.18750619      -0.37767885
C       -0.52393227      -1.29749490       0.06199483
C       -1.88682067       0.57523760      -0.41392351
C       -0.63471146       1.27142554      -0.20127706
H        3.09239893       0.76612346       0.74966858
H        0.76228885      -1.83264186       0.48531282
H        1.44984381      -0.37543283       1.52130912
H        0.62028596      -0.26880798      -1.44428886
H       -0.98048323      -1.29660037       1.04734444
H       -0.88330648      -2.03780279      -0.64577843
H       -2.24998663       0.50994882      -1.43549261
H       -2.69179306       0.65504071       0.30854952
H       -0.50863899       1.64815017       0.81406550
H       -0.25886891       1.98882184      -0.92693759
16
Frame=8 idx=006153 GeodesicLength=0.84063218192488 rxn_smarts="[O:1]([C:2]([C:3]1([H:10])[C:4]([H:11])([H:12])[C:5]([H:13])([H:14])[C:6]1([H:15])[H:16])([H:8])[H:9])[H:7]>>[C:5](=[C:6]([H:15])[H:16])([H:13])[H:14].[O:1](/[C:2](=[C:3](/[C:4]([H:8])([H:11])[H:12])[H:10])[H:9])[H:7]"
O        2.70237631       0.27863659       0.01198935
C        1.59023503      -0.41459809       0.43470687
C        0.41777716      -0.21055861      -0.37618030
C       -0.52731138      -1.31097877       0.06297602
C       -1.89204177       0.58998144      -0.41992957
C       -0.64023568       1.27874333      -0.19335156
H        3.05623171       0.81445518       0.72395652
H        0.77664641      -1.84509447       0.50873016
H        1.46623975      -0.38259430       1.52102384
H        0.62459179      -0.28505905      -1.44417116
H       -0.98695539      -1.31612845       1.04714940
H       -0.87511443      -2.06068084      -0.64147733
H       -2.25225069       0.55086990      -1.44436226
H       -2.70558724       0.68155996       0.29226678
H       -0.51457663       1.64052673       0.82741517
H       -0.24002495       1.99091944      -0.91074193
16
Frame=9 idx=006153 GeodesicLength=0.9460648064168613 rxn_smarts="[O:1]([C:2]([C:3]1([H:10])[C:4]([H:11])([H:12])[C:5]([H:13])([H:14])[C:6]1([H:15])[H:16])([H:8])[H:9])[H:7]>>[C:5](=[C:6]([H:15])[H:16])([H:13])[H:14].[O:1](/[C:2](=[C:3](/[C:4]([H:8])([H:11])[H:12])[H:10])[H:9])[H:7]"
O        2.70038069       0.27929936       0.00294253
C        1.59956814      -0.43169534       0.43358242
C        0.42704698      -0.23393833      -0.37472960
C       -0.53049678      -1.32457001       0.06392204
C       -1.89730200       0.60497567      -0.42642542
C       -0.64629767       1.28658238      -0.18504337
H        3.01887152       0.85985467       0.69627445
H        0.79171093      -1.85695107       0.53292659
H        1.48267482      -0.38876835       1.52072288
H        0.62896324      -0.30117870      -1.44406471
H       -0.99310295      -1.33593357       1.04693768
H       -0.86600629      -2.08431297      -0.63654740
H       -2.25373998       0.59279645      -1.45335097
H       -2.71941490       0.70830127       0.27508072
H       -0.52155492       1.63254190       0.84125316
H       -0.22130083       1.99299663      -0.89348099
16
Frame=10 idx=006153 GeodesicLength=1.0515530673808815 rxn_smarts="[O:1]([C:2]([C:3]1([H:10])[C:4]([H:11])([H:12])[C:5]([H:13])([H:14])[C:6]1([H:15])[H:16])([H:8])[H:9])[H:7]>>[C:5](=[C:6]([H:15])[H:16])([H:13])[H:14].[O:1](/[C:2](=[C:3](/[C:4]([H:8])([H:11])[H:12])[H:10])[H:9])[H:7]"
O        2.69799149       0.28064095      -0.00607630
C        1.60902103      -0.44821889       0.43253367
C        0.43645357      -0.25764720      -0.37337820
C       -0.53350503      -1.33824902       0.06480727
C       -1.90265091       0.62025192      -0.43341523
C       -0.65295862       1.29497650      -0.17639571
H        2.98074433       0.90199537       0.66705859
H        0.80751612      -1.86813199       0.55784013
H        1.49912459      -0.39391405       1.52031629
H        0.63335294      -0.31716662      -1.44401861
H       -0.99887774      -1.35598963       1.04671075
H       -0.85599797      -2.10868311      -0.63092963
H       -2.25452702       0.63564769      -1.46239304
H       -2.73328357       0.73523785       0.25703664
H       -0.52961442       1.62421929       0.85549670
H       -0.20278879       1.99503094      -0.87519331
16
Frame=11 idx=006153 GeodesicLength=1.157097972137065 rxn_smarts="[O:1]([C:2]([C:3]1([H:10])[C:4]([H:11])([H:12])[C:5]([H:13])([H:14])[C:6]1([H:15])[H:16])([H:8])[H:9])[H:7]>>[C:5](=[C:6]([H:15])[H:16])([H:13])[H:14].[O:1](/[C:2](=[C:3](/[C:4]([H:8])([H:11])[H:12])[H:10])[H:9])[H:7]"
O        2.69518813       0.28257100      -0.01516433
C        1.61858966      -0.46420401       0.43152952
C        0.44600483      -0.28173755      -0.37215389
C       -0.53636648      -1.35202750       0.06560813
C       -1.90807790       0.63587305      -0.44092353
C       -0.66022528       1.30394557      -0.16738970
H        2.94191344       0.94105829       0.63644646
H        0.82405396      -1.87862117       0.58345173
H        1.51557180      -0.39804398       1.51975698
H        0.63773166      -0.33305283      -1.44405501
H       -1.00426231      -1.37630111       1.04646612
H       -0.84511985      -2.13379548      -0.62456907
H       -2.25458294       0.67946767      -1.47145848
H       -2.74716763       0.76237144       0.23812508
H       -0.53877465       1.61550679       0.87013912
H       -0.18447645       1.99698984      -0.85580913
16
Frame=12 idx=006153 GeodesicLength=1.2627189702874055 rxn_smarts="[O:1]([C:2]([C:3]1([H:10])[C:4]([H:11])([H:12])[C:5]([H:13])([H:14])[C:6]1([H:15])[H:16])([H:8])[H:9])[H:7]>>[C:5](=[C:6]([H:15])[H:16])([H:13])[H:14].[O:1](/[C:2](=[C:3](/[C:4]([H:8])([H:11])[H:12])[H:10])[H:9])[H:7]"
O        2.69194356       0.28504580      -0.02441108
C        1.62827132      -0.47967580       0.43053570
C        0.45570967      -0.30626065      -0.37109144
C       -0.53911440      -1.36592326       0.06630001
C       -1.91357482       0.65190514      -0.44896977
C       -0.66810540       1.31352355      -0.15801415
H        2.90247810       0.97716757       0.60460852
H        0.84132272      -1.88840747       0.60973099
H        1.53199373      -0.40116592       1.51900229
H        0.64207210      -0.34886561      -1.44421122
H       -1.00923840      -1.39687667       1.04621246
H       -0.83341158      -2.15966114      -0.61741353
H       -2.25388753       0.72426556      -1.48051969
H       -2.76104757       0.78970117       0.21835499
H       -0.54905229       1.60637846       0.88516595
H       -0.16635922       1.99884928      -0.83528002
16
Frame=13 idx=006153 GeodesicLength=1.3684109826994453 rxn_smarts="[O:1]([C:2]([C:3]1([H:10])[C:4]([H:11])([H:12])[C:5]([H:13])([H:14])[C:6]1([H:15])[H:16])([H:8])[H:9])[H:7]>>[C:5](=[C:6]([H:15])[H:16])([H:13])[H:14].[O:1](/[C:2](=[C:3](/[C:4]([H:8])([H:11])[H:12])[H:10])[H:9])[H:7]"
O        2.68826596       0.28788064      -0.03388843
C        1.63805247      -0.49467366       0.42956610
C        0.46558651      -0.33127868      -0.37019101
C       -0.54176955      -1.37994449       0.06685599
C       -1.91910224       0.66842233      -0.45760142
C       -0.67660628       1.32372070      -0.14820227
H        2.86237506       1.01057371       0.57142059
H        0.85931650      -1.89746207       0.63669317
H        1.54836196      -0.40326606       1.51803548
H        0.64636308      -0.36462162      -1.44446594
H       -1.01379375      -1.41772065       1.04592802
H       -0.82088155      -2.18626394      -0.60940335
H       -2.25234615       0.77014656      -1.48956751
H       -2.77489934       0.81721379       0.19765821
H       -0.56051209       1.59672177       0.90060883
H       -0.14841058       2.00055168      -0.81344645
16
Frame=14 idx=006153 GeodesicLength=1.4741786107610795 rxn_smarts="[O:1]([C:2]([C:3]1([H:10])[C:4]([H:11])([H:12])[C:5]([H:13])([H:14])[C:6]1([H:15])[H:16])([H:8])[H:9])[H:7]>>[C:5](=[C:6]([H:15])[H:16])([H:13])[H:14].[O:1](/[C:2](=[C:3](/[C:4]([H:8])([H:11])[H:12])[H:10])[H:9])[H:7]"
O        2.68408011       0.29118273      -0.04366836
C        1.64793872      -0.50919497       0.42855273
C        0.47564456      -0.35683681      -0.36950571
C       -0.54436200      -1.39410002       0.06725450
C       -1.92466269       0.68548733      -0.46681717
C       -0.68574732       1.33458800      -0.13798739
H        2.82181478       1.04119997       0.53725577
H        0.87806623      -1.90576386       0.66425281
H        1.56464955      -0.40437046       1.51678151
H        0.65056728      -0.38035203      -1.44487681
H       -1.01788160      -1.43881858       1.04564190
H       -0.80758885      -2.21359832      -0.60046899
H       -2.24998928       0.81703431      -1.49855081
H       -2.78870673       0.84491180       0.17609030
H       -0.57315089       1.58656669       0.91638392
H       -0.13067188       2.00206423      -0.79033821
16
Frame=15 idx=006153 GeodesicLength=1.5800162208330508 rxn_smarts="[O:1]([C:2]([C:3]1([H:10])[C:4]([H:11])([H:12])[C:5]([H:13])([H:14])[C:6]1([H:15])[H:16])([H:8])[H:9])[H:7]>>[C:5](=[C:6]([H:15])[H:16])([H:13])[H:14].[O:1](/[C:2](=[C:3](/[C:4]([H:8])([H:11])[H:12])[H:10])[H:9])[H:7]"
O        2.67935877       0.29487602      -0.05381849
C        1.65792700      -0.52326743       0.42747774
C        0.48590488      -0.38300449      -0.36905117
C       -0.54691424      -1.40839883       0.06747571
C       -1.93021314       0.70317306      -0.47665362
C       -0.69553581       1.34614789      -0.12732613
H        2.78077005       1.06919778       0.50212428
H        0.89758897      -1.91328578       0.69238743
H        1.58082982      -0.40448105       1.51519560
H        0.65466225      -0.39608304      -1.44544138
H       -1.02147084      -1.46015888       1.04535698
H       -0.79356786      -2.24164249      -0.59053017
H       -2.24674395       0.86499007      -1.50745075
H       -2.80244579       0.87278718       0.15360567
H       -0.58701654       1.57582821       0.93248178
H       -0.11313356       2.00332178      -0.76583348
16
Frame=16 idx=006153 GeodesicLength=1.685942351895957 rxn_smarts="[O:1]([C:2]([C:3]1([H:10])[C:4]([H:11])([H:12])[C:5]([H:13])([H:14])[C:6]1([H:15])[H:16])([H:8])[H:9])[H:7]>>[C:5](=[C:6]([H:15])[H:16])([H:13])[H:14].[O:1](/[C:2](=[C:3](/[C:4]([H:8])([H:11])[H:12])[H:10])[H:9])[H:7]"
O        2.67406564       0.29891669      -0.06440465
C        1.66801736      -0.53691473       0.42631883
C        0.49639174      -0.40985707      -0.36884841
C       -0.54944655      -1.42285846       0.06750221
C       -1.93570617       0.72155786      -0.48714246
C       -0.70598075       1.35843511      -0.11617833
H        2.73921731       1.09468916       0.46606370
H        0.91791620      -1.92001253       0.72106188
H        1.59687411      -0.40360302       1.51323529
H        0.65862423      -0.41184368      -1.44616797
H       -1.02452261      -1.48173173       1.04508994
H       -0.77886516      -2.27037688      -0.57950763
H       -2.24253775       0.91405599      -1.51624986
H       -2.81609408       0.90084120       0.13016474
H       -0.60215686       1.56444064       0.94888353
H       -0.09579666       2.00426145      -0.73982081
