14
Frame=0 idx=011215 GeodesicLength=0.0 rxn_smarts="[N:1]#[C:2][C:3]1([H:8])[C:4]([H:9])([H:10])[C:5]([H:11])=[C:6]([H:12])[C:7]1([H:13])[H:14]>>[N:1]#[C:2][C:3]1([H:8])[C:4]([H:9])([H:10])[C:6](=[C:5]([H:11])[H:12])[C:7]1([H:13])[H:14]"
N       -1.16383052       2.78257195      -1.55057592
C       -0.79124795       1.99944144      -0.79875221
C       -0.31580472       0.98562727       0.12833722
C        0.95849910       0.20776937      -0.28627039
C        0.74552383      -1.76451383       1.31732723
C        0.22092289      -1.11590556       0.12617504
C       -1.11133951      -0.34370415       0.19819865
H       -0.20150036       1.43564449       1.11502792
H        1.16230773       0.25683633      -1.35374298
H        1.86314056       0.46048587       0.26466985
H        1.79321470      -2.02242786       1.06437438
H        0.27657788      -1.89593671      -0.65276826
H       -1.74309354      -0.48929979      -0.67704918
H       -1.69337006      -0.49658881       1.10504870
14
Frame=1 idx=011215 GeodesicLength=0.11575246502410105 rxn_smarts="[N:1]#[C:2][C:3]1([H:8])[C:4]([H:9])([H:10])[C:5]([H:11])=[C:6]([H:12])[C:7]1([H:13])[H:14]>>[N:1]#[C:2][C:3]1([H:8])[C:4]([H:9])([H:10])[C:6](=[C:5]([H:11])[H:12])[C:7]1([H:13])[H:14]"
N       -1.15011266       2.78466507      -1.55367933
C       -0.78531010       2.00108816      -0.79853239
C       -0.31797190       0.98531902       0.13072273
C        0.96102916       0.20882609      -0.27350524
C        0.77142327      -1.74125415       1.29052719
C        0.20002284      -1.12220733       0.12067178
C       -1.12061280      -0.34001429       0.19633409
H       -0.21135553       1.43464971       1.11862118
H        1.17242323       0.25945977      -1.33984170
H        1.86112330       0.47985133       0.27635208
H        1.81008968      -2.01872374       1.02899962
H        0.26543284      -1.95971897      -0.61652391
H       -1.75024327      -0.48071226      -0.68148862
H       -1.70593806      -0.49122841       1.10134252
14
Frame=2 idx=011215 GeodesicLength=0.23145554537730917 rxn_smarts="[N:1]#[C:2][C:3]1([H:8])[C:4]([H:9])([H:10])[C:5]([H:11])=[C:6]([H:12])[C:7]1([H:13])[H:14]>>[N:1]#[C:2][C:3]1([H:8])[C:4]([H:9])([H:10])[C:6](=[C:5]([H:11])[H:12])[C:7]1([H:13])[H:14]"
N       -1.13684669       2.78702955      -1.55569904
C       -0.77944584       2.00282104      -0.79769234
C       -0.31979652       0.98478018       0.13309983
C        0.96400295       0.21029835      -0.26121344
C        0.79623331      -1.71802363       1.26214658
C        0.18032341      -1.12892630       0.11419473
C       -1.12901473      -0.33680720       0.19375288
H       -0.22088422       1.43293679       1.12236557
H        1.18254301       0.26281085      -1.32644122
H        1.85949656       0.49986443       0.28693846
H        1.82629014      -2.01412551       0.99453014
H        0.25170373      -2.02381395      -0.57577640
H       -1.75643569      -0.47230555      -0.68672646
H       -1.71816941      -0.48653907       1.09652072
14
Frame=3 idx=011215 GeodesicLength=0.34710952295678693 rxn_smarts="[N:1]#[C:2][C:3]1([H:8])[C:4]([H:9])([H:10])[C:5]([H:11])=[C:6]([H:12])[C:7]1([H:13])[H:14]>>[N:1]#[C:2][C:3]1([H:8])[C:4]([H:9])([H:10])[C:6](=[C:5]([H:11])[H:12])[C:7]1([H:13])[H:14]"
N       -1.12413024       2.78965135      -1.55670160
C       -0.77370850       2.00464471      -0.79628271
C       -0.32129867       0.98403595       0.13543837
C        0.96745716       0.21227512      -0.24940217
C        0.82001576      -1.69498752       1.23219552
C        0.16188500      -1.13600348       0.10678115
C       -1.13651299      -0.33409695       0.19041407
H       -0.23015420       1.43054203       1.12623152
H        1.19274055       0.26698043      -1.31354767
H        1.85823195       0.52047044       0.29658321
H        1.84184052      -2.00899620       0.96063540
H        0.23524847      -2.08781236      -0.53005955
H       -1.76159152      -0.46414739      -0.69282561
H       -1.73002328      -0.48255615       1.09054006
14
Frame=4 idx=011215 GeodesicLength=0.46270889788837544 rxn_smarts="[N:1]#[C:2][C:3]1([H:8])[C:4]([H:9])([H:10])[C:5]([H:11])=[C:6]([H:12])[C:7]1([H:13])[H:14]>>[N:1]#[C:2][C:3]1([H:8])[C:4]([H:9])([H:10])[C:6](=[C:5]([H:11])[H:12])[C:7]1([H:13])[H:14]"
N       -1.11195330       2.79290223      -1.55633598
C       -0.76814787       2.00657259      -0.79428208
C       -0.32250410       0.98302668       0.13767274
C        0.97133612       0.21470658      -0.23825583
C        0.84271237      -1.67218288       1.20080974
C        0.14465394      -1.14348372       0.09845534
C       -1.14314204      -0.33194525       0.18618686
H       -0.23910428       1.42733162       1.13017153
H        1.20284783       0.27187268      -1.30137293
H        1.85729290       0.54148849       0.30511875
H        1.85670771      -2.00340033       0.92732577
H        0.21652843      -2.15127279      -0.47879503
H       -1.76567236      -0.45631798      -0.69995109
H       -1.74155534      -0.47929793       1.08325222
14
Frame=5 idx=011215 GeodesicLength=0.5781722802987895 rxn_smarts="[N:1]#[C:2][C:3]1([H:8])[C:4]([H:9])([H:10])[C:5]([H:11])=[C:6]([H:12])[C:7]1([H:13])[H:14]>>[N:1]#[C:2][C:3]1([H:8])[C:4]([H:9])([H:10])[C:6](=[C:5]([H:11])[H:12])[C:7]1([H:13])[H:14]"
N       -1.10056052       2.79583921      -1.55563068
C       -0.76277146       2.00856278      -0.79187807
C       -0.32344032       0.98190772       0.13986466
C        0.97577059       0.21786235      -0.22735840
C        0.86463401      -1.65015532       1.16754585
C        0.12871828      -1.15117457       0.08920308
C       -1.14882637      -0.33024572       0.18126762
H       -0.24804465       1.42364798       1.13417737
H        1.21338481       0.27793020      -1.28940793
H        1.85658008       0.56295358       0.31347264
H        1.87092163      -1.99824426       0.89336595
H        0.19483613      -2.21331789      -0.42168725
H       -1.76865801      -0.44878596      -0.70785164
H       -1.75254419      -0.47678010       1.07491680
14
Frame=6 idx=011215 GeodesicLength=0.6935505252147994 rxn_smarts="[N:1]#[C:2][C:3]1([H:8])[C:4]([H:9])([H:10])[C:5]([H:11])=[C:6]([H:12])[C:7]1([H:13])[H:14]>>[N:1]#[C:2][C:3]1([H:8])[C:4]([H:9])([H:10])[C:6](=[C:5]([H:11])[H:12])[C:7]1([H:13])[H:14]"
N       -1.08970604       2.79966377      -1.55334921
C       -0.75763335       2.01064944      -0.78889752
C       -0.32414136       0.98045246       0.14187960
C        0.98055198       0.22140917      -0.21727276
C        0.88550643      -1.62859047       1.13286005
C        0.11384097      -1.15932993       0.07904518
C       -1.15373822      -0.32916002       0.17532647
H       -0.25667958       1.41901186       1.13819911
H        1.22372815       0.28464962      -1.27831838
H        1.85609438       0.58447937       0.32079178
H        1.88435593      -1.99308790       0.85949862
H        0.17169796      -2.27346502      -0.35794061
H       -1.77057644      -0.44167096      -0.71695344
H       -1.76330082      -0.47501138       1.06513111
14
Frame=7 idx=011215 GeodesicLength=0.8087469923427874 rxn_smarts="[N:1]#[C:2][C:3]1([H:8])[C:4]([H:9])([H:10])[C:5]([H:11])=[C:6]([H:12])[C:7]1([H:13])[H:14]>>[N:1]#[C:2][C:3]1([H:8])[C:4]([H:9])([H:10])[C:6](=[C:5]([H:11])[H:12])[C:7]1([H:13])[H:14]"
N       -1.07976823       2.80295406      -1.55094508
C       -0.75268119       2.01277682      -0.78555365
C       -0.32461924       0.97885426       0.14383750
C        0.98585462       0.22565625      -0.20736907
C        0.90574158      -1.60824410       1.09602505
C        0.10010952      -1.16771677       0.06788900
C       -1.15778602      -0.32853230       0.16864119
H       -0.26541916       1.41386500       1.14226100
H        1.23461168       0.29263448      -1.26732748
H        1.85570977       0.60610257       0.32840264
H        1.89708539      -1.98895019       0.82406141
H        0.14614419      -2.33052994      -0.28729475
H       -1.77144846      -0.43486348      -0.72688975
H       -1.77353444      -0.47400668       1.05426199
14
Frame=8 idx=011215 GeodesicLength=0.9238377887444271 rxn_smarts="[N:1]#[C:2][C:3]1([H:8])[C:4]([H:9])([H:10])[C:5]([H:11])=[C:6]([H:12])[C:7]1([H:13])[H:14]>>[N:1]#[C:2][C:3]1([H:8])[C:4]([H:9])([H:10])[C:6](=[C:5]([H:11])[H:12])[C:7]1([H:13])[H:14]"
N       -1.07023895       2.80724150      -1.54685694
C       -0.74797626       2.01494353      -0.78162217
C       -0.32493419       0.97679579       0.14558445
C        0.99136812       0.23009693      -0.19835544
C        0.92490718      -1.58867234       1.05765980
C        0.08713249      -1.17670954       0.05583824
C       -1.16124590      -0.32855998       0.16086364
H       -0.27388028       1.40758358       1.14631004
H        1.24518245       0.30111991      -1.25728308
H        1.85542610       0.62732118       0.33513284
H        1.90889889      -1.98521969       0.78819717
H        0.12045332      -2.38370666      -0.20921347
H       -1.77138354      -0.42849359      -0.73811644
H       -1.78370943      -0.47374064       1.04186137
14
Frame=9 idx=011215 GeodesicLength=1.0387181156309244 rxn_smarts="[N:1]#[C:2][C:3]1([H:8])[C:4]([H:9])([H:10])[C:5]([H:11])=[C:6]([H:12])[C:7]1([H:13])[H:14]>>[N:1]#[C:2][C:3]1([H:8])[C:4]([H:9])([H:10])[C:6](=[C:5]([H:11])[H:12])[C:7]1([H:13])[H:14]"
N       -1.06162627       2.81097518      -1.54257449
C       -0.74340117       2.01709037      -0.77729902
C       -0.32507561       0.97445465       0.14726463
C        0.99726049       0.23495738      -0.18954543
C        0.94335588      -1.57068361       1.01697923
C        0.07492497      -1.18610082       0.04278461
C       -1.16406495      -0.32906536       0.15228867
H       -0.28244157       1.40060842       1.15038774
H        1.25618508       0.31065999      -1.24733826
H        1.85513154       0.64807652       0.34239509
H        1.91985282      -1.98285543       0.75024462
H        0.09394172      -2.43154785      -0.12367483
H       -1.77047303      -0.42239623      -0.75023794
H       -1.79356991      -0.47417320       1.02832539
14
Frame=10 idx=011215 GeodesicLength=1.1534413987228207 rxn_smarts="[N:1]#[C:2][C:3]1([H:8])[C:4]([H:9])([H:10])[C:5]([H:11])=[C:6]([H:12])[C:7]1([H:13])[H:14]>>[N:1]#[C:2][C:3]1([H:8])[C:4]([H:9])([H:10])[C:6](=[C:5]([H:11])[H:12])[C:7]1([H:13])[H:14]"
N       -1.05322162       2.81548425      -1.53681043
C       -0.73901919       2.01916392      -0.77240645
C       -0.32514105       0.97153129       0.14876750
C        1.00318176       0.23968729      -0.18153068
C        0.96057533      -1.55393489       0.97460775
C        0.06297564      -1.19626031       0.02898499
C       -1.16659668      -0.33019302       0.14272821
H       -0.29076757       1.39242348       1.15445058
H        1.26677563       0.32039967      -1.23822056
H        1.85480465       0.66781971       0.34913424
H        1.92972032      -1.98126705       0.71143293
H        0.06927907      -2.47300132      -0.03100586
H       -1.76894311      -0.41666205      -0.76351991
H       -1.80362317      -0.47519095       1.01338770
14
Frame=11 idx=011215 GeodesicLength=1.267922547788965 rxn_smarts="[N:1]#[C:2][C:3]1([H:8])[C:4]([H:9])([H:10])[C:5]([H:11])=[C:6]([H:12])[C:7]1([H:13])[H:14]>>[N:1]#[C:2][C:3]1([H:8])[C:4]([H:9])([H:10])[C:6](=[C:5]([H:11])[H:12])[C:7]1([H:13])[H:14]"
N       -1.04573183       2.81926500      -1.53085075
C       -0.73461887       2.02111545      -0.76709084
C       -0.32506915       0.96816385       0.15023456
C        1.00930227       0.24442833      -0.17365122
C        0.97681873      -1.53913827       0.92980540
C        0.05127438      -1.20699403       0.01430819
C       -1.16878517      -0.33176517       0.13241331
H       -0.29916602       1.38337790       1.15854734
H        1.27766484       0.33083433      -1.22910394
H        1.85436910       0.68640601       0.35669620
H        1.93849158      -1.98128082       0.67025951
H        0.04595073      -2.50658639       0.06872368
H       -1.76684896      -0.41108458      -0.77764581
H       -1.81365162      -0.47674159       0.99735437
14
Frame=12 idx=011215 GeodesicLength=1.3822313232034846 rxn_smarts="[N:1]#[C:2][C:3]1([H:8])[C:4]([H:9])([H:10])[C:5]([H:11])=[C:6]([H:12])[C:7]1([H:13])[H:14]>>[N:1]#[C:2][C:3]1([H:8])[C:4]([H:9])([H:10])[C:6](=[C:5]([H:11])[H:12])[C:7]1([H:13])[H:14]"
N       -1.03805597       2.82363043      -1.52356414
C       -0.73030293       2.02282729      -0.76122260
C       -0.32501687       0.96405727       0.15157733
C        1.01520638       0.24859829      -0.16644693
C        0.99143998      -1.52590640       0.88332124
C        0.03919718      -1.21865846      -0.00082041
C       -1.17105830      -0.33389582       0.12130849
H       -0.30734285       1.37303746       1.16262847
H        1.28794800       0.34099599      -1.22067537
H        1.85374890       0.70330259       0.36402467
H        1.94590286      -1.98216708       0.62824672
H        0.02705248      -2.53143167       0.17417892
H       -1.76452487      -0.40574310      -0.79269637
H       -1.82419400      -0.47864677       0.98014000
14
Frame=13 idx=011215 GeodesicLength=1.4963525936601259 rxn_smarts="[N:1]#[C:2][C:3]1([H:8])[C:4]([H:9])([H:10])[C:5]([H:11])=[C:6]([H:12])[C:7]1([H:13])[H:14]>>[N:1]#[C:2][C:3]1([H:8])[C:4]([H:9])([H:10])[C:6](=[C:5]([H:11])[H:12])[C:7]1([H:13])[H:14]"
N       -1.03057883       2.82802615      -1.51534046
C       -0.72592967       2.02428962      -0.75483645
C       -0.32495891       0.95923804       0.15285844
C        1.02095612       0.25211863      -0.15963522
C        1.00444457      -1.51455402       0.83490563
C        0.02660726      -1.23125221      -0.01639149
C       -1.17349209      -0.33650223       0.10947657
H       -0.31541120       1.36151338       1.16672844
H        1.29791150       0.35094215      -1.21258228
H        1.85297086       0.71827938       0.37170556
H        1.95192164      -1.98429440       0.58493967
H        0.01292376      -2.54644162       0.28496835
H       -1.76205946      -0.40052766      -0.80860341
H       -1.83530556      -0.48083521       0.96180664
14
Frame=14 idx=011215 GeodesicLength=1.610306599939045 rxn_smarts="[N:1]#[C:2][C:3]1([H:8])[C:4]([H:9])([H:10])[C:5]([H:11])=[C:6]([H:12])[C:7]1([H:13])[H:14]>>[N:1]#[C:2][C:3]1([H:8])[C:4]([H:9])([H:10])[C:6](=[C:5]([H:11])[H:12])[C:7]1([H:13])[H:14]"
N       -1.02329091       2.83207192      -1.50646340
C       -0.72138067       2.02541047      -0.74795913
C       -0.32491561       0.95365552       0.15413536
C        1.02648918       0.25482889      -0.15298932
C        1.01570471      -1.50528522       0.78439198
C        0.01325509      -1.24478719      -0.03228958
C       -1.17620388      -0.33952566       0.09701914
H       -0.32346955       1.34881034       1.17086392
H        1.30764198       0.36061696      -1.20453964
H        1.85194078       0.73104150       0.38016803
H        1.95640427      -1.98782898       0.54007520
H        0.00443606      -2.55043200       0.40037595
H       -1.75955299      -0.39533786      -0.82525078
H       -1.84705846      -0.48323870       0.94246227
14
Frame=15 idx=011215 GeodesicLength=1.7240798608775705 rxn_smarts="[N:1]#[C:2][C:3]1([H:8])[C:4]([H:9])([H:10])[C:5]([H:11])=[C:6]([H:12])[C:7]1([H:13])[H:14]>>[N:1]#[C:2][C:3]1([H:8])[C:4]([H:9])([H:10])[C:6](=[C:5]([H:11])[H:12])[C:7]1([H:13])[H:14]"
N       -1.01568617       2.83597376      -1.49682735
C       -0.71663573       2.02609516      -0.74061095
C       -0.32497427       0.94722167       0.15541772
C        1.03163391       0.25641981      -0.14652814
C        1.02474285      -1.49803886       0.73213638
C       -0.00127142      -1.25939561      -0.04825669
C       -1.17946689      -0.34294067       0.08409002
H       -0.33146794       1.33490818       1.17501922
H        1.31690905       0.36957954      -1.19658854
H        1.85062773       0.74122919       0.38930398
H        1.95916676      -1.99245217       0.49445760
H        0.00341905      -2.54275636       0.51854499
H       -1.75730822      -0.39013994      -0.84245452
H       -1.85968873      -0.48570370       0.92229627
14
Frame=16 idx=011215 GeodesicLength=1.8377656826914244 rxn_smarts="[N:1]#[C:2][C:3]1([H:8])[C:4]([H:9])([H:10])[C:5]([H:11])=[C:6]([H:12])[C:7]1([H:13])[H:14]>>[N:1]#[C:2][C:3]1([H:8])[C:4]([H:9])([H:10])[C:6](=[C:5]([H:11])[H:12])[C:7]1([H:13])[H:14]"
N       -1.00768973       2.83982457      -1.48621435
C       -0.71160447       2.02626582      -0.73277491
C       -0.32515964       0.93983483       0.15670954
C        1.03632270       0.25666086      -0.14020497
C        1.03131777      -1.49281729       0.67826977
C       -0.01720369      -1.27519668      -0.06412624
C       -1.18340632      -0.34675854       0.07066748
H       -0.33944079       1.31968779       1.17919871
H        1.32567962       0.37759989      -1.18866377
H        1.84900675       0.74856961       0.39918273
H        1.96005613      -1.99812710       0.44840192
H        0.01082779      -2.52241042       0.63859822
H       -1.75534503      -0.38492897      -0.86028046
H       -1.87336109      -0.48820439       0.90123633
