16
Frame=0 idx=003914 GeodesicLength=0.0 rxn_smarts="[C:1]([O:2][C:3]1([C:4]([H:10])([H:11])[H:12])[C:5]([H:13])([H:14])[C:6]1([H:15])[H:16])([H:7])([H:8])[H:9]>>[C-:1]([O+:2]=[C:3]([C:4]([H:10])([H:11])[H:12])[C:5]([C:6]([H:7])([H:15])[H:16])([H:13])[H:14])([H:8])[H:9]"
C        1.89220986      -0.34941745       0.49304560
O        1.14956331       0.78270169       0.17327510
C       -0.04338280       0.61574898      -0.29561260
C       -0.93764412       1.79883537      -0.23094122
C       -0.52494992      -0.69228019      -0.79129419
C       -0.55642341      -1.28975541       0.60056121
H        0.76579179      -0.96722538       1.01923143
H        2.11885287      -0.97753468      -0.37028912
H        2.78639105      -0.02549413       1.01755492
H       -1.85745259       1.52857846       0.29613146
H       -0.46041679       2.62687612       0.28937455
H       -1.22981597       2.11579770      -1.23679890
H       -1.47360821      -0.60957157      -1.32349927
H        0.19271552      -1.18538330      -1.44924288
H       -0.36901319      -2.35978101       0.65989446
H       -1.45281735      -1.01209523       1.14860945
16
Frame=1 idx=003914 GeodesicLength=0.07819756746112637 rxn_smarts="[C:1]([O:2][C:3]1([C:4]([H:10])([H:11])[H:12])[C:5]([H:13])([H:14])[C:6]1([H:15])[H:16])([H:7])([H:8])[H:9]>>[C-:1]([O+:2]=[C:3]([C:4]([H:10])([H:11])[H:12])[C:5]([C:6]([H:7])([H:15])[H:16])([H:13])[H:14])([H:8])[H:9]"
C        1.90521920      -0.34328550       0.48841298
O        1.14107429       0.77976490       0.19744313
C       -0.05167201       0.60640355      -0.27649731
C       -0.93842183       1.79644672      -0.23123058
C       -0.52791819      -0.69618271      -0.79070709
C       -0.56573867      -1.28439459       0.60528980
H        0.78842329      -0.99159873       1.02998231
H        2.12027132      -0.96708307      -0.38073838
H        2.81154346      -0.00500454       0.98257182
H       -1.87665462       1.53134523       0.26499593
H       -0.47475505       2.61768266       0.31195146
H       -1.19144871       2.12429800      -1.24418225
H       -1.47460268      -0.61298011      -1.32563248
H        0.19388737      -1.19010244      -1.44297590
H       -0.39350447      -2.35706043       0.66258175
H       -1.46570270      -1.00824893       1.14873481
16
Frame=2 idx=003914 GeodesicLength=0.15631136897210562 rxn_smarts="[C:1]([O:2][C:3]1([C:4]([H:10])([H:11])[H:12])[C:5]([H:13])([H:14])[C:6]1([H:15])[H:16])([H:7])([H:8])[H:9]>>[C-:1]([O+:2]=[C:3]([C:4]([H:10])([H:11])[H:12])[C:5]([C:6]([H:7])([H:15])[H:16])([H:13])[H:14])([H:8])[H:9]"
C        1.91784332      -0.33675575       0.48395735
O        1.13240380       0.77619888       0.22189721
C       -0.05995593       0.59688450      -0.25772620
C       -0.93862356       1.79396159      -0.23146389
C       -0.53104947      -0.70012579      -0.79008311
C       -0.57527368      -1.27923712       0.60995129
H        0.81131137      -1.01646348       1.03991515
H        2.12147526      -0.95633418      -0.39070448
H        2.83491444       0.01699420       0.94703085
H       -1.89414404       1.53444334       0.23365373
H       -0.48907748       2.60831703       0.33381479
H       -1.15246287       2.13238326      -1.24995981
H       -1.47575571      -0.61633029      -1.32770254
H        0.19479398      -1.19505101      -1.43658817
H       -0.41750973      -2.35420833       0.66537209
H       -1.47888970      -1.00467685       1.14863574
16
Frame=3 idx=003914 GeodesicLength=0.23434113511904803 rxn_smarts="[C:1]([O:2][C:3]1([C:4]([H:10])([H:11])[H:12])[C:5]([H:13])([H:14])[C:6]1([H:15])[H:16])([H:7])([H:8])[H:9]>>[C-:1]([O+:2]=[C:3]([C:4]([H:10])([H:11])[H:12])[C:5]([C:6]([H:7])([H:15])[H:16])([H:13])[H:14])([H:8])[H:9]"
C        1.93009065      -0.32983025       0.47967030
O        1.12357148       0.77198108       0.24660474
C       -0.06822586       0.58719857      -0.23930932
C       -0.93824926       1.79137885      -0.23162805
C       -0.53433517      -0.70411470      -0.78943058
C       -0.58506742      -1.27427508       0.61453366
H        0.83448313      -1.04176357       1.04903854
H        2.12246206      -0.94533035      -0.40018428
H        2.85642379       0.04052570       0.91094116
H       -1.90991369       1.53786531       0.20220282
H       -0.50332748       2.59879320       0.35495306
H       -1.11289955       2.14001820      -1.25415798
H       -1.47704603      -0.61961753      -1.32973813
H        0.19544702      -1.20024292      -1.43007642
H       -0.44100566      -2.35123379       0.66828442
H       -1.49240802      -1.00135272       1.14829606
16
Frame=4 idx=003914 GeodesicLength=0.31229142535455956 rxn_smarts="[C:1]([O:2][C:3]1([C:4]([H:10])([H:11])[H:12])[C:5]([H:13])([H:14])[C:6]1([H:15])[H:16])([H:7])([H:8])[H:9]>>[C-:1]([O+:2]=[C:3]([C:4]([H:10])([H:11])[H:12])[C:5]([C:6]([H:7])([H:15])[H:16])([H:13])[H:14])([H:8])[H:9]"
C        1.94197239      -0.32249940       0.47554030
O        1.11459118       0.76709367       0.27154110
C       -0.07647760       0.57735131      -0.22124497
C       -0.93730180       1.78869862      -0.23171465
C       -0.53776690      -0.70815528      -0.78875207
C       -0.59515481      -1.26950019       0.61903058
H        0.85797722      -1.06744202       1.05737013
H        2.12322568      -0.93410762      -0.40917381
H        2.87598241       0.06558980       0.87428286
H       -1.92397821       1.54160673       0.17070635
H       -0.51746094       2.58912527       0.37536393
H       -1.07276161       2.14717646      -1.25679545
H       -1.47845123      -0.62283912      -1.33176105
H        0.19585797      -1.20568848      -1.42343263
H       -0.46396692      -2.34815197       0.67133732
H       -1.50628683      -0.99825779       1.14770206
16
Frame=5 idx=003914 GeodesicLength=0.3901925278814935 rxn_smarts="[C:1]([O:2][C:3]1([C:4]([H:10])([H:11])[H:12])[C:5]([H:13])([H:14])[C:6]1([H:15])[H:16])([H:7])([H:8])[H:9]>>[C-:1]([O+:2]=[C:3]([C:4]([H:10])([H:11])[H:12])[C:5]([C:6]([H:7])([H:15])[H:16])([H:13])[H:14])([H:8])[H:9]"
C        1.95350176      -0.31474003       0.47155551
O        1.10547570       0.76150355       0.29667868
C       -0.08470328       0.56734483      -0.20352338
C       -0.93576861       1.78592516      -0.23171884
C       -0.54133187      -0.71225462      -0.78804826
C       -0.60557074      -1.26490419       0.62344039
H        0.88186426      -1.09345954       1.06493200
H        2.12377261      -0.92270819      -0.41766125
H        2.89344399       0.09219004       0.83701300
H       -1.93634844       1.54567628       0.13919007
H       -0.53142759       2.57932576       0.39506763
H       -1.03207541       2.15384455      -1.25788146
H       -1.47994486      -0.62598921      -1.33379430
H        0.19604371      -1.21140334      -1.41664324
H       -0.48637377      -2.34497819       0.67455194
H       -1.52055746      -0.99537284       1.14684150
16
Frame=6 idx=003914 GeodesicLength=0.46804269863885456 rxn_smarts="[C:1]([O:2][C:3]1([C:4]([H:10])([H:11])[H:12])[C:5]([H:13])([H:14])[C:6]1([H:15])[H:16])([H:7])([H:8])[H:9]>>[C-:1]([O+:2]=[C:3]([C:4]([H:10])([H:11])[H:12])[C:5]([C:6]([H:7])([H:15])[H:16])([H:13])[H:14])([H:8])[H:9]"
C        1.96469350      -0.30654762       0.46769546
O        1.09625114       0.75520379       0.32198237
C       -0.09289862       0.55718216      -0.18614254
C       -0.93364798       1.78305883      -0.23163355
C       -0.54502098      -0.71641905      -0.78732453
C       -0.61635252      -1.26047311       0.62775380
H        0.90619362      -1.11975337       1.07174591
H        2.12410176      -0.91116258      -0.42565347
H        2.90872910       0.12030630       0.79915044
H       -1.94703882       1.55006950       0.10771758
H       -0.54516688       2.56940940       0.41406864
H       -0.99089085       2.15999408      -1.25743971
H       -1.48149987      -0.62906615      -1.33586391
H        0.19601738      -1.21740300      -1.40969730
H       -0.50821304      -2.34172133       0.67795076
H       -1.53525693      -0.99267786       1.14569006
16
Frame=7 idx=003914 GeodesicLength=0.5458483987953482 rxn_smarts="[C:1]([O:2][C:3]1([C:4]([H:10])([H:11])[H:12])[C:5]([H:13])([H:14])[C:6]1([H:15])[H:16])([H:7])([H:8])[H:9]>>[C-:1]([O+:2]=[C:3]([C:4]([H:10])([H:11])[H:12])[C:5]([C:6]([H:7])([H:15])[H:16])([H:13])[H:14])([H:8])[H:9]"
C        1.97556653      -0.29791218       0.46392187
O        1.08694868       0.74818648       0.34740174
C       -0.10105909       0.54686247      -0.16910985
C       -0.93092987       1.78009537      -0.23145159
C       -0.54882517      -0.72065560      -0.78659524
C       -0.62754165      -1.25619071       0.63195613
H        0.93103343      -1.14625963       1.07782759
H        2.12422120      -0.89949549      -0.43317287
H        2.92175092       0.14989712       0.76082150
H       -1.95601799       1.55477780       0.07640968
H       -0.55857925       2.55940467       0.43233048
H       -0.94935867       2.16558445      -1.25551204
H       -1.48309685      -0.63206241      -1.33800699
H        0.19578860      -1.22370217      -1.40259328
H       -0.52947538      -2.33838153       0.68155000
H       -1.55042544      -0.99014863       1.14422287
16
Frame=8 idx=003914 GeodesicLength=0.6236538575120679 rxn_smarts="[C:1]([O:2][C:3]1([C:4]([H:10])([H:11])[H:12])[C:5]([H:13])([H:14])[C:6]1([H:15])[H:16])([H:7])([H:8])[H:9]>>[C-:1]([O+:2]=[C:3]([C:4]([H:10])([H:11])[H:12])[C:5]([C:6]([H:7])([H:15])[H:16])([H:13])[H:14])([H:8])[H:9]"
C        1.98613776      -0.28880841       0.46021194
O        1.07758011       0.74043202       0.37291595
C       -0.10918915       0.53638505      -0.15240621
C       -0.92759494       1.77703053      -0.23117311
C       -0.55273970      -0.72496995      -0.78585713
C       -0.63918218      -1.25203570       0.63604852
H        0.95647734      -1.17295064       1.08319966
H        2.12413409      -0.88773679      -0.44021990
H        2.93240800       0.18096965       0.72200390
H       -1.96329169       1.55980161       0.04526060
H       -0.57162646       2.54930138       0.44988486
H       -0.90748919       2.17060092      -1.25210586
H       -1.48471259      -0.63496858      -1.34024181
H        0.19536118      -1.23031582      -1.39531323
H       -0.55016173      -2.33497722       0.68536813
H       -1.56611085      -0.98775806       1.14242368
16
Frame=9 idx=003914 GeodesicLength=0.7015259422681379 rxn_smarts="[C:1]([O:2][C:3]1([C:4]([H:10])([H:11])[H:12])[C:5]([H:13])([H:14])[C:6]1([H:15])[H:16])([H:7])([H:8])[H:9]>>[C-:1]([O+:2]=[C:3]([C:4]([H:10])([H:11])[H:12])[C:5]([C:6]([H:7])([H:15])[H:16])([H:13])[H:14])([H:8])[H:9]"
C        1.99644971      -0.27911310       0.45647165
O        1.06811414       0.73199236       0.39853756
C       -0.11728359       0.52576550      -0.13601027
C       -0.92369504       1.77388678      -0.23077358
C       -0.55671063      -0.72936911      -0.78510196
C       -0.65129848      -1.24800444       0.64002556
H        0.98268903      -1.19975000       1.08790631
H        2.12389071      -0.87572689      -0.44689054
H        2.94077476       0.21283984       0.68281387
H       -1.96897128       1.56515119       0.01422580
H       -0.58434505       2.53918367       0.46670937
H       -0.86557097       2.17509840      -1.24727313
H       -1.48626063      -0.63780879      -1.34262206
H        0.19482410      -1.23726599      -1.38779038
H       -0.57026378      -2.33139276       0.68953993
H       -1.58234300      -0.98548666       1.14023188
16
Frame=10 idx=003914 GeodesicLength=0.7794403403757537 rxn_smarts="[C:1]([O:2][C:3]1([C:4]([H:10])([H:11])[H:12])[C:5]([H:13])([H:14])[C:6]1([H:15])[H:16])([H:7])([H:8])[H:9]>>[C-:1]([O+:2]=[C:3]([C:4]([H:10])([H:11])[H:12])[C:5]([C:6]([H:7])([H:15])[H:16])([H:13])[H:14])([H:8])[H:9]"
C        2.00647239      -0.26889230       0.45272784
O        1.05860671       0.72276116       0.42420854
C       -0.12535763       0.51497503      -0.11989843
C       -0.91915880       1.77063777      -0.23025594
C       -0.56078493      -0.73386687      -0.78432833
C       -0.66395767      -1.24407677       0.64389009
H        1.00970545      -1.22668115       1.09192199
H        2.12345616      -0.86365110      -0.45312715
H        2.94658080       0.24620180       0.64314152
H       -1.97297236       1.57082568      -0.01662781
H       -0.59661523       2.52897230       0.48289147
H       -0.82328731       2.17899309      -1.24102321
H       -1.48778067      -0.64054699      -1.34513241
H        0.19409654      -1.24457696      -1.38004178
H       -0.58981209      -2.32775094       0.69399749
H       -1.59919135      -0.98332375       1.13765612
16
Frame=11 idx=003914 GeodesicLength=0.85737797130609 rxn_smarts="[C:1]([O:2][C:3]1([C:4]([H:10])([H:11])[H:12])[C:5]([H:13])([H:14])[C:6]1([H:15])[H:16])([H:7])([H:8])[H:9]>>[C-:1]([O+:2]=[C:3]([C:4]([H:10])([H:11])[H:12])[C:5]([C:6]([H:7])([H:15])[H:16])([H:13])[H:14])([H:8])[H:9]"
C        2.01620041      -0.25811878       0.44895203
O        1.04907254       0.71271680       0.44989900
C       -0.13341221       0.50400904      -0.10405078
C       -0.91397599       1.76729178      -0.22961416
C       -0.56495372      -0.73847343      -0.78353089
C       -0.67719717      -1.24024118       0.64764120
H        1.03763972      -1.25369402       1.09524895
H        2.12284864      -0.85150548      -0.45894386
H        2.94968906       0.28100119       0.60299298
H       -1.97531791       1.57683100      -0.04727165
H       -0.60839133       2.51868378       0.49845599
H       -0.78063344       2.18226442      -1.23338745
H       -1.48924352      -0.64318066      -1.34779272
H        0.19319105      -1.25227152      -1.37203730
H       -0.60881545      -2.32404940       0.69877690
H       -1.61670067      -0.98126355       1.13466174
16
Frame=12 idx=003914 GeodesicLength=0.9353371319773687 rxn_smarts="[C:1]([O:2][C:3]1([C:4]([H:10])([H:11])[H:12])[C:5]([H:13])([H:14])[C:6]1([H:15])[H:16])([H:7])([H:8])[H:9]>>[C-:1]([O+:2]=[C:3]([C:4]([H:10])([H:11])[H:12])[C:5]([C:6]([H:7])([H:15])[H:16])([H:13])[H:14])([H:8])[H:9]"
C        2.02563428      -0.24675360       0.44510145
O        1.03952594       0.70183981       0.47557700
C       -0.14145297       0.49286439      -0.08844881
C       -0.90813745       1.76384889      -0.22883749
C       -0.56921233      -0.74319691      -0.78270467
C       -0.69105709      -1.23648034       0.65127754
H        1.06661554      -1.28075169       1.09787464
H        2.12208858      -0.83926902      -0.46438266
H        2.94998005       0.31716880       0.56244548
H       -1.97601695       1.58316516      -0.07766303
H       -0.61962079       2.50833920       0.51340805
H       -0.73762278       2.18487315      -1.22440976
H       -1.49062711      -0.64570258      -1.35062153
H        0.19211144      -1.26037265      -1.36374912
H       -0.62729189      -2.32028200       0.70391386
H       -1.63491648      -0.97929062       1.13121905
16
Frame=13 idx=003914 GeodesicLength=1.0133414963567207 rxn_smarts="[C:1]([O:2][C:3]1([C:4]([H:10])([H:11])[H:12])[C:5]([H:13])([H:14])[C:6]1([H:15])[H:16])([H:7])([H:8])[H:9]>>[C-:1]([O+:2]=[C:3]([C:4]([H:10])([H:11])[H:12])[C:5]([C:6]([H:7])([H:15])[H:16])([H:13])[H:14])([H:8])[H:9]"
C        2.03477094      -0.23475654       0.44113120
O        1.02998291       0.69010758       0.50120993
C       -0.14948673       0.48153587      -0.07307827
C       -0.90163307       1.76030174      -0.22791636
C       -0.57355642      -0.74804889      -0.78184574
C       -0.70558938      -1.23276859       0.65479306
H        1.09677163      -1.30781907       1.09978457
H        2.12119462      -0.82691352      -0.46948167
H        2.94734576       0.35465099       0.52156814
H       -1.97507746       1.58981822      -0.10775600
H       -0.63024671       2.49794828       0.52776328
H       -0.69426284       2.18677309      -1.21412146
H       -1.49189921      -0.64810692      -1.35364243
H        0.19086007      -1.26891207      -1.35514341
H       -0.64527627      -2.31643460       0.70945183
H       -1.65389784      -0.97737555       1.12728333
16
Frame=14 idx=003914 GeodesicLength=1.0914282781658058 rxn_smarts="[C:1]([O:2][C:3]1([C:4]([H:10])([H:11])[H:12])[C:5]([H:13])([H:14])[C:6]1([H:15])[H:16])([H:7])([H:8])[H:9]>>[C-:1]([O+:2]=[C:3]([C:4]([H:10])([H:11])[H:12])[C:5]([C:6]([H:7])([H:15])[H:16])([H:13])[H:14])([H:8])[H:9]"
C        2.04359817      -0.22207747       0.43701256
O        1.02045315       0.67748616       0.52677864
C       -0.15752472       0.47001150      -0.05790869
C       -0.89443618       1.75664642      -0.22684354
C       -0.57798102      -0.75304209      -0.78094378
C       -0.72084896      -1.22908891       0.65819260
H        1.12826697      -1.33487575       1.10095723
H        2.12018720      -0.81441179      -0.47426532
H        2.94163344       0.39341832       0.48037446
H       -1.97248589       1.59679870      -0.13754544
H       -0.64021306       2.48751522       0.54154212
H       -0.65054452       2.18793411      -1.20253930
H       -1.49302723      -0.65038818      -1.35687825
H        0.18944287      -1.27792147      -1.34617493
H       -0.66280868      -2.31250096       0.71542914
H       -1.67371155      -0.97550382       1.12281251
16
Frame=15 idx=003914 GeodesicLength=1.1696386415625573 rxn_smarts="[C:1]([O:2][C:3]1([C:4]([H:10])([H:11])[H:12])[C:5]([H:13])([H:14])[C:6]1([H:15])[H:16])([H:7])([H:8])[H:9]>>[C-:1]([O+:2]=[C:3]([C:4]([H:10])([H:11])[H:12])[C:5]([C:6]([H:7])([H:15])[H:16])([H:13])[H:14])([H:8])[H:9]"
C        2.05210719      -0.20865904       0.43270521
O        1.01095440       0.66394179       0.55225379
C       -0.16557391       0.45828100      -0.04292117
C       -0.88652262       1.75287366      -0.22560629
C       -0.58247775      -0.75819383      -0.77998845
C       -0.73689076      -1.22541536       0.66147743
H        1.16126385      -1.36189443       1.10136382
H        2.11908476      -0.80172961      -0.47876699
H        2.93270418       0.43340770       0.43889929
H       -1.96823128       1.60410849      -0.16704897
H       -0.64948026       2.47703355       0.55478794
H       -0.60647402       2.18833151      -1.18966620
H       -1.49397177      -0.65254350      -1.36035525
H        0.18786677      -1.28744357      -1.33679327
H       -0.67993789      -2.30845679       0.72190212
H       -1.69442090      -0.97364156       1.11775698
16
Frame=16 idx=003914 GeodesicLength=1.2480143005901636 rxn_smarts="[C:1]([O:2][C:3]1([C:4]([H:10])([H:11])[H:12])[C:5]([H:13])([H:14])[C:6]1([H:15])[H:16])([H:7])([H:8])[H:9]>>[C-:1]([O+:2]=[C:3]([C:4]([H:10])([H:11])[H:12])[C:5]([C:6]([H:7])([H:15])[H:16])([H:13])[H:14])([H:8])[H:9]"
C        2.06028456      -0.19443899       0.42815976
O        1.00150235       0.64943463       0.57760917
C       -0.17364427       0.44633349      -0.02809563
C       -0.87787465       1.74897049      -0.22419320
C       -0.58704349      -0.76352111      -0.77896934
C       -0.75377373      -1.22172507       0.66464674
H        1.19594723      -1.38884981       1.10094193
H        2.11790430      -0.78880750      -0.48304267
H        2.92043392       0.47453959       0.39726472
H       -1.96229249       1.61174617      -0.19622895
H       -0.65798169       2.46652043       0.56749654
H       -0.56208176       2.18792226      -1.17553623
H       -1.49469912      -0.65457085      -1.36409772
H        0.18613225      -1.29752127      -1.32694564
H       -0.69672311      -2.30427457       0.72892448
H       -1.71609031      -0.97175788       1.11206604
