10
Frame=0 idx=003367 GeodesicLength=0.0 rxn_smarts="[C:1]([c:2]1[c:3]([H:10])[o:4][n:5][n:6]1)([H:7])([H:8])[H:9]>>[C:1]([C-:2]([C:3][O:4][H:10])[N+:6]#[N:5])([H:7])([H:8])[H:9]"
C       -1.52592405      -0.13821693      -0.14413798
C       -0.04999522      -0.10054559       0.01801549
C        0.87177719       0.90792905      -0.10134623
O        2.16052119       0.67109495       0.09772271
N        1.77393122      -1.49988224       0.53532893
N        0.69829533      -1.21546784       0.35000145
H       -1.83333333      -0.80626619      -0.95072934
H       -2.03198465      -0.44644900       0.77244857
H       -1.85844200       0.86826224      -0.39297420
H        1.79515432       1.75954155      -0.18432940
10
Frame=1 idx=003367 GeodesicLength=0.04226130916752698 rxn_smarts="[C:1]([c:2]1[c:3]([H:10])[o:4][n:5][n:6]1)([H:7])([H:8])[H:9]>>[C:1]([C-:2]([C:3][O:4][H:10])[N+:6]#[N:5])([H:7])([H:8])[H:9]"
C       -1.52579518      -0.13809316      -0.14332870
C       -0.04918396      -0.10284435       0.01496712
C        0.87054055       0.90584507      -0.11956933
O        2.15441982       0.66128029       0.10401362
N        1.77759487      -1.48672752       0.53816196
N        0.69600134      -1.21868777       0.34419954
H       -1.83614145      -0.80713183      -0.94796748
H       -2.02890311      -0.44468168       0.77542659
H       -1.85764071       0.86861306      -0.39235634
H        1.79910783       1.76242789      -0.17354699
10
Frame=2 idx=003367 GeodesicLength=0.08444564552277709 rxn_smarts="[C:1]([c:2]1[c:3]([H:10])[o:4][n:5][n:6]1)([H:7])([H:8])[H:9]>>[C:1]([C-:2]([C:3][O:4][H:10])[N+:6]#[N:5])([H:7])([H:8])[H:9]"
C       -1.52549609      -0.13790726      -0.14263810
C       -0.04838244      -0.10485262       0.01332815
C        0.86946615       0.90362260      -0.13700322
O        2.14815176       0.65180906       0.11054215
N        1.78176596      -1.47520614       0.53500380
N        0.69327212      -1.22096818       0.34298363
H       -1.83791934      -0.80951002      -0.94431767
H       -2.02666771      -0.44098236       0.77833048
H       -1.85631237       0.86854590      -0.39423204
H        1.80212195       1.76544903      -0.16199718
10
Frame=3 idx=003367 GeodesicLength=0.12670221750822913 rxn_smarts="[C:1]([c:2]1[c:3]([H:10])[o:4][n:5][n:6]1)([H:7])([H:8])[H:9]>>[C:1]([C-:2]([C:3][O:4][H:10])[N+:6]#[N:5])([H:7])([H:8])[H:9]"
C       -1.52508920      -0.13768376      -0.14201042
C       -0.04752300      -0.10679648       0.01206127
C        0.86830998       0.90165788      -0.15234376
O        2.14198553       0.64228586       0.11566706
N        1.78561412      -1.46365604       0.53331673
N        0.69065232      -1.22340677       0.34131291
H       -1.83926712      -0.81105484      -0.94150971
H       -2.02453735      -0.43825912       0.78070733
H       -1.85492702       0.86873550      -0.39522766
H        1.80478174       1.76817777      -0.15197377
10
Frame=4 idx=003367 GeodesicLength=0.16901963211994217 rxn_smarts="[C:1]([c:2]1[c:3]([H:10])[o:4][n:5][n:6]1)([H:7])([H:8])[H:9]>>[C:1]([C-:2]([C:3][O:4][H:10])[N+:6]#[N:5])([H:7])([H:8])[H:9]"
C       -1.52460849      -0.13744519      -0.14143969
C       -0.04664496      -0.10865697       0.01123706
C        0.86703564       0.89998233      -0.16573616
O        2.13590728       0.63277991       0.11983497
N        1.78921988      -1.45220611       0.53245958
N        0.68808433      -1.22591121       0.33952162
H       -1.84018171      -0.81197185      -0.93940858
H       -2.02259540      -0.43633518       0.78261034
H       -1.85351444       0.86910235      -0.39557600
H        1.80729787       1.77066194      -0.14350313
10
Frame=5 idx=003367 GeodesicLength=0.21113191781449414 rxn_smarts="[C:1]([c:2]1[c:3]([H:10])[o:4][n:5][n:6]1)([H:7])([H:8])[H:9]>>[C:1]([C-:2]([C:3][O:4][H:10])[N+:6]#[N:5])([H:7])([H:8])[H:9]"
C       -1.52407163      -0.13723712      -0.14093426
C       -0.04578039      -0.11037855       0.01095610
C        0.86557829       0.89872587      -0.17709093
O        2.13004107       0.62313823       0.12255386
N        1.79237383      -1.44081477       0.53237473
N        0.68559534      -1.22834982       0.33780396
H       -1.84057482      -0.81235096      -0.93802057
H       -2.02091640      -0.43527080       0.78399482
H       -1.85213089       0.86956410      -0.39533172
H        1.80988559       1.77297381      -0.13630599
10
Frame=6 idx=003367 GeodesicLength=0.25328614369990454 rxn_smarts="[C:1]([c:2]1[c:3]([H:10])[o:4][n:5][n:6]1)([H:7])([H:8])[H:9]>>[C:1]([C-:2]([C:3][O:4][H:10])[N+:6]#[N:5])([H:7])([H:8])[H:9]"
C       -1.52349054      -0.13701998      -0.14045966
C       -0.04491646      -0.11202342       0.01108512
C        0.86409690       0.89755201      -0.18755206
O        2.12411743       0.61376911       0.12560135
N        1.79554278      -1.42991083       0.53134707
N        0.68303864      -1.23066657       0.33680522
H       -1.84065187      -0.81275053      -0.93675186
H       -2.01946716      -0.43419955       0.78520324
H       -1.85066724       0.87002038      -0.39523944
H        1.81239753       1.77522937      -0.13003899
10
Frame=7 idx=003367 GeodesicLength=0.2955512951457498 rxn_smarts="[C:1]([c:2]1[c:3]([H:10])[o:4][n:5][n:6]1)([H:7])([H:8])[H:9]>>[C:1]([C-:2]([C:3][O:4][H:10])[N+:6]#[N:5])([H:7])([H:8])[H:9]"
C       -1.52286471      -0.13678739      -0.13999481
C       -0.04400364      -0.11370088       0.01115824
C        0.86262778       0.89637604      -0.19752893
O        2.11823474       0.60451528       0.12830890
N        1.79853064      -1.41910528       0.53105872
N        0.68053932      -1.23310354       0.33542565
H       -1.84070189      -0.81286447      -0.93571067
H       -2.01794659      -0.43342743       0.78631068
H       -1.84916459       0.87057991      -0.39480576
H        1.81474895       1.77751776      -0.12422202
10
Frame=8 idx=003367 GeodesicLength=0.337658252038621 rxn_smarts="[C:1]([c:2]1[c:3]([H:10])[o:4][n:5][n:6]1)([H:7])([H:8])[H:9]>>[C:1]([C-:2]([C:3][O:4][H:10])[N+:6]#[N:5])([H:7])([H:8])[H:9]"
C       -1.52218647      -0.13655861      -0.13957756
C       -0.04306893      -0.11530372       0.01153314
C        0.86118043       0.89522680      -0.20701711
O        2.11245360       0.59531239       0.13049020
N        1.80139750      -1.40874608       0.52967784
N        0.67799946      -1.23531018       0.33505446
H       -1.84047674      -0.81329485      -0.93454349
H       -2.01661276      -0.43231153       0.78736214
H       -1.84756089       0.87103354      -0.39489248
H        1.81687481       1.77995225      -0.11808715
10
Frame=9 idx=003367 GeodesicLength=0.37983690769701645 rxn_smarts="[C:1]([c:2]1[c:3]([H:10])[o:4][n:5][n:6]1)([H:7])([H:8])[H:9]>>[C:1]([C-:2]([C:3][O:4][H:10])[N+:6]#[N:5])([H:7])([H:8])[H:9]"
C       -1.52146414      -0.13632234      -0.13917829
C       -0.04211389      -0.11689728       0.01198291
C        0.85973476       0.89409644      -0.21603085
O        2.10665966       0.58627927       0.13269840
N        1.80421419      -1.39871387       0.52804047
N        0.67542983      -1.23747731       0.33489369
H       -1.84015092      -0.81373318      -0.93339678
H       -2.01530484      -0.43116275       0.78834958
H       -1.84587909       0.87148367      -0.39505155
H        1.81887445       1.78244735      -0.11230759
10
Frame=10 idx=003367 GeodesicLength=0.42199054355436943 rxn_smarts="[C:1]([c:2]1[c:3]([H:10])[o:4][n:5][n:6]1)([H:7])([H:8])[H:9]>>[C:1]([C-:2]([C:3][O:4][H:10])[N+:6]#[N:5])([H:7])([H:8])[H:9]"
C       -1.52070496      -0.13607938      -0.13880855
C       -0.04113490      -0.11846445       0.01258045
C        0.85831995       0.89295385      -0.22467594
O        2.10089005       0.57739204       0.13485862
N        1.80700438      -1.38908939       0.52561726
N        0.67282271      -1.23952506       0.33535270
H       -1.83968403      -0.81436522      -0.93215152
H       -2.01409449      -0.42976056       0.78931858
H       -1.84411806       0.87187557      -0.39555872
H        1.82069936       1.78506259      -0.10653287
10
Frame=11 idx=003367 GeodesicLength=0.4641377215667687 rxn_smarts="[C:1]([c:2]1[c:3]([H:10])[o:4][n:5][n:6]1)([H:7])([H:8])[H:9]>>[C:1]([C-:2]([C:3][O:4][H:10])[N+:6]#[N:5])([H:7])([H:8])[H:9]"
C       -1.51990669      -0.13582905      -0.13846395
C       -0.04012817      -0.12001556       0.01326206
C        0.85694149       0.89178559      -0.23304731
O        2.09514876       0.56863560       0.13695915
N        1.80975220      -1.37983319       0.52257397
N        0.67018443      -1.24146972       0.33630439
H       -1.83911428      -0.81516399      -0.93080460
H       -2.01293519      -0.42812795       0.79028300
H       -1.84227694       0.87221656      -0.39635910
H        1.82233440       1.78780170      -0.10070762
10
Frame=12 idx=003367 GeodesicLength=0.5063039391893369 rxn_smarts="[C:1]([c:2]1[c:3]([H:10])[o:4][n:5][n:6]1)([H:7])([H:8])[H:9]>>[C:1]([C-:2]([C:3][O:4][H:10])[N+:6]#[N:5])([H:7])([H:8])[H:9]"
C       -1.51906864      -0.13556305      -0.13812690
C       -0.03905885      -0.12162226       0.01375977
C        0.85563910       0.89053173      -0.24138304
O        2.08943483       0.55999862       0.13894378
N        1.81237606      -1.37075607       0.51971251
N        0.66758801      -1.24346046       0.33714444
H       -1.83862018      -0.81596928      -0.92940141
H       -2.01165430      -0.42640510       0.79130867
H       -1.84036718       0.87257569      -0.39718862
H        1.82373116       1.79067017      -0.09476921
10
Frame=13 idx=003367 GeodesicLength=0.5484692222642583 rxn_smarts="[C:1]([c:2]1[c:3]([H:10])[o:4][n:5][n:6]1)([H:7])([H:8])[H:9]>>[C:1]([C-:2]([C:3][O:4][H:10])[N+:6]#[N:5])([H:7])([H:8])[H:9]"
C       -1.51817783      -0.13527837      -0.13780349
C       -0.03793138      -0.12328586       0.01407510
C        0.85440603       0.88918486      -0.24968787
O        2.08374813       0.55147115       0.14080670
N        1.81488804      -1.36189588       0.51683739
N        0.66501488      -1.24546429       0.33800933
H       -1.83818039      -0.81684949      -0.92787694
H       -2.01024505      -0.42449634       0.79240078
H       -1.83836139       0.87293443      -0.39814805
H        1.82483896       1.79367978      -0.08861294
10
Frame=14 idx=003367 GeodesicLength=0.5906318744027159 rxn_smarts="[C:1]([c:2]1[c:3]([H:10])[o:4][n:5][n:6]1)([H:7])([H:8])[H:9]>>[C:1]([C-:2]([C:3][O:4][H:10])[N+:6]#[N:5])([H:7])([H:8])[H:9]"
C       -1.51725694      -0.13498601      -0.13750729
C       -0.03677620      -0.12493661       0.01445560
C        0.85321786       0.88781040      -0.25777891
O        2.07811833       0.54303441       0.14252390
N        1.81737466      -1.35337083       0.51341181
N        0.66241632      -1.24736729       0.33933922
H       -1.83766446      -0.81789581      -0.92625014
H       -2.00888493      -0.42235356       0.79349692
H       -1.83628843       0.87324261      -0.39939489
H        1.82574378       1.79682269      -0.08229622
10
Frame=15 idx=003367 GeodesicLength=0.6327957927182346 rxn_smarts="[C:1]([c:2]1[c:3]([H:10])[o:4][n:5][n:6]1)([H:7])([H:8])[H:9]>>[C:1]([C-:2]([C:3][O:4][H:10])[N+:6]#[N:5])([H:7])([H:8])[H:9]"
C       -1.51630218      -0.13469015      -0.13723048
C       -0.03560661      -0.12656588       0.01493984
C        0.85204132       0.88643287      -0.26558823
O        2.07254292       0.53467066       0.14405363
N        1.81978583      -1.34510999       0.50972602
N        0.65979788      -1.24920202       0.34097391
H       -1.83703686      -0.81897302      -0.92463602
H       -2.00757250      -0.42016827       0.79453344
H       -1.83416575       0.87353668      -0.40073227
H        1.82651595       1.80006912      -0.07603984
10
Frame=16 idx=003367 GeodesicLength=0.6749552688741794 rxn_smarts="[C:1]([c:2]1[c:3]([H:10])[o:4][n:5][n:6]1)([H:7])([H:8])[H:9]>>[C:1]([C-:2]([C:3][O:4][H:10])[N+:6]#[N:5])([H:7])([H:8])[H:9]"
C       -1.51532188      -0.13439296      -0.13698151
C       -0.03443025      -0.12815361       0.01559316
C        0.85088111       0.88506065      -0.27309544
O        2.06702472       0.52638586       0.14546367
N        1.82217826      -1.33719937       0.50538815
N        0.65713783      -1.25090697       0.34315680
H       -1.83626849      -0.82020036      -0.92296135
H       -2.00636478      -0.41780241       0.79552546
H       -1.83199143       0.87377314      -0.40233870
H        1.82715492       1.80343604      -0.06975023
