10
Frame=0 idx=000364 GeodesicLength=0.0 rxn_smarts="[N:1]([c:2]1[n:3][c:4]([H:9])[n:5][n:6]1[H:10])([H:7])[H:8]>>[C:4](#[N:5])[H:9].[N:1]([N:3]=[C:2]=[N:6][H:10])([H:7])[H:8]"
N       -1.32208120      -0.72860069      -0.48915579
C       -0.47943947       0.28648121       0.86287496
N        0.16726576      -0.90608840       0.53034633
C        1.32504247      -0.54358260      -0.13887325
N        1.44267982       0.73702625      -0.28160171
N        0.31253349       1.23084407       0.25423327
H       -1.75305714       0.16404482      -0.71452935
H       -1.96869659      -1.21303059       0.12424213
H        2.04986126      -1.25314650      -0.50191585
H        0.22589160       2.22605243       0.35437926
10
Frame=1 idx=000364 GeodesicLength=0.166594422488838 rxn_smarts="[N:1]([c:2]1[n:3][c:4]([H:9])[n:5][n:6]1[H:10])([H:7])[H:8]>>[C:4](#[N:5])[H:9].[N:1]([N:3]=[C:2]=[N:6][H:10])([H:7])[H:8]"
N       -1.32397354      -0.72428911      -0.48269921
C       -0.48034677       0.29181689       0.85442073
N        0.15977367      -0.89990092       0.53999404
C        1.35884940      -0.53978838      -0.12318464
N        1.47843998       0.73572554      -0.27829667
N        0.31252325       1.24080461       0.26580370
H       -1.76794995       0.15858916      -0.71937304
H       -1.97100883      -1.22193849       0.11902483
H        2.03294232      -1.27591212      -0.52788558
H        0.20075047       2.23489282       0.35219584
10
Frame=2 idx=000364 GeodesicLength=0.33323239135092125 rxn_smarts="[N:1]([c:2]1[n:3][c:4]([H:9])[n:5][n:6]1[H:10])([H:7])[H:8]>>[C:4](#[N:5])[H:9].[N:1]([N:3]=[C:2]=[N:6][H:10])([H:7])[H:8]"
N       -1.32691007      -0.71919446      -0.47626318
C       -0.48038593       0.29648186       0.84581611
N        0.15213949      -0.89425581       0.54812591
C        1.39291770      -0.53665622      -0.10995719
N        1.51561948       0.73382777      -0.27553191
N        0.31253140       1.25063974       0.27782329
H       -1.78403938       0.15378693      -0.72284441
H       -1.97339319      -1.23089399       0.11361387
H        2.01638099      -1.29655070      -0.55013282
H        0.17513951       2.24281488       0.34935033
10
Frame=3 idx=000364 GeodesicLength=0.4999657208154151 rxn_smarts="[N:1]([c:2]1[n:3][c:4]([H:9])[n:5][n:6]1[H:10])([H:7])[H:8]>>[C:4](#[N:5])[H:9].[N:1]([N:3]=[C:2]=[N:6][H:10])([H:7])[H:8]"
N       -1.33092713      -0.71332802      -0.46980189
C       -0.47968204       0.30058428       0.83704577
N        0.14428100      -0.88909431       0.55487789
C        1.42711936      -0.53411684      -0.09932129
N        1.55435243       0.73137182      -0.27315643
N        0.31244124       1.26043866       0.29032137
H       -1.80139344       0.14962312      -0.72493641
H       -1.97592018      -1.23986819       0.10797237
H        2.00073039      -1.31544066      -0.56886148
H        0.14899837       2.24983013       0.34586010
10
Frame=4 idx=000364 GeodesicLength=0.6667431744184479 rxn_smarts="[N:1]([c:2]1[n:3][c:4]([H:9])[n:5][n:6]1[H:10])([H:7])[H:8]>>[C:4](#[N:5])[H:9].[N:1]([N:3]=[C:2]=[N:6][H:10])([H:7])[H:8]"
N       -1.33595418      -0.70678934      -0.46328285
C       -0.47843013       0.30431115       0.82807487
N        0.13613470      -0.88431401       0.56055212
C        1.46151791      -0.53211546      -0.09103040
N        1.59464279       0.72849836      -0.27116156
N        0.31207968       1.27033868       0.30325361
H       -1.81997351       0.14598431      -0.72582132
H       -1.97859424      -1.24889103       0.10206505
H        1.98615873      -1.33305598      -0.58458651
H        0.12241825       2.25603331       0.34193700
10
Frame=5 idx=000364 GeodesicLength=0.8337411412527755 rxn_smarts="[N:1]([c:2]1[n:3][c:4]([H:9])[n:5][n:6]1[H:10])([H:7])[H:8]>>[C:4](#[N:5])[H:9].[N:1]([N:3]=[C:2]=[N:6][H:10])([H:7])[H:8]"
N       -1.34184683      -0.69978330      -0.45662896
C       -0.47676687       0.30786642       0.81879661
N        0.12763661      -0.87973865       0.56554429
C        1.49622051      -0.53054195      -0.08455791
N        1.63687428       0.72492267      -0.26897265
N        0.31131008       1.28043982       0.31643644
H       -1.83961630       0.14252759      -0.72572017
H       -1.98135009      -1.25800584       0.09588333
H        1.97201674      -1.34919404      -0.59830894
H        0.09552188       2.26150727       0.33752796
10
Frame=6 idx=000364 GeodesicLength=1.0007917878259152 rxn_smarts="[N:1]([c:2]1[n:3][c:4]([H:9])[n:5][n:6]1[H:10])([H:7])[H:8]>>[C:4](#[N:5])[H:9].[N:1]([N:3]=[C:2]=[N:6][H:10])([H:7])[H:8]"
N       -1.34859203      -0.69240510      -0.44983448
C       -0.47484661       0.31139137       0.80913571
N        0.11873675      -0.87530994       0.57003555
C        1.53131688      -0.52940318      -0.07980930
N        1.68090544       0.72082977      -0.26689200
N        0.30994135       1.29086479       0.32973144
H       -1.86033874       0.13916295      -0.72479568
H       -1.98419485      -1.26727470       0.08942174
H        1.95853891      -1.36430525      -0.61012333
H        0.06853288       2.26644928       0.33313033
10
Frame=7 idx=000364 GeodesicLength=1.167568064919023 rxn_smarts="[N:1]([c:2]1[n:3][c:4]([H:9])[n:5][n:6]1[H:10])([H:7])[H:8]>>[C:4](#[N:5])[H:9].[N:1]([N:3]=[C:2]=[N:6][H:10])([H:7])[H:8]"
N       -1.35616350      -0.68474162      -0.44285600
C       -0.47275088       0.31497564       0.79897190
N        0.10937239      -0.87091581       0.57418372
C        1.56687832      -0.52865498      -0.07660899
N        1.72670503       0.71630959      -0.26502811
N        0.30787490       1.30163133       0.34303397
H       -1.88207620       0.13572899      -0.72316099
H       -1.98712901      -1.27670424       0.08265229
H        1.94567092      -1.37855832      -0.62022069
H        0.04161804       2.27092943       0.32903289
10
Frame=8 idx=000364 GeodesicLength=1.3341544435614927 rxn_smarts="[N:1]([c:2]1[n:3][c:4]([H:9])[n:5][n:6]1[H:10])([H:7])[H:8]>>[C:4](#[N:5])[H:9].[N:1]([N:3]=[C:2]=[N:6][H:10])([H:7])[H:8]"
N       -1.36451590      -0.67688535      -0.43564707
C       -0.47053917       0.31869981       0.78824198
N        0.09949677      -0.86650329       0.57818415
C        1.60299869      -0.52830168      -0.07477616
N        1.77449062       0.71120434      -0.26320037
N        0.30502042       1.31280144       0.35627702
H       -1.90474781       0.13208835      -0.72091459
H       -1.99012554      -1.28632565       0.07556712
H        1.93315384      -1.39188261      -0.62899496
H        0.01476810       2.27510462       0.32526289
10
Frame=9 idx=000364 GeodesicLength=1.500596544934424 rxn_smarts="[N:1]([c:2]1[n:3][c:4]([H:9])[n:5][n:6]1[H:10])([H:7])[H:8]>>[C:4](#[N:5])[H:9].[N:1]([N:3]=[C:2]=[N:6][H:10])([H:7])[H:8]"
N       -1.37363459      -0.66890032      -0.42816724
C       -0.46824889       0.32261632       0.77687996
N        0.08907653      -0.86203482       0.58217666
C        1.63976267      -0.52832838      -0.07421598
N        1.82442836       0.70533494      -0.26136130
N        0.30129684       1.32441911       0.36943867
H       -1.92829737       0.12815384      -0.71813107
H       -1.99317320      -1.29615078       0.06815421
H        1.92084678      -1.40422116      -0.63665992
H       -0.01205712       2.27911125       0.32188601
10
Frame=10 idx=000364 GeodesicLength=1.666846405606031 rxn_smarts="[N:1]([c:2]1[n:3][c:4]([H:9])[n:5][n:6]1[H:10])([H:7])[H:8]>>[C:4](#[N:5])[H:9].[N:1]([N:3]=[C:2]=[N:6][H:10])([H:7])[H:8]"
N       -1.38350687      -0.66079693      -0.42038558
C       -0.46590709       0.32674837       0.76483704
N        0.07805447      -0.85747868       0.58627829
C        1.67725468      -0.52878677      -0.07487446
N        1.87660173       0.69870469      -0.25969396
N        0.29663814       1.33652749       0.38260804
H       -1.95265701       0.12390102      -0.71484820
H       -1.99625912      -1.30617667       0.06034728
H        1.90873438      -1.41567842      -0.64326305
H       -0.03895331       2.28303590       0.31899460
10
Frame=11 idx=000364 GeodesicLength=1.833139042696483 rxn_smarts="[N:1]([c:2]1[n:3][c:4]([H:9])[n:5][n:6]1[H:10])([H:7])[H:8]>>[C:4](#[N:5])[H:9].[N:1]([N:3]=[C:2]=[N:6][H:10])([H:7])[H:8]"
N       -1.39412679      -0.65261875      -0.41225625
C       -0.46351379       0.33112427       0.75205823
N        0.06639864      -0.85281541       0.59062521
C        1.71556278      -0.52970631      -0.07671103
N        1.93132342       0.69096539      -0.25810987
N        0.29095938       1.34920323       0.39584855
H       -1.97778362       0.11927378      -0.71109715
H       -1.99935699      -1.31641910       0.05212016
H        1.89662712      -1.42601584      -0.64899747
H       -0.06609014       2.28700872       0.31651962
10
Frame=12 idx=000364 GeodesicLength=1.9993122125922524 rxn_smarts="[N:1]([c:2]1[n:3][c:4]([H:9])[n:5][n:6]1[H:10])([H:7])[H:8]>>[C:4](#[N:5])[H:9].[N:1]([N:3]=[C:2]=[N:6][H:10])([H:7])[H:8]"
N       -1.40549135      -0.64433673      -0.40376628
C       -0.46108499       0.33574846       0.73848236
N        0.05405042      -0.84800763       0.59530998
C        1.75476732      -0.53110884      -0.07972901
N        1.98856356       0.68221105      -0.25717311
N        0.28417986       1.36247896       0.40939677
H       -2.00359363       0.11431183      -0.70693900
H       -2.00245700      -1.32684155       0.04334785
H        1.88466576      -1.43552183      -0.65362479
H       -0.09359996       2.29106627       0.31469522
10
Frame=13 idx=000364 GeodesicLength=2.165632647881524 rxn_smarts="[N:1]([c:2]1[n:3][c:4]([H:9])[n:5][n:6]1[H:10])([H:7])[H:8]>>[C:4](#[N:5])[H:9].[N:1]([N:3]=[C:2]=[N:6][H:10])([H:7])[H:8]"
N       -1.41760379      -0.63598975      -0.39486068
C       -0.45859944       0.34064832       0.72400231
N        0.04096287      -0.84300632       0.60047525
C        1.79495399      -0.53302915      -0.08391972
N        2.04875422       0.67200818      -0.25682476
N        0.27618080       1.37643630       0.42335299
H       -2.03006364       0.10894395      -0.70238281
H       -2.00551192      -1.33746300       0.03398721
H        1.87262230      -1.44385664      -0.65727992
H       -0.12169538       2.29530810       0.31345013
10
Frame=14 idx=000364 GeodesicLength=2.3319716641042643 rxn_smarts="[N:1]([c:2]1[n:3][c:4]([H:9])[n:5][n:6]1[H:10])([H:7])[H:8]>>[C:4](#[N:5])[H:9].[N:1]([N:3]=[C:2]=[N:6][H:10])([H:7])[H:8]"
N       -1.43045493      -0.62753487      -0.38555023
C       -0.45606248       0.34582913       0.70852910
N        0.02706159      -0.83776315       0.60623815
C        1.83620647      -0.53547161      -0.08931466
N        2.11185401       0.66039156      -0.25796863
N        0.26682498       1.39113546       0.43810587
H       -2.05708615       0.10323778      -0.69754852
H       -2.00849341      -1.34823538       0.02384737
H        1.86070861      -1.45137732      -0.65949121
H       -0.15055870       2.29978841       0.31315276
10
Frame=15 idx=000364 GeodesicLength=2.498400930835337 rxn_smarts="[N:1]([c:2]1[n:3][c:4]([H:9])[n:5][n:6]1[H:10])([H:7])[H:8]>>[C:4](#[N:5])[H:9].[N:1]([N:3]=[C:2]=[N:6][H:10])([H:7])[H:8]"
N       -1.44404623      -0.61897037      -0.37580811
C       -0.45344210       0.35131961       0.69189413
N        0.01226025      -0.83219180       0.61275614
C        1.87861145      -0.53846036      -0.09592198
N        2.17817863       0.64708718      -0.26105066
N        0.25593217       1.40664749       0.45393963
H       -2.08461433       0.09716849      -0.69249471
H       -2.01133084      -1.35915034       0.01278797
H        1.84886671      -1.45801809      -0.66005966
H       -0.18041570       2.30456819       0.31395725
10
Frame=16 idx=000364 GeodesicLength=2.6648242275894902 rxn_smarts="[N:1]([c:2]1[n:3][c:4]([H:9])[n:5][n:6]1[H:10])([H:7])[H:8]>>[C:4](#[N:5])[H:9].[N:1]([N:3]=[C:2]=[N:6][H:10])([H:7])[H:8]"
N       -1.45836146      -0.61023987      -0.36567797
C       -0.45071011       0.35713683       0.67392513
N       -0.00355142      -0.82620841       0.62019311
C        1.92225903      -0.54196880      -0.10378864
N        2.24769891       0.63202887      -0.26738939
N        0.24326364       1.42303824       0.47144385
H       -2.11250951       0.09081914      -0.68743963
H       -2.01396530      -1.37012930       0.00053487
H        1.83738314      -1.46419401      -0.65820622
H       -0.21150692       2.30971731       0.31640490
