14
Frame=0 idx=003982 GeodesicLength=0.0 rxn_smarts="[C:1]([O:2][C:3]([C:4]([C:5](=[O:6])[H:14])([H:12])[H:13])([H:10])[H:11])([H:7])([H:8])[H:9]>>[C:1]([O:2][C:3](/[C:4](=[C:5](/[O:6][H:13])[H:14])[H:12])([H:10])[H:11])([H:7])([H:8])[H:9]"
C        2.14455748       0.49376295      -0.63544052
O        0.77404098       0.20039848      -0.66656639
C        0.30891382      -0.35205935       0.54502060
C       -1.16610648      -0.57859918       0.43017372
C       -2.05412577       0.40544303      -0.05078614
O       -3.06773300      -0.14138865      -0.59137605
H        2.41433420       0.90895294      -1.60556351
H        2.74461872      -0.40817239      -0.45622566
H        2.38149008       1.22865952       0.14577439
H        0.56083508       0.33285875       1.37251724
H        0.81636880      -1.30447736       0.75378775
H       -1.62127675      -1.15750606       1.23475920
H       -2.27216088      -1.12116068      -0.41924146
H       -1.96375632       1.49328805      -0.05683322
14
Frame=1 idx=003982 GeodesicLength=0.040587804657550304 rxn_smarts="[C:1]([O:2][C:3]([C:4]([C:5](=[O:6])[H:14])([H:12])[H:13])([H:10])[H:11])([H:7])([H:8])[H:9]>>[C:1]([O:2][C:3](/[C:4](=[C:5](/[O:6][H:13])[H:14])[H:12])([H:10])[H:11])([H:7])([H:8])[H:9]"
C        2.13931992       0.49863616      -0.63381967
O        0.76866891       0.20535014      -0.66335539
C        0.30704725      -0.35580287       0.54504430
C       -1.16887233      -0.58146270       0.43552484
C       -2.05446401       0.40792823      -0.04079995
O       -3.06770690      -0.13453264      -0.58853812
H        2.40644812       0.92126995      -1.60143717
H        2.73986371      -0.40454953      -0.46276127
H        2.37838454       1.22777492       0.15209681
H        0.56059656       0.32198321       1.37780520
H        0.81547826      -1.30976931       0.74457796
H       -1.61926345      -1.15620574       1.24567069
H       -2.27598412      -1.13144470      -0.41353811
H       -1.92951646       1.49082488      -0.09647011
14
Frame=2 idx=003982 GeodesicLength=0.0811676613776455 rxn_smarts="[C:1]([O:2][C:3]([C:4]([C:5](=[O:6])[H:14])([H:12])[H:13])([H:10])[H:11])([H:7])([H:8])[H:9]>>[C:1]([O:2][C:3](/[C:4](=[C:5](/[O:6][H:13])[H:14])[H:12])([H:10])[H:11])([H:7])([H:8])[H:9]"
C        2.13439509       0.50330193      -0.63221870
O        0.76358070       0.21025682      -0.66032084
C        0.30517707      -0.35923692       0.54486470
C       -1.17165762      -0.58381419       0.44059187
C       -2.05449895       0.41096049      -0.03177690
O       -3.06760302      -0.12758017      -0.58584129
H        2.39907313       0.93321107      -1.59727672
H        2.73523951      -0.40114013      -0.46911998
H        2.37560383       1.22672039       0.15828035
H        0.56038129       0.31148815       1.38272416
H        0.81435733      -1.31472969       0.73539623
H       -1.61731133      -1.15398562       1.25647699
H       -2.27966327      -1.14164845      -0.40800465
H       -1.89707376       1.48619633      -0.13377522
14
Frame=3 idx=003982 GeodesicLength=0.12173611904545326 rxn_smarts="[C:1]([O:2][C:3]([C:4]([C:5](=[O:6])[H:14])([H:12])[H:13])([H:10])[H:11])([H:7])([H:8])[H:9]>>[C:1]([O:2][C:3](/[C:4](=[C:5](/[O:6][H:13])[H:14])[H:12])([H:10])[H:11])([H:7])([H:8])[H:9]"
C        2.12976001       0.50777385      -0.63063537
O        0.75876431       0.21508018      -0.65746930
C        0.30330957      -0.36240933       0.54448802
C       -1.17444955      -0.58574267       0.44536788
C       -2.05422174       0.41445393      -0.02367332
O       -3.06744160      -0.12054919      -0.58326232
H        2.39219000       0.94472011      -1.59311707
H        2.73077185      -0.39789162      -0.47521458
H        2.37306496       1.22558749       0.16428261
H        0.56017783       0.30133715       1.38728583
H        0.81304173      -1.31939966       0.72625381
H       -1.61539588      -1.15097551       1.26713525
H       -2.28321884      -1.15182367      -0.40264447
H       -1.86635265       1.47983894      -0.16879697
14
Frame=4 idx=003982 GeodesicLength=0.16232649348432562 rxn_smarts="[C:1]([O:2][C:3]([C:4]([C:5](=[O:6])[H:14])([H:12])[H:13])([H:10])[H:11])([H:7])([H:8])[H:9]>>[C:1]([O:2][C:3](/[C:4](=[C:5](/[O:6][H:13])[H:14])[H:12])([H:10])[H:11])([H:7])([H:8])[H:9]"
C        2.12538768       0.51209690      -0.62905522
O        0.75419988       0.21982818      -0.65478550
C        0.30144586      -0.36538865       0.54391708
C       -1.17725250      -0.58730468       0.44989372
C       -2.05363674       0.41834076      -0.01645516
O       -3.06723997      -0.11348554      -0.58077831
H        2.38574071       0.95594935      -1.58891514
H        2.72645511      -0.39477174      -0.48112418
H        2.37073806       1.22435934       0.17018535
H        0.56000197       0.29140804       1.39154035
H        0.81153978      -1.32386957       0.71707663
H       -1.61350893      -1.14717885       1.27773059
H       -2.28671028      -1.16205509      -0.39732980
H       -1.83716063       1.47207155      -0.20190041
14
Frame=5 idx=003982 GeodesicLength=0.20292773054464713 rxn_smarts="[C:1]([O:2][C:3]([C:4]([C:5](=[O:6])[H:14])([H:12])[H:13])([H:10])[H:11])([H:7])([H:8])[H:9]>>[C:1]([O:2][C:3](/[C:4](=[C:5](/[O:6][H:13])[H:14])[H:12])([H:10])[H:11])([H:7])([H:8])[H:9]"
C        2.12125548       0.51630546      -0.62745370
O        0.74986289       0.22454388      -0.65223221
C        0.29958616      -0.36821151       0.54315379
C       -1.18007005      -0.58852255       0.45421582
C       -2.05276692       0.42256077      -0.01007070
O       -3.06702210      -0.10644111      -0.57834049
H        2.37966537       0.96707524      -1.58458453
H        2.72225538      -0.39177553      -0.48698099
H        2.36864847       1.22294738       0.17609806
H        0.55987813       0.28159488       1.39552684
H        0.80985541      -1.32818618       0.70778076
H       -1.61163120      -1.14257847       1.28832546
H       -2.29017591      -1.17239944      -0.39192792
H       -1.80934111       1.46308716      -0.23351020
14
Frame=6 idx=003982 GeodesicLength=0.24358107276061758 rxn_smarts="[C:1]([O:2][C:3]([C:4]([C:5](=[O:6])[H:14])([H:12])[H:13])([H:10])[H:11])([H:7])([H:8])[H:9]>>[C:1]([O:2][C:3](/[C:4](=[C:5](/[O:6][H:13])[H:14])[H:12])([H:10])[H:11])([H:7])([H:8])[H:9]"
C        2.11733185       0.52043423      -0.62582073
O        0.74573362       0.22921022      -0.64980847
C        0.29773097      -0.37093630       0.54219976
C       -1.18290588      -0.58943145       0.45837121
C       -2.05161783       0.42708652      -0.00446714
O       -3.06678019      -0.09941840      -0.57596746
H        2.37390861       0.97818858      -1.58010175
H        2.71817177      -0.38885937      -0.49280679
H        2.36674250       1.22137299       0.18205975
H        0.55983077       0.27180217       1.39927879
H        0.80798611      -1.33242726       0.69831049
H       -1.60974993      -1.13718406       1.29897804
H       -2.29366177      -1.18289998      -0.38634383
H       -1.78272060       1.45306210      -0.26388188
14
Frame=7 idx=003982 GeodesicLength=0.28428085026989136 rxn_smarts="[C:1]([O:2][C:3]([C:4]([C:5](=[O:6])[H:14])([H:12])[H:13])([H:10])[H:11])([H:7])([H:8])[H:9]>>[C:1]([O:2][C:3](/[C:4](=[C:5](/[O:6][H:13])[H:14])[H:12])([H:10])[H:11])([H:7])([H:8])[H:9]"
C        2.11360854       0.52451104      -0.62413434
O        0.74180085       0.23386068      -0.64749108
C        0.29587902      -0.37358917       0.54104934
C       -1.18576582      -0.59003900       0.46239321
C       -2.05021057       0.43188657       0.00039467
O       -3.06654331      -0.09244649      -0.57360662
H        2.36844243       0.98941849      -1.57539477
H        2.71418830      -0.38601305      -0.49868900
H        2.36504235       1.21957298       0.18815216
H        0.55988086       0.26194486       1.40281906
H        0.80592638      -1.33663010       0.68858844
H       -1.60784979      -1.13097179       1.30973150
H       -2.29720194      -1.19358893      -0.38046837
H       -1.75719728       1.44208390      -0.29334419
14
Frame=8 idx=003982 GeodesicLength=0.32505797536584674 rxn_smarts="[C:1]([O:2][C:3]([C:4]([C:5](=[O:6])[H:14])([H:12])[H:13])([H:10])[H:11])([H:7])([H:8])[H:9]>>[C:1]([O:2][C:3](/[C:4](=[C:5](/[O:6][H:13])[H:14])[H:12])([H:10])[H:11])([H:7])([H:8])[H:9]"
C        2.11007808       0.52856659      -0.62237545
O        0.73805324       0.23853302      -0.64526366
C        0.29403035      -0.37619849       0.53970144
C       -1.18865504      -0.59034895       0.46631631
C       -2.04855857       0.43694398       0.00453236
O       -3.06634174      -0.08555145      -0.57122180
H        2.36323737       1.00090646      -1.57039936
H        2.71028123      -0.38323371      -0.50471871
H        2.36358127       1.21749020       0.19446324
H        0.56006044       0.25193936       1.40618513
H        0.80366110      -1.34084646       0.67854359
H       -1.60591305      -1.12390865       1.32064375
H       -2.30083919      -1.20450584      -0.37419181
H       -1.73267549       1.43021394      -0.32221502
14
Frame=9 idx=003982 GeodesicLength=0.3659132755757699 rxn_smarts="[C:1]([O:2][C:3]([C:4]([C:5](=[O:6])[H:14])([H:12])[H:13])([H:10])[H:11])([H:7])([H:8])[H:9]>>[C:1]([O:2][C:3](/[C:4](=[C:5](/[O:6][H:13])[H:14])[H:12])([H:10])[H:11])([H:7])([H:8])[H:9]"
C        2.10670569       0.53261286      -0.62053941
O        0.73447977       0.24318815      -0.64312621
C        0.29217846      -0.37879977       0.53814500
C       -1.19157227      -0.59036797       0.47016350
C       -2.04665306       0.44224577       0.00796418
O       -3.06609257      -0.07872426      -0.56892647
H        2.35824406       1.01268749      -1.56508339
H        2.70645363      -0.38047427      -0.51090950
H        2.36227592       1.21512751       0.20099628
H        0.56035772       0.24172610       1.40936392
H        0.80118198      -1.34510644       0.66812241
H       -1.60393151      -1.11594097       1.33175559
H       -2.30458403      -1.21566982      -0.36740868
H       -1.70904379       1.41749560      -0.35051722
14
Frame=10 idx=003982 GeodesicLength=0.4067775653825924 rxn_smarts="[C:1]([O:2][C:3]([C:4]([C:5](=[O:6])[H:14])([H:12])[H:13])([H:10])[H:11])([H:7])([H:8])[H:9]>>[C:1]([O:2][C:3](/[C:4](=[C:5](/[O:6][H:13])[H:14])[H:12])([H:10])[H:11])([H:7])([H:8])[H:9]"
C        2.10351469       0.53664814      -0.61860855
O        0.73108404       0.24785203      -0.64105876
C        0.29032428      -0.38136735       0.53638786
C       -1.19451934      -0.59011037       0.47391791
C       -2.04453192       0.44777004       0.01080774
O       -3.06593477      -0.07194309      -0.56646177
H        2.35350293       1.02468455      -1.55944326
H        2.70271834      -0.37771792      -0.51719113
H        2.36115865       1.21250985       0.20772159
H        0.56077258       0.23133093       1.41234244
H        0.79849474      -1.34936089       0.65735655
H       -1.60188319      -1.10723509       1.34291997
H       -2.30840605      -1.22700662      -0.36023124
H       -1.68629498       1.40394578      -0.37845934
14
Frame=11 idx=003982 GeodesicLength=0.4477341239613668 rxn_smarts="[C:1]([O:2][C:3]([C:4]([C:5](=[O:6])[H:14])([H:12])[H:13])([H:10])[H:11])([H:7])([H:8])[H:9]>>[C:1]([O:2][C:3](/[C:4](=[C:5](/[O:6][H:13])[H:14])[H:12])([H:10])[H:11])([H:7])([H:8])[H:9]"
C        2.10047565       0.54068413      -0.61659367
O        0.72784692       0.25250862      -0.63907476
C        0.28846577      -0.38393158       0.53443790
C       -1.19749458      -0.58959194       0.47760439
C       -2.04219056       0.45352112       0.01304499
O       -3.06577920      -0.06520844      -0.56401620
H        2.34896572       1.03693006      -1.55349576
H        2.69906140      -0.37495774      -0.52358172
H        2.36018745       1.20965959       0.21464564
H        0.56131443       0.22072290       1.41514803
H        0.79559360      -1.35366022       0.64623358
H       -1.59975709      -1.09776201       1.35420483
H       -2.31232698      -1.23857605      -0.35257806
H       -1.66436252       1.38966156      -0.40597919
14
Frame=12 idx=003982 GeodesicLength=0.48875096213561464 rxn_smarts="[C:1]([O:2][C:3]([C:4]([C:5](=[O:6])[H:14])([H:12])[H:13])([H:10])[H:11])([H:7])([H:8])[H:9]>>[C:1]([O:2][C:3](/[C:4](=[C:5](/[O:6][H:13])[H:14])[H:12])([H:10])[H:11])([H:7])([H:8])[H:9]"
C        2.09759257       0.54471164      -0.61449399
O        0.72476501       0.25718180      -0.63716169
C        0.28659678      -0.38646890       0.53230353
C       -1.20049631      -0.58881966       0.48121911
C       -2.03965467       0.45947930       0.01473810
O       -3.06565327      -0.05851477      -0.56153202
H        2.34464803       1.04939300      -1.54723642
H        2.69547460      -0.37220274      -0.53007839
H        2.35937836       1.20655916       0.22175698
H        0.56195819       0.20993311       1.41777487
H        0.79248575      -1.35796324       0.63477834
H       -1.59753804      -1.08759775       1.36554232
H       -2.31630885      -1.25035731      -0.34448467
H       -1.64324816       1.37466635      -0.43312608
14
Frame=13 idx=003982 GeodesicLength=0.529805839684176 rxn_smarts="[C:1]([O:2][C:3]([C:4]([C:5](=[O:6])[H:14])([H:12])[H:13])([H:10])[H:11])([H:7])([H:8])[H:9]>>[C:1]([O:2][C:3](/[C:4](=[C:5](/[O:6][H:13])[H:14])[H:12])([H:10])[H:11])([H:7])([H:8])[H:9]"
C        2.09485195       0.54871349      -0.61232601
O        0.72182224       0.26186597      -0.63531522
C        0.28471079      -0.38895950       0.53000350
C       -1.20352271      -0.58781363       0.48475922
C       -2.03694774       0.46562515       0.01595190
O       -3.06551310      -0.05185019      -0.55908185
H        2.34054419       1.06197785      -1.54071089
H        2.69194964      -0.36945328      -0.53663644
H        2.35870933       1.20324186       0.22898990
H        0.56267376       0.19901877       1.42021315
H        0.78918476      -1.36222726       0.62305213
H       -1.59522155      -1.07684209       1.37686540
H       -2.32030531      -1.26234219      -0.33600629
H       -1.62293626       1.35904504      -0.45975851
14
Frame=14 idx=003982 GeodesicLength=0.5708839225390636 rxn_smarts="[C:1]([O:2][C:3]([C:4]([C:5](=[O:6])[H:14])([H:12])[H:13])([H:10])[H:11])([H:7])([H:8])[H:9]>>[C:1]([O:2][C:3](/[C:4](=[C:5](/[O:6][H:13])[H:14])[H:12])([H:10])[H:11])([H:7])([H:8])[H:9]"
C        2.09224362       0.55267461      -0.61010342
O        0.71900307       0.26656686      -0.63352986
C        0.28280254      -0.39138273       0.52755596
C       -1.20657158      -0.58659191       0.48822097
C       -2.03409212       0.47194153       0.01674256
O       -3.06533256      -0.04520885      -0.55671272
H        2.33665186       1.07460747      -1.53395887
H        2.68847375      -0.36671861      -0.54322343
H        2.35817421       1.19972995       0.23629597
H        0.56343686       0.18803388       1.42246090
H        0.78570311      -1.36641490       0.61110989
H       -1.59280054      -1.06558959       1.38811528
H       -2.32427479      -1.27452863      -0.32719574
H       -1.60341743       1.34288093      -0.48577748
14
Frame=15 idx=003982 GeodesicLength=0.6119711776554706 rxn_smarts="[C:1]([O:2][C:3]([C:4]([C:5](=[O:6])[H:14])([H:12])[H:13])([H:10])[H:11])([H:7])([H:8])[H:9]>>[C:1]([O:2][C:3](/[C:4](=[C:5](/[O:6][H:13])[H:14])[H:12])([H:10])[H:11])([H:7])([H:8])[H:9]"
C        2.08975417       0.55657847      -0.60784452
O        0.71629011       0.27128541      -0.63180074
C        0.28086615      -0.39371944       0.52498273
C       -1.20964170      -0.58517440       0.49160273
C       -2.03111109       0.47841094       0.01716761
O       -3.06507331      -0.03858629      -0.55449107
H        2.33296443       1.08719908      -1.52703106
H        2.68503438      -0.36400968      -0.54980696
H        2.35775923       1.19605120       0.24361960
H        0.56421831       0.17703646       1.42451875
H        0.78205597      -1.37049073       0.59901419
H       -1.59027515      -1.05393666       1.39923831
H       -2.32816689      -1.28691846      -0.31811262
H       -1.58467460       1.32627409      -0.51105695
14
Frame=16 idx=003982 GeodesicLength=0.6530539825342183 rxn_smarts="[C:1]([O:2][C:3]([C:4]([C:5](=[O:6])[H:14])([H:12])[H:13])([H:10])[H:11])([H:7])([H:8])[H:9]>>[C:1]([O:2][C:3](/[C:4](=[C:5](/[O:6][H:13])[H:14])[H:12])([H:10])[H:11])([H:7])([H:8])[H:9]"
C        2.08737017       0.56040793      -0.60556825
O        0.71366400       0.27603003      -0.63011850
C        0.27889549      -0.39594753       0.52230820
C       -1.21273286      -0.58357820       0.49490548
C       -2.02802974       0.48501431       0.01727812
O       -3.06469604      -0.03198944      -0.55248957
H        2.32947179       1.09968439      -1.51997351
H        2.68161087      -0.36134577      -0.55637481
H        2.35746420       1.19221705       0.25091420
H        0.56499009       0.16608695       1.42639191
H        0.77825832      -1.37441779       0.58682822
H       -1.58764918      -1.04197104       1.41018998
H       -2.33192747      -1.29952180      -0.30881359
H       -1.56668963       1.30933090      -0.53547789
