10
Frame=0 idx=007946 GeodesicLength=0.0 rxn_smarts="[O:1]([c:2]1[c:3]([H:9])[n:4][n:5][c:6]([H:10])[n:7]1)[H:8]>>[O:1]=[C:2]1[C:3]([H:8])([H:9])[N:4]=[N:5][C:6]([H:10])=[N:7]1"
O        2.00208717      -0.65812040       0.05637769
C        0.83479050      -0.34934610      -0.30477315
C        0.47606216       0.97694208       0.15552906
N       -0.78396978       1.11068608       0.67158124
N       -1.61026505       0.14118149       0.56345640
C       -1.27195563      -0.90925530      -0.27274269
N       -0.10335868      -1.17286757      -0.77790517
H        1.65549222       0.52014199       0.70937491
H        0.91156496       1.88316923      -0.25755480
H       -2.11044787      -1.54253150      -0.54334350
10
Frame=1 idx=007946 GeodesicLength=0.05175227507056468 rxn_smarts="[O:1]([c:2]1[c:3]([H:9])[n:4][n:5][c:6]([H:10])[n:7]1)[H:8]>>[O:1]=[C:2]1[C:3]([H:8])([H:9])[N:4]=[N:5][C:6]([H:10])=[N:7]1"
O        2.00743827      -0.65002401       0.03048016
C        0.83623531      -0.34116630      -0.32033747
C        0.47795153       0.97689688       0.16305764
N       -0.78838577       1.11705423       0.66344762
N       -1.62295601       0.15722327       0.53845357
C       -1.27432663      -0.90828062      -0.27254071
N       -0.10428803      -1.17550557      -0.77119782
H        1.65995845       0.49943641       0.73689459
H        0.91422154       1.88426496      -0.24753109
H       -2.10584867      -1.55989927      -0.52072648
10
Frame=2 idx=007946 GeodesicLength=0.10346288208038384 rxn_smarts="[O:1]([c:2]1[c:3]([H:9])[n:4][n:5][c:6]([H:10])[n:7]1)[H:8]>>[O:1]=[C:2]1[C:3]([H:8])([H:9])[N:4]=[N:5][C:6]([H:10])=[N:7]1"
O        2.01265351      -0.64098722       0.00455363
C        0.83760692      -0.33255628      -0.33640941
C        0.47965985       0.97660974       0.17087860
N       -0.79251029       1.12275924       0.65644180
N       -1.63603161       0.17420930       0.51076192
C       -1.27642472      -0.90767866      -0.27172302
N       -0.10474316      -1.17854222      -0.76337760
H        1.66448015       0.47720205       0.76338171
H        0.91617277       1.88544896      -0.23705401
H       -2.10086342      -1.57646491      -0.49745362
10
Frame=3 idx=007946 GeodesicLength=0.15515240903615019 rxn_smarts="[O:1]([c:2]1[c:3]([H:9])[n:4][n:5][c:6]([H:10])[n:7]1)[H:8]>>[O:1]=[C:2]1[C:3]([H:8])([H:9])[N:4]=[N:5][C:6]([H:10])=[N:7]1"
O        2.01768986      -0.63108357      -0.02151825
C        0.83885638      -0.32345513      -0.35302818
C        0.48120283       0.97606263       0.17913673
N       -0.79639101       1.12766268       0.65076393
N       -1.64958027       0.19254102       0.47937641
C       -1.27824746      -0.90738672      -0.27032754
N       -0.10474407      -1.18174730      -0.75468069
H        1.66913891       0.45328827       0.78880951
H        0.91746071       1.88677847      -0.22579986
H       -2.09538588      -1.59266035      -0.47273206
10
Frame=4 idx=007946 GeodesicLength=0.2069315640724939 rxn_smarts="[O:1]([c:2]1[c:3]([H:9])[n:4][n:5][c:6]([H:10])[n:7]1)[H:8]>>[O:1]=[C:2]1[C:3]([H:8])([H:9])[N:4]=[N:5][C:6]([H:10])=[N:7]1"
O        2.02244749      -0.62046204      -0.04809160
C        0.83990385      -0.31364461      -0.37049628
C        0.48261321       0.97523567       0.18817472
N       -0.80022324       1.13165053       0.64643067
N       -1.66384730       0.21309258       0.44217387
C       -1.27991766      -0.90705957      -0.26897692
N       -0.10442284      -1.18458685      -0.74597117
H        1.67378892       0.42705498       0.81340348
H        0.91843987       1.88843697      -0.21271045
H       -2.08878230      -1.60971766      -0.44393633
10
Frame=5 idx=007946 GeodesicLength=0.2584115534024968 rxn_smarts="[O:1]([c:2]1[c:3]([H:9])[n:4][n:5][c:6]([H:10])[n:7]1)[H:8]>>[O:1]=[C:2]1[C:3]([H:8])([H:9])[N:4]=[N:5][C:6]([H:10])=[N:7]1"
O        2.02699438      -0.60865364      -0.07474031
C        0.84074478      -0.30340341      -0.38827367
C        0.48367819       0.97392901       0.19768318
N       -0.80411294       1.13425984       0.64347204
N       -1.67751847       0.23447177       0.40115701
C       -1.28123479      -0.90689527      -0.26703890
N       -0.10341830      -1.18785552      -0.73558174
H        1.67876903       0.39932695       0.83655395
H        0.91819099       1.88996222      -0.19908468
H       -2.08209288      -1.62514194      -0.41414688
10
Frame=6 idx=007946 GeodesicLength=0.3098574666738361 rxn_smarts="[O:1]([c:2]1[c:3]([H:9])[n:4][n:5][c:6]([H:10])[n:7]1)[H:8]>>[O:1]=[C:2]1[C:3]([H:8])([H:9])[N:4]=[N:5][C:6]([H:10])=[N:7]1"
O        2.03115709      -0.59631278      -0.10094262
C        0.84136588      -0.29266365      -0.40639291
C        0.48435217       0.97227267       0.20770130
N       -0.80861923       1.13590283       0.64060183
N       -1.68997488       0.25588692       0.35742627
C       -1.28281995      -0.90559319      -0.26732802
N       -0.10189903      -1.19093368      -0.72481887
H        1.68367664       0.36976744       0.85868028
H        0.91723845       1.89160240      -0.18437415
H       -2.07447714      -1.63992896      -0.38055313
10
Frame=7 idx=007946 GeodesicLength=0.3609861777985349 rxn_smarts="[O:1]([c:2]1[c:3]([H:9])[n:4][n:5][c:6]([H:10])[n:7]1)[H:8]>>[O:1]=[C:2]1[C:3]([H:8])([H:9])[N:4]=[N:5][C:6]([H:10])=[N:7]1"
O        2.03480986      -0.58348554      -0.12470894
C        0.84190325      -0.28216021      -0.42366539
C        0.48458253       0.97046343       0.21695281
N       -0.81355836       1.13733612       0.63682153
N       -1.69956697       0.27357820       0.31932687
C       -1.28473107      -0.90311994      -0.27020837
N       -0.09956565      -1.19453054      -0.71217488
H        1.68879587       0.34042808       0.87947755
H        0.91496257       1.89269184      -0.17208045
H       -2.06763204      -1.65120144      -0.34974074
10
Frame=8 idx=007946 GeodesicLength=0.41198832885567405 rxn_smarts="[O:1]([c:2]1[c:3]([H:9])[n:4][n:5][c:6]([H:10])[n:7]1)[H:8]>>[O:1]=[C:2]1[C:3]([H:8])([H:9])[N:4]=[N:5][C:6]([H:10])=[N:7]1"
O        2.03825232      -0.57069980      -0.14593356
C        0.84237298      -0.27224474      -0.43956541
C        0.48442543       0.96872433       0.22517536
N       -0.81859735       1.13871360       0.63257589
N       -1.70687828       0.28757098       0.28772967
C       -1.28654328      -0.90062794      -0.27345456
N       -0.09663140      -1.19851117      -0.69735289
H        1.69477868       0.31215871       0.89867014
H        0.91108470       1.89345409      -0.16308705
H       -2.06226380      -1.65853805      -0.32475758
10
Frame=9 idx=007946 GeodesicLength=0.4630291442259292 rxn_smarts="[O:1]([c:2]1[c:3]([H:9])[n:4][n:5][c:6]([H:10])[n:7]1)[H:8]>>[O:1]=[C:2]1[C:3]([H:8])([H:9])[N:4]=[N:5][C:6]([H:10])=[N:7]1"
O        2.04142857      -0.55807943      -0.16497745
C        0.84282195      -0.26278313      -0.45444837
C        0.48409723       0.96720367       0.23255731
N       -0.82362483       1.14026603       0.62811439
N       -1.71283292       0.29897803       0.26099115
C       -1.28832638      -0.89830370      -0.27686377
N       -0.09327216      -1.20236074      -0.68151166
H        1.70149374       0.28460899       0.91673017
H        0.90628151       1.89407797      -0.15663078
H       -2.05806669      -1.66360768      -0.30396099
10
Frame=10 idx=007946 GeodesicLength=0.5140093620535349 rxn_smarts="[O:1]([c:2]1[c:3]([H:9])[n:4][n:5][c:6]([H:10])[n:7]1)[H:8]>>[O:1]=[C:2]1[C:3]([H:8])([H:9])[N:4]=[N:5][C:6]([H:10])=[N:7]1"
O        2.04411587      -0.54578590      -0.18198837
C        0.84315793      -0.25357398      -0.46856843
C        0.48361492       0.96588122       0.23920897
N       -0.82859989       1.14196947       0.62337425
N       -1.71780119       0.30852758       0.23772162
C       -1.28987129      -0.89608195      -0.28032490
N       -0.08986385      -1.20546035      -0.66575849
H        1.70860639       0.25724008       0.93403257
H        0.90085220       1.89459370      -0.15207358
H       -2.05421108      -1.66730987      -0.28562364
10
Frame=11 idx=007946 GeodesicLength=0.5650059916503181 rxn_smarts="[O:1]([c:2]1[c:3]([H:9])[n:4][n:5][c:6]([H:10])[n:7]1)[H:8]>>[O:1]=[C:2]1[C:3]([H:8])([H:9])[N:4]=[N:5][C:6]([H:10])=[N:7]1"
O        2.04639996      -0.53392161      -0.19719334
C        0.84341418      -0.24454304      -0.48203953
C        0.48300310       0.96480897       0.24523557
N       -0.83353588       1.14386557       0.61840482
N       -1.72211575       0.31670649       0.21702338
C       -1.29121783      -0.89402985      -0.28367237
N       -0.08642149      -1.20766456      -0.65059682
H        1.71605260       0.22979891       0.95074161
H        0.89494353       1.89514560      -0.14899121
H       -2.05052242      -1.67016648      -0.26891212
10
Frame=12 idx=007946 GeodesicLength=0.6159320959126906 rxn_smarts="[O:1]([c:2]1[c:3]([H:9])[n:4][n:5][c:6]([H:10])[n:7]1)[H:8]>>[O:1]=[C:2]1[C:3]([H:8])([H:9])[N:4]=[N:5][C:6]([H:10])=[N:7]1"
O        2.04816663      -0.52249841      -0.21069183
C        0.84361398      -0.23552763      -0.49509512
C        0.48227288       0.96398144       0.25070783
N       -0.83846019       1.14600802       0.61306690
N       -1.72596524       0.32389719       0.19811044
C       -1.29233233      -0.89209439      -0.28700355
N       -0.08310375      -1.20867053      -0.63681572
H        1.72346140       0.20187662       0.96714610
H        0.88883354       1.89573626      -0.14691246
H       -2.04648693      -1.67270858      -0.25251259
10
Frame=13 idx=007946 GeodesicLength=0.6668036604141873 rxn_smarts="[O:1]([c:2]1[c:3]([H:9])[n:4][n:5][c:6]([H:10])[n:7]1)[H:8]>>[O:1]=[C:2]1[C:3]([H:8])([H:9])[N:4]=[N:5][C:6]([H:10])=[N:7]1"
O        2.04964710      -0.51142390      -0.22259981
C        0.84377326      -0.22673505      -0.50745962
C        0.48146316       0.96346988       0.25550654
N       -0.84319207       1.14827341       0.60780594
N       -1.72934421       0.32998626       0.18159503
C       -1.29316867      -0.89044887      -0.28958204
N       -0.07975751      -1.20902770      -0.62339262
H        1.73130619       0.17400199       0.98304826
H        0.88215965       1.89638235      -0.14648631
H       -2.04288689      -1.67447837      -0.23843536
10
Frame=14 idx=007946 GeodesicLength=0.7176807769448764 rxn_smarts="[O:1]([c:2]1[c:3]([H:9])[n:4][n:5][c:6]([H:10])[n:7]1)[H:8]>>[O:1]=[C:2]1[C:3]([H:8])([H:9])[N:4]=[N:5][C:6]([H:10])=[N:7]1"
O        2.05085112      -0.50067631      -0.23306000
C        0.84393447      -0.21805403      -0.51933007
C        0.48059044       0.96329223       0.25972269
N       -0.84780694       1.15070452       0.60255178
N       -1.73243570       0.33528034       0.16683055
C       -1.29379019      -0.88898585      -0.29170919
N       -0.07648396      -1.20864169      -0.61077489
H        1.73937801       0.14584382       0.99865632
H        0.87513703       1.89714678      -0.14730433
H       -2.03937429      -1.67590981      -0.22558286
10
Frame=15 idx=007946 GeodesicLength=0.7685501462200667 rxn_smarts="[O:1]([c:2]1[c:3]([H:9])[n:4][n:5][c:6]([H:10])[n:7]1)[H:8]>>[O:1]=[C:2]1[C:3]([H:8])([H:9])[N:4]=[N:5][C:6]([H:10])=[N:7]1"
O        2.05179520      -0.49019460      -0.24221720
C        0.84410303      -0.20941904      -0.53078997
C        0.47964082       0.96343444       0.26342511
N       -0.85233673       1.15326144       0.59729971
N       -1.73531401       0.33998266       0.15335243
C       -1.29423186      -0.88762952      -0.29352310
N       -0.07325796      -1.20753695      -0.59904200
H        1.74760275       0.11718248       1.01402917
H        0.86778570       1.89805217      -0.14913089
H       -2.03578693      -1.67713309      -0.21340325
10
Frame=16 idx=007946 GeodesicLength=0.8194157512062065 rxn_smarts="[O:1]([c:2]1[c:3]([H:9])[n:4][n:5][c:6]([H:10])[n:7]1)[H:8]>>[O:1]=[C:2]1[C:3]([H:8])([H:9])[N:4]=[N:5][C:6]([H:10])=[N:7]1"
O        2.05250250      -0.47991986      -0.25017676
C        0.84429279      -0.20077636      -0.54190757
C        0.47860357       0.96389573       0.26666139
N       -0.85681946       1.15593579       0.59202642
N       -1.73803922       0.34423026       0.14084361
C       -1.29451150      -0.88634249      -0.29511319
N       -0.07008557      -1.20573790      -0.58824266
H        1.75591785       0.08783618       1.02920945
H        0.86014047       1.89912082      -0.15179359
H       -2.03200142      -1.67824218      -0.20150710
