20
Frame=0 idx=001976 GeodesicLength=0.0 rxn_smarts="[C:1]([C:2]([C:3]([C:4]([C:5]([C:6]([H:18])([H:19])[H:20])([H:16])[H:17])([H:14])[H:15])([H:12])[H:13])([H:10])[H:11])([H:7])([H:8])[H:9]>>[C:1]([C:2]([H:10])([H:11])[H:14])([H:7])([H:8])[H:9].[C:3](=[C:4]([C:5]([C:6]([H:18])([H:19])[H:20])([H:16])[H:17])[H:15])([H:12])[H:13]"
C        3.07084586      -0.24574463       0.29459019
C        1.68734702      -0.81138061       0.09902487
C        0.46441413       0.87595079       0.40533709
C       -0.77382855       0.83892572      -0.30604594
C       -2.02624200       0.27440466       0.30213030
C       -2.96264317      -0.36394507      -0.71944370
H        3.32884495       0.45771066      -0.50209496
H        3.14278132       0.29366145       1.24433572
H        3.84675893      -1.01690958       0.30753404
H        1.55453803      -1.27493893      -0.88835944
H        1.38736262      -1.52076239       0.87187619
H        1.23515903       1.55949806       0.06826761
H        0.46656977       0.69297530       1.47500268
H        0.34797392      -0.11949655      -0.34124634
H       -0.82258112       1.35738409      -1.25504037
H       -1.75994954      -0.47439208       1.05805753
H       -2.58167998       1.05123405       0.84738404
H       -3.24426148       0.35794221      -1.48989930
H       -3.88147394      -0.72514793      -0.25208511
H       -2.47993581      -1.20696921      -1.21932511
20
Frame=1 idx=001976 GeodesicLength=0.10805929647267173 rxn_smarts="[C:1]([C:2]([C:3]([C:4]([C:5]([C:6]([H:18])([H:19])[H:20])([H:16])[H:17])([H:14])[H:15])([H:12])[H:13])([H:10])[H:11])([H:7])([H:8])[H:9]>>[C:1]([C:2]([H:10])([H:11])[H:14])([H:7])([H:8])[H:9].[C:3](=[C:4]([C:5]([C:6]([H:18])([H:19])[H:20])([H:16])[H:17])[H:15])([H:12])[H:13]"
C        3.07241831      -0.25232595       0.32153375
C        1.69535871      -0.80800193       0.05664063
C        0.46432221       0.87844666       0.39116464
C       -0.77497948       0.83400514      -0.31649175
C       -2.03073212       0.29482939       0.30746163
C       -2.96426688      -0.37553922      -0.69607674
H        3.35468063       0.48719989      -0.43296710
H        3.11505509       0.24007733       1.29803982
H        3.84819536      -1.02358958       0.32139960
H        1.60383292      -1.23191899      -0.95285936
H        1.38490035      -1.55862868       0.78560291
H        1.21978433       1.58116534       0.05826163
H        0.46575017       0.70280640       1.46243952
H        0.33655723      -0.14646398      -0.37131536
H       -0.82862246       1.34675723      -1.26878033
H       -1.77149719      -0.42775049       1.09062928
H       -2.58286262       1.09422153       0.82199056
H       -3.24184506       0.32016260      -1.49168738
H       -3.88535033      -0.71950365      -0.22028268
H       -2.48069920      -1.23594906      -1.16470329
20
Frame=2 idx=001976 GeodesicLength=0.21560886836392731 rxn_smarts="[C:1]([C:2]([C:3]([C:4]([C:5]([C:6]([H:18])([H:19])[H:20])([H:16])[H:17])([H:14])[H:15])([H:12])[H:13])([H:10])[H:11])([H:7])([H:8])[H:9]>>[C:1]([C:2]([H:10])([H:11])[H:14])([H:7])([H:8])[H:9].[C:3](=[C:4]([C:5]([C:6]([H:18])([H:19])[H:20])([H:16])[H:17])[H:15])([H:12])[H:13]"
C        3.07207661      -0.26066389       0.34843306
C        1.70357036      -0.80294044       0.01455288
C        0.46441534       0.88232431       0.37722394
C       -0.77561034       0.82857492      -0.32724114
C       -2.03432014       0.31492406       0.31205261
C       -2.96504068      -0.38747116      -0.67203112
H        3.37715388       0.51366196      -0.36075426
H        3.08452709       0.18254880       1.34891405
H        3.84821466      -1.03128439       0.33440581
H        1.65334500      -1.18468225      -1.01436315
H        1.38454507      -1.59351385       0.69664093
H        1.20389461       1.60410932       0.04846338
H        0.46474222       0.71475230       1.45018176
H        0.32523733      -0.17388431      -0.40146138
H       -0.83436945       1.33562839      -1.28275121
H       -1.78150544      -0.38021639       1.12148510
H       -2.58324430       1.13549435       0.79507685
H       -3.23896265       0.28093665      -1.49195819
H       -3.88814423      -0.71420286      -0.18810737
H       -2.48052493      -1.26409551      -1.10876256
20
Frame=3 idx=001976 GeodesicLength=0.3226999549524746 rxn_smarts="[C:1]([C:2]([C:3]([C:4]([C:5]([C:6]([H:18])([H:19])[H:20])([H:16])[H:17])([H:14])[H:15])([H:12])[H:13])([H:10])[H:11])([H:7])([H:8])[H:9]>>[C:1]([C:2]([H:10])([H:11])[H:14])([H:7])([H:8])[H:9].[C:3](=[C:4]([C:5]([C:6]([H:18])([H:19])[H:20])([H:16])[H:17])[H:15])([H:12])[H:13]"
C        3.06972909      -0.27081332       0.37504700
C        1.71179564      -0.79624579      -0.02694979
C        0.46470892       0.88776248       0.36363849
C       -0.77569688       0.82270438      -0.33810793
C       -2.03698847       0.33457876       0.31592583
C       -2.96480511      -0.39971913      -0.64742310
H        3.39605361       0.53661125      -0.28602396
H        3.05127712       0.12137268       1.39643406
H        3.84672769      -1.04000873       0.34652433
H        1.70265916      -1.13363995      -1.07233264
H        1.38635506      -1.62510541       0.60557252
H        1.18745894       1.62842296       0.03879838
H        0.46359440       0.72904467       1.43833790
H        0.31411007      -0.20165122      -0.43176955
H       -0.83981478       1.32415094      -1.29672860
H       -1.78994955      -0.33204624       1.15052368
H       -2.58291699       1.17480389       0.76677418
H       -3.23547187       0.24039481      -1.49070137
H       -3.88967362      -0.70939798      -0.15577198
H       -2.47915245      -1.29121904      -1.05176748
20
Frame=4 idx=001976 GeodesicLength=0.4294186961966346 rxn_smarts="[C:1]([C:2]([C:3]([C:4]([C:5]([C:6]([H:18])([H:19])[H:20])([H:16])[H:17])([H:14])[H:15])([H:12])[H:13])([H:10])[H:11])([H:7])([H:8])[H:9]>>[C:1]([C:2]([H:10])([H:11])[H:14])([H:7])([H:8])[H:9].[C:3](=[C:4]([C:5]([C:6]([H:18])([H:19])[H:20])([H:16])[H:17])[H:15])([H:12])[H:13]"
C        3.06528480      -0.28286317       0.40117283
C        1.71985780      -0.78795504      -0.06768165
C        0.46521581       0.89493443       0.35052563
C       -0.77521426       0.81651672      -0.34890665
C       -2.03875179       0.35376016       0.31911864
C       -2.96338402      -0.41231872      -0.62230834
H        3.41121598       0.55561117      -0.20915997
H        3.01526693       0.05674678       1.44010631
H        3.84364993      -1.04981786       0.35774104
H        1.75150619      -1.07910244      -1.12636402
H        1.39036969      -1.65316629       0.51271120
H        1.17046176       1.65420938       0.02920393
H        0.46237047       0.74585489       1.42700168
H        0.30324059      -0.22963127      -0.46241403
H       -0.84494413       1.31252637      -1.31049555
H       -1.79688721      -0.28331882       1.17776526
H       -2.58205686       1.21203540       0.73712782
H       -3.23112504       0.19844960      -1.48797517
H       -3.88979504      -0.70517192      -0.12345063
H       -2.47628160      -1.31729936      -0.99371834
20
Frame=5 idx=001976 GeodesicLength=0.5364024349130906 rxn_smarts="[C:1]([C:2]([C:3]([C:4]([C:5]([C:6]([H:18])([H:19])[H:20])([H:16])[H:17])([H:14])[H:15])([H:12])[H:13])([H:10])[H:11])([H:7])([H:8])[H:9]>>[C:1]([C:2]([H:10])([H:11])[H:14])([H:7])([H:8])[H:9].[C:3](=[C:4]([C:5]([C:6]([H:18])([H:19])[H:20])([H:16])[H:17])[H:15])([H:12])[H:13]"
C        3.05860152      -0.29668773       0.42678076
C        1.72760873      -0.77822584      -0.10750935
C        0.46593877       0.90398540       0.33789742
C       -0.77394277       0.80992118      -0.35958895
C       -2.03945487       0.37229475       0.32170021
C       -2.96070405      -0.42514362      -0.59674585
H        3.42241637       0.57043532      -0.13078070
H        2.97650095      -0.01035005       1.47957942
H        3.83883132      -1.06058891       0.36853625
H        1.79982330      -1.02197091      -1.17605057
H        1.39622204      -1.67748280       0.41846598
H        1.15290843       1.68145307       0.01949240
H        0.46109385       0.76520669       1.41613735
H        0.29270106      -0.25805271      -0.49383104
H       -0.84965402       1.30076763      -1.32393424
H       -1.80217854      -0.23450307       1.20305863
H       -2.58049690       1.24694363       0.70660178
H       -3.22607194       0.15577109      -1.48347665
H       -3.88841536      -0.70170144      -0.09109397
H       -2.47172789      -1.34207165      -0.93523888
20
Frame=6 idx=001976 GeodesicLength=0.6433390997261851 rxn_smarts="[C:1]([C:2]([C:3]([C:4]([C:5]([C:6]([H:18])([H:19])[H:20])([H:16])[H:17])([H:14])[H:15])([H:12])[H:13])([H:10])[H:11])([H:7])([H:8])[H:9]>>[C:1]([C:2]([H:10])([H:11])[H:14])([H:7])([H:8])[H:9].[C:3](=[C:4]([C:5]([C:6]([H:18])([H:19])[H:20])([H:16])[H:17])[H:15])([H:12])[H:13]"
C        3.04958405      -0.31240295       0.45162622
C        1.73485527      -0.76708251      -0.14635257
C        0.46689937       0.91507130       0.32592801
C       -0.77191273       0.80310429      -0.36994630
C       -2.03917857       0.39025763       0.32371235
C       -2.95655285      -0.43833339      -0.57074378
H        3.42965852       0.58075025      -0.05120056
H        2.93485133      -0.08004888       1.51456295
H        3.83213726      -1.07248355       0.37870293
H        1.84734117      -0.96227845      -1.22126926
H        1.40408733      -1.69791328       0.32309521
H        1.13476609       1.71032273       0.00970558
H        0.45984154       0.78722266       1.40589470
H        0.28251874      -0.28660474      -0.52618094
H       -0.85394227       1.28909899      -1.33683280
H       -1.80601017      -0.18541002       1.22660057
H       -2.57848987       1.27960149       0.67499746
H       -3.21977219       0.11183024      -1.47750981
H       -3.88542055      -0.69895926      -0.05888485
H       -2.46526148      -1.36574258      -0.87590514
20
Frame=7 idx=001976 GeodesicLength=0.7502671356704698 rxn_smarts="[C:1]([C:2]([C:3]([C:4]([C:5]([C:6]([H:18])([H:19])[H:20])([H:16])[H:17])([H:14])[H:15])([H:12])[H:13])([H:10])[H:11])([H:7])([H:8])[H:9]>>[C:1]([C:2]([H:10])([H:11])[H:14])([H:7])([H:8])[H:9].[C:3](=[C:4]([C:5]([C:6]([H:18])([H:19])[H:20])([H:16])[H:17])[H:15])([H:12])[H:13]"
C        3.03812956      -0.32996490       0.47559062
C        1.74140460      -0.75464755      -0.18408774
C        0.46811580       0.92834181       0.31468223
C       -0.76903456       0.79612556      -0.37986312
C       -2.03788799       0.40758867       0.32521063
C       -2.95079536      -0.45187328      -0.54432730
H        3.43295011       0.58635798       0.02902953
H        2.89029882      -0.15182121       1.54486322
H        3.82340959      -1.08554232       0.38843607
H        1.89388413      -0.90050757      -1.26188400
H        1.41381301      -1.71436066       0.22697583
H        1.11601697       1.74088955      -0.00021829
H        0.45866419       0.81194358       1.39630605
H        0.27268804      -0.31525954      -0.55973740
H       -0.85774486       1.27759052      -1.34906089
H       -1.80840748      -0.13622737       1.24838089
H       -2.57605847       1.30990813       0.64247378
H       -3.21204487       0.06673683      -1.47006310
H       -3.88068928      -0.69703380      -0.02686195
H       -2.45671193      -1.38824445      -0.81584508
20
Frame=8 idx=001976 GeodesicLength=0.8572801954287136 rxn_smarts="[C:1]([C:2]([C:3]([C:4]([C:5]([C:6]([H:18])([H:19])[H:20])([H:16])[H:17])([H:14])[H:15])([H:12])[H:13])([H:10])[H:11])([H:7])([H:8])[H:9]>>[C:1]([C:2]([H:10])([H:11])[H:14])([H:7])([H:8])[H:9].[C:3](=[C:4]([C:5]([C:6]([H:18])([H:19])[H:20])([H:16])[H:17])[H:15])([H:12])[H:13]"
C        3.02411464      -0.34933821       0.49852230
C        1.74711756      -0.74098229      -0.22072640
C        0.46961926       0.94394563       0.30423794
C       -0.76517734       0.78901401      -0.38923241
C       -2.03553356       0.42425135       0.32625433
C       -2.94329632      -0.46578457      -0.51750010
H        3.43222305       0.58707430       0.10950001
H        2.84263556      -0.22525635       1.57025108
H        3.81246452      -1.09984915       0.39786720
H        1.93939197      -0.83710542      -1.29771551
H        1.42530438      -1.72666106       0.13042698
H        1.09663205       1.77327009      -0.01033052
H        0.45763994       0.83939000       1.38741918
H        0.26315917      -0.34400612      -0.59483291
H       -0.86096924       1.26633437      -1.36047827
H       -1.80941657      -0.08704317       1.26846184
H       -2.57322166       1.33781889       0.60913126
H       -3.20265739       0.02048224      -1.46112434
H       -3.87414545      -0.69596241       0.00491831
H       -2.44588457      -1.40959213      -0.75504996
20
Frame=9 idx=001976 GeodesicLength=0.9648776418637384 rxn_smarts="[C:1]([C:2]([C:3]([C:4]([C:5]([C:6]([H:18])([H:19])[H:20])([H:16])[H:17])([H:14])[H:15])([H:12])[H:13])([H:10])[H:11])([H:7])([H:8])[H:9]>>[C:1]([C:2]([H:10])([H:11])[H:14])([H:7])([H:8])[H:9].[C:3](=[C:4]([C:5]([C:6]([H:18])([H:19])[H:20])([H:16])[H:17])[H:15])([H:12])[H:13]"
C        3.00720113      -0.37030869       0.52049266
C        1.75183667      -0.72631221      -0.25630276
C        0.47141945       0.96207680       0.29451486
C       -0.75999406       0.78157790      -0.39800873
C       -2.03180511       0.44002368       0.32697820
C       -2.93393972      -0.47994315      -0.49029394
H        3.42715238       0.58299315       0.18962571
H        2.79163072      -0.29903879       1.59067659
H        3.79880659      -1.11543642       0.40763935
H        1.98389054      -0.77302267      -1.32864230
H        1.43809053      -1.73480276       0.03380935
H        1.07661755       1.80749608      -0.02088365
H        0.45680139       0.86955156       1.37909986
H        0.25401269      -0.37311794      -0.63211317
H       -0.86349053       1.25525080      -1.37097710
H       -1.80870080      -0.03843797       1.28680621
H       -2.56953949       1.36309299       0.57561584
H       -3.19180382      -0.02611357      -1.45035130
H       -3.86558237      -0.69595019       0.03664491
H       -2.43260375      -1.42957858      -0.69433058
20
Frame=10 idx=001976 GeodesicLength=1.0725747713062483 rxn_smarts="[C:1]([C:2]([C:3]([C:4]([C:5]([C:6]([H:18])([H:19])[H:20])([H:16])[H:17])([H:14])[H:15])([H:12])[H:13])([H:10])[H:11])([H:7])([H:8])[H:9]>>[C:1]([C:2]([H:10])([H:11])[H:14])([H:7])([H:8])[H:9].[C:3](=[C:4]([C:5]([C:6]([H:18])([H:19])[H:20])([H:16])[H:17])[H:15])([H:12])[H:13]"
C        2.98730788      -0.39301287       0.54122947
C        1.75536010      -0.71059984      -0.29083544
C        0.47352177       0.98287953       0.28574632
C       -0.75348750       0.77406856      -0.40600370
C       -2.02683488       0.45508811       0.32738224
C       -2.92245051      -0.49455522      -0.46264365
H        3.41789824       0.57388329       0.26910974
H        2.73705449      -0.37350130       1.60593333
H        3.78227943      -1.13258496       0.41737686
H        2.02718267      -0.70815060      -1.35470587
H        1.45236056      -1.73865314      -0.06274191
H        1.05588489       1.84377377      -0.03168819
H        0.45621273       0.90245339       1.37158859
H        0.24510727      -0.40226237      -0.67160371
H       -0.86519958       1.24449544      -1.38040330
H       -1.80662660       0.01007179       1.30365080
H       -2.56537418       1.38594272       0.54143542
H       -3.17870746      -0.07391753      -1.43810775
H       -3.85490587      -0.69693209       0.06812591
H       -2.41658344      -1.44848668      -0.63284518
20
Frame=11 idx=001976 GeodesicLength=1.180378640019718 rxn_smarts="[C:1]([C:2]([C:3]([C:4]([C:5]([C:6]([H:18])([H:19])[H:20])([H:16])[H:17])([H:14])[H:15])([H:12])[H:13])([H:10])[H:11])([H:7])([H:8])[H:9]>>[C:1]([C:2]([H:10])([H:11])[H:14])([H:7])([H:8])[H:9].[C:3](=[C:4]([C:5]([C:6]([H:18])([H:19])[H:20])([H:16])[H:17])[H:15])([H:12])[H:13]"
C        2.96423661      -0.41734265       0.56064155
C        1.75750605      -0.69398010      -0.32436137
C        0.47594861       1.00649648       0.27794639
C       -0.74546176       0.76647779      -0.41312440
C       -2.02050080       0.46937592       0.32753432
C       -2.90866602      -0.50960896      -0.43455045
H        3.40442930       0.55982362       0.34746055
H        2.67874580      -0.44803462       1.61605148
H        3.76257998      -1.15140723       0.42726179
H        2.06916526      -0.64297325      -1.37595146
H        1.46787648      -1.73821299      -0.15884443
H        1.03435571       1.88220361      -0.04278499
H        0.45592283       0.93807091       1.36487983
H        0.23635522      -0.43148120      -0.71359371
H       -0.86595520       1.23404287      -1.38865784
H       -1.80315294       0.05829941       1.31902668
H       -2.56059829       1.40628839       0.50677587
H       -3.16316595      -0.12278920      -1.42434199
H       -3.84196525      -0.69898244       0.09936750
H       -2.39765563      -1.46626637      -0.57073530
20
Frame=12 idx=001976 GeodesicLength=1.288306254572646 rxn_smarts="[C:1]([C:2]([C:3]([C:4]([C:5]([C:6]([H:18])([H:19])[H:20])([H:16])[H:17])([H:14])[H:15])([H:12])[H:13])([H:10])[H:11])([H:7])([H:8])[H:9]>>[C:1]([C:2]([H:10])([H:11])[H:14])([H:7])([H:8])[H:9].[C:3](=[C:4]([C:5]([C:6]([H:18])([H:19])[H:20])([H:16])[H:17])[H:15])([H:12])[H:13]"
C        2.93771432      -0.44326449       0.57859786
C        1.75810989      -0.67651810      -0.35699732
C        0.47871431       1.03311909       0.27115485
C       -0.73570568       0.75887869      -0.41924914
C       -2.01267738       0.48288140       0.32750635
C       -2.89232210      -0.52518328      -0.40598218
H        3.38656572       0.54080832       0.42433294
H        2.61636930      -0.52215187       1.62095734
H        3.73927051      -1.17214170       0.43730604
H        2.10975957      -0.57794333      -1.39235738
H        1.48439073      -1.73345775      -0.25420336
H        1.01196431       1.92293696      -0.05420292
H        0.45600871       0.97644556       1.35900910
H        0.22768472      -0.46068190      -0.75835548
H       -0.86560367       1.22394136      -1.39562596
H       -1.79828360       0.10625149       1.33304486
H       -2.55515727       1.42409461       0.47168914
H       -3.14482045      -0.17279414      -1.40901576
H       -3.82654004      -0.70227360       0.13036620
H       -2.37544189      -1.48294731      -0.50797518
20
Frame=13 idx=001976 GeodesicLength=1.3964780853569023 rxn_smarts="[C:1]([C:2]([C:3]([C:4]([C:5]([C:6]([H:18])([H:19])[H:20])([H:16])[H:17])([H:14])[H:15])([H:12])[H:13])([H:10])[H:11])([H:7])([H:8])[H:9]>>[C:1]([C:2]([H:10])([H:11])[H:14])([H:7])([H:8])[H:9].[C:3](=[C:4]([C:5]([C:6]([H:18])([H:19])[H:20])([H:16])[H:17])[H:15])([H:12])[H:13]"
C        2.90744353      -0.47049350       0.59512339
C        1.75700949      -0.65848403      -0.38881125
C        0.48187313       1.06289586       0.26525188
C       -0.72391021       0.75113411      -0.42430119
C       -2.00306284       0.49535969       0.32744748
C       -2.87326236      -0.54117542      -0.37705634
H        3.36405958       0.51731178       0.49914174
H        2.54982179      -0.59469025       1.62104483
H        3.71182851      -1.19479935       0.44783720
H        2.14880254      -0.51399601      -1.40413259
H        1.50129271      -1.72471475      -0.34819439
H        0.98863303       1.96602445      -0.06617871
H        0.45662289       1.01764529       1.35386271
H        0.21908687      -0.48998470      -0.80614665
H       -0.86398809       1.21411594      -1.40121878
H       -1.79171678       0.15326381       1.34571853
H       -2.54860402       1.43911693       0.43682473
H       -3.12384996      -0.22308635      -1.39194884
H       -3.80832970      -0.70707682       0.16125629
H       -2.34975013      -1.49836668      -0.44552004
20
Frame=14 idx=001976 GeodesicLength=1.5048379183887342 rxn_smarts="[C:1]([C:2]([C:3]([C:4]([C:5]([C:6]([H:18])([H:19])[H:20])([H:16])[H:17])([H:14])[H:15])([H:12])[H:13])([H:10])[H:11])([H:7])([H:8])[H:9]>>[C:1]([C:2]([H:10])([H:11])[H:14])([H:7])([H:8])[H:9].[C:3](=[C:4]([C:5]([C:6]([H:18])([H:19])[H:20])([H:16])[H:17])[H:15])([H:12])[H:13]"
C        2.87311802      -0.49925474       0.60996619
C        1.75406804      -0.63976138      -0.42001608
C        0.48539403       1.09597469       0.26037223
C       -0.70999429       0.74363084      -0.42816883
C       -1.99171529       0.50710301       0.32730960
C       -2.85102655      -0.55787590      -0.34752756
H        3.33681685       0.48899793       0.57189503
H        2.47841986      -0.66606116       1.61589630
H        3.67982351      -1.21986007       0.45851177
H        2.18632491      -0.45091082      -1.41127051
H        1.51870601      -1.71176194      -0.44096890
H        0.96422142       2.01166618      -0.07845560
H        0.45775438       1.06162095       1.34957831
H        0.21042171      -0.51890631      -0.85702781
H       -0.86094923       1.20471869      -1.40538301
H       -1.78378244       0.20017302       1.35725186
H       -2.54129094       1.45157443       0.40149516
H       -3.09925144      -0.27482345      -1.37328880
H       -3.78708167      -0.71347207       0.19200826
H       -2.31997690      -1.51277191      -0.38217762
20
Frame=15 idx=001976 GeodesicLength=1.613730108051021 rxn_smarts="[C:1]([C:2]([C:3]([C:4]([C:5]([C:6]([H:18])([H:19])[H:20])([H:16])[H:17])([H:14])[H:15])([H:12])[H:13])([H:10])[H:11])([H:7])([H:8])[H:9]>>[C:1]([C:2]([H:10])([H:11])[H:14])([H:7])([H:8])[H:9].[C:3](=[C:4]([C:5]([C:6]([H:18])([H:19])[H:20])([H:16])[H:17])[H:15])([H:12])[H:13]"
C        2.83423727      -0.52960412       0.62305828
C        1.74919812      -0.62036834      -0.45086349
C        0.48929763       1.13253274       0.25640499
C       -0.69376336       0.73659545      -0.43080717
C       -1.97847463       0.51817330       0.32713496
C       -2.82515561      -0.57545285      -0.31721108
H        3.30444331       0.45584567       0.64257963
H        2.40146222      -0.73602372       1.60542503
H        3.64255053      -1.24767875       0.46938300
H        2.22238708      -0.38894166      -1.41386692
H        1.53631081      -1.69461085      -0.53252184
H        0.93862796       2.05998986      -0.09109129
H        0.45950184       1.10843300       1.34605619
H        0.20166727      -0.54712224      -0.91119147
H       -0.85636250       1.19587635      -1.40811451
H       -1.77444577       0.24721891       1.36773370
H       -2.53319170       1.46140294       0.36560982
H       -3.07050871      -0.32829757      -1.35285730
H       -3.76232792      -0.72181184       0.22283560
H       -2.28545386      -1.52615629      -0.31769610
20
Frame=16 idx=001976 GeodesicLength=1.723549307500144 rxn_smarts="[C:1]([C:2]([C:3]([C:4]([C:5]([C:6]([H:18])([H:19])[H:20])([H:16])[H:17])([H:14])[H:15])([H:12])[H:13])([H:10])[H:11])([H:7])([H:8])[H:9]>>[C:1]([C:2]([H:10])([H:11])[H:14])([H:7])([H:8])[H:9].[C:3](=[C:4]([C:5]([C:6]([H:18])([H:19])[H:20])([H:16])[H:17])[H:15])([H:12])[H:13]"
C        2.79084902      -0.56116243       0.63429955
C        1.74239209      -0.60054744      -0.48134368
C        0.49358096       1.17244854       0.25329595
C       -0.67508728       0.73005128      -0.43213414
C       -1.96326334       0.52843553       0.32698953
C       -2.79561754      -0.59371482      -0.28629546
H        3.26693478       0.41854313       0.71055961
H        2.31924098      -0.80378168       1.59001862
H        3.59997425      -1.27799392       0.48032515
H        2.25677554      -0.32897861      -1.41222196
H        1.55365846      -1.67382389      -0.62196115
H        0.91161788       2.11088262      -0.10396479
H        0.46191965       1.15782836       1.34326630
H        0.19269400      -0.57478667      -0.96830338
H       -0.85002729       1.18751373      -1.40939366
H       -1.76372534       0.29389357       1.37709958
H       -2.52409157       1.46845917       0.32958755
H       -3.03765911      -0.38284524      -1.33069837
H       -3.73397102      -0.73212636       0.25366226
H       -2.24619513      -1.53829486      -0.25278751
