17
Frame=0 idx=008616 GeodesicLength=0.0 rxn_smarts="[C:1]([C@@:2]1([H:11])[C:3]([H:12])([H:13])[C@@:4]2([O:5][H:14])[C:6]([H:15])([H:16])[C@@:7]12[H:17])([H:8])([H:9])[H:10]>>[C:1]([C@@:2]([C:3][H:13])([C@@:7]1([H:17])[C@@:4]([O:5][H:14])([H:12])[C:6]1([H:15])[H:16])[H:11])([H:8])([H:9])[H:10]"
C        2.08271230       0.53626224      -0.23112796
C        0.99695205      -0.52426969      -0.13835718
C        0.51815293      -0.81026142       1.28874095
C       -1.35541269      -0.24075905       0.32720648
O       -2.52787986      -0.93858378       0.19555088
C       -1.05593837       1.07998375      -0.30337418
C       -0.33832840      -0.16293607      -0.76034492
H        2.98607262       0.20395347       0.28357084
H        1.76114693       1.46590664       0.24153577
H        2.34179913       0.74703909      -1.27178433
H        1.35324411      -1.44205417      -0.61645450
H       -0.82789895      -0.26160450       1.37374363
H        0.22358411      -1.87172942       1.32484728
H       -3.20224131      -0.52464155       0.73964308
H       -1.81502349       1.44173304      -0.98431124
H       -0.54001302       1.83730059       0.27324633
H       -0.60092815      -0.53533922      -1.74233085
17
Frame=1 idx=008616 GeodesicLength=0.06573519577604568 rxn_smarts="[C:1]([C@@:2]1([H:11])[C:3]([H:12])([H:13])[C@@:4]2([O:5][H:14])[C:6]([H:15])([H:16])[C@@:7]12[H:17])([H:8])([H:9])[H:10]>>[C:1]([C@@:2]([C:3][H:13])([C@@:7]1([H:17])[C@@:4]([O:5][H:14])([H:12])[C:6]1([H:15])[H:16])[H:11])([H:8])([H:9])[H:10]"
C        2.08017183       0.54093327      -0.22267101
C        1.00073879      -0.52634423      -0.14437503
C        0.50684283      -0.82639808       1.27182270
C       -1.35011361      -0.23602968       0.33493716
O       -2.52602554      -0.93169820       0.20873154
C       -1.05411217       1.07618640      -0.31371067
C       -0.33936664      -0.17133166      -0.76196097
H        2.98513887       0.20605647       0.28761748
H        1.75556775       1.46245455       0.26357624
H        2.33786210       0.76756298      -1.26030473
H        1.36263393      -1.43777554      -0.63021802
H       -0.82029077      -0.23913176       1.39711059
H        0.21851096      -1.88913730       1.30309826
H       -3.19916871      -0.51032913       0.74848160
H       -1.81610580       1.43118417      -0.99502870
H       -0.53445922       1.84060688       0.25005490
H       -0.60782460      -0.55680915      -1.73716131
17
Frame=2 idx=008616 GeodesicLength=0.131433399725234 rxn_smarts="[C:1]([C@@:2]1([H:11])[C:3]([H:12])([H:13])[C@@:4]2([O:5][H:14])[C:6]([H:15])([H:16])[C@@:7]12[H:17])([H:8])([H:9])[H:10]>>[C:1]([C@@:2]([C:3][H:13])([C@@:7]1([H:17])[C@@:4]([O:5][H:14])([H:12])[C:6]1([H:15])[H:16])[H:11])([H:8])([H:9])[H:10]"
C        2.07752254       0.54539606      -0.21421853
C        1.00435314      -0.52830382      -0.15026863
C        0.49516302      -0.84170825       1.25488118
C       -1.34482288      -0.23129528       0.34231825
O       -2.52418861      -0.92470527       0.22148633
C       -1.05238033       1.07236917      -0.32383663
C       -0.34044270      -0.17951814      -0.76376857
H        2.98398602       0.20815861       0.29193545
H        1.74982429       1.45881357       0.28502842
H        2.33393955       0.78738619      -1.24866076
H        1.37170462      -1.43345306      -0.64354887
H       -0.81161354      -0.21746157       1.41974949
H        0.21372912      -1.90584334       1.28164716
H       -3.19585349      -0.49631351       0.75740457
H       -1.81728023       1.42083557      -1.00534326
H       -0.52897684       1.84347305       0.22723226
H       -0.61466366      -0.57782998      -1.73203784
17
Frame=3 idx=008616 GeodesicLength=0.19709958568722924 rxn_smarts="[C:1]([C@@:2]1([H:11])[C:3]([H:12])([H:13])[C@@:4]2([O:5][H:14])[C:6]([H:15])([H:16])[C@@:7]12[H:17])([H:8])([H:9])[H:10]>>[C:1]([C@@:2]([C:3][H:13])([C@@:7]1([H:17])[C@@:4]([O:5][H:14])([H:12])[C:6]1([H:15])[H:16])[H:11])([H:8])([H:9])[H:10]"
C        2.07476919       0.54965489      -0.20579933
C        1.00779569      -0.53015167      -0.15602146
C        0.48317062      -0.85619715       1.23795396
C       -1.33956254      -0.22657734       0.34934071
O       -2.52238157      -0.91763545       0.23377938
C       -1.05074015       1.06854104      -0.33373496
C       -0.34155397      -0.18749576      -0.76575382
H        2.98262925       0.21025825       0.29648406
H        1.74393259       1.45501568       0.30586583
H        2.33002707       0.80650297      -1.23690700
H        1.38045425      -1.42910163      -0.65643515
H       -0.80192127      -0.19662009       1.44173843
H        0.20923929      -1.92182933       1.26054814
H       -3.19233960      -0.48259668       0.76633826
H       -1.81852879       1.41070963      -1.01525483
H       -0.52356585       1.84590645       0.20482675
H       -0.62142420      -0.59838381      -1.72696897
17
Frame=4 idx=008616 GeodesicLength=0.2627378869718203 rxn_smarts="[C:1]([C@@:2]1([H:11])[C:3]([H:12])([H:13])[C@@:4]2([O:5][H:14])[C:6]([H:15])([H:16])[C@@:7]12[H:17])([H:8])([H:9])[H:10]>>[C:1]([C@@:2]([C:3][H:13])([C@@:7]1([H:17])[C@@:4]([O:5][H:14])([H:12])[C:6]1([H:15])[H:16])[H:11])([H:8])([H:9])[H:10]"
C        2.07191751       0.55371487      -0.19744003
C        1.01106793      -0.53189175      -0.16162004
C        0.47091631      -0.86987365       1.22107446
C       -1.33435236      -0.22189514       0.35599949
O       -2.52061483      -0.91051850       0.24558124
C       -1.04918859       1.06471121      -0.34339193
C       -0.34269780      -0.19526494      -0.76790393
H        2.98108354       0.21235357       0.30122492
H        1.73791013       1.45109158       0.32606768
H        2.32612227       0.82491171      -1.22509468
H        1.38888241      -1.42473593      -0.66886878
H       -0.79126514      -0.17662720       1.46315276
H        0.20503514      -1.93708082       1.23985158
H       -3.18866687      -0.46918321       0.77521600
H       -1.81983533       1.40082607      -1.02476605
H       -0.51822659       1.84791789       0.18288128
H       -0.62808773      -0.61845579      -1.72196399
17
Frame=5 idx=008616 GeodesicLength=0.32835233975168154 rxn_smarts="[C:1]([C@@:2]1([H:11])[C:3]([H:12])([H:13])[C@@:4]2([O:5][H:14])[C:6]([H:15])([H:16])[C@@:7]12[H:17])([H:8])([H:9])[H:10]>>[C:1]([C@@:2]([C:3][H:13])([C@@:7]1([H:17])[C@@:4]([O:5][H:14])([H:12])[C:6]1([H:15])[H:16])[H:11])([H:8])([H:9])[H:10]"
C        2.06897323       0.55758239      -0.18916308
C        1.01417238      -0.53352891      -0.16705416
C        0.45844529      -0.88275218       1.20427125
C       -1.32920991      -0.21726502       0.36229270
O       -2.51889852      -0.90338064       0.25687021
C       -1.04772209       1.06088836      -0.35279926
C       -0.34387164      -0.20282761      -0.77020795
H        2.97936362       0.21444234       0.30612263
H        1.73177447       1.44706940       0.34562394
H        2.32222170       0.84261927      -1.21326919
H        1.39699134      -1.42036969      -0.68084672
H       -0.77969139      -0.15749623       1.48406412
H        0.20110606      -1.95158977       1.21960156
H       -3.18487097      -0.45607602       0.78398233
H       -1.82118529       1.39120019      -1.03388491
H       -0.51295886       1.84952145       0.16142891
H       -0.63463943      -0.63803732      -1.71703237
17
Frame=6 idx=008616 GeodesicLength=0.3939560115494964 rxn_smarts="[C:1]([C@@:2]1([H:11])[C:3]([H:12])([H:13])[C@@:4]2([O:5][H:14])[C:6]([H:15])([H:16])[C@@:7]12[H:17])([H:8])([H:9])[H:10]>>[C:1]([C@@:2]([C:3][H:13])([C@@:7]1([H:17])[C@@:4]([O:5][H:14])([H:12])[C:6]1([H:15])[H:16])[H:11])([H:8])([H:9])[H:10]"
C        2.06595002       0.56126364      -0.18098586
C        1.01711976      -0.53507272      -0.17231703
C        0.44580861      -0.89485155       1.18757473
C       -1.32415678      -0.21269870       0.36822118
O       -2.51725282      -0.89624447       0.26762610
C       -1.04634736       1.05708539      -0.36195238
C       -0.34507616      -0.21018901      -0.77266130
H        2.97750022       0.21651912       0.31114834
H        1.72554718       1.44297968       0.36453957
H        2.31832503       0.85963495      -1.20147491
H        1.40479685      -1.41602601      -0.69237498
H       -0.76724129      -0.13923192       1.50454859
H        0.19745489      -1.96535832       1.19984157
H       -3.18100020      -0.44327031       0.79258679
H       -1.82258357       1.38184949      -1.04262649
H       -0.50777072       1.85074127       0.14050138
H       -0.64107366      -0.65713053      -1.71219531
17
Frame=7 idx=008616 GeodesicLength=0.45952600423960577 rxn_smarts="[C:1]([C@@:2]1([H:11])[C:3]([H:12])([H:13])[C@@:4]2([O:5][H:14])[C:6]([H:15])([H:16])[C@@:7]12[H:17])([H:8])([H:9])[H:10]>>[C:1]([C@@:2]([C:3][H:13])([C@@:7]1([H:17])[C@@:4]([O:5][H:14])([H:12])[C:6]1([H:15])[H:16])[H:11])([H:8])([H:9])[H:10]"
C        2.06283080       0.56476850      -0.17293346
C        1.01988886      -0.53651376      -0.17739869
C        0.43299965      -0.90618145       1.17098767
C       -1.31918828      -0.20821567       0.37378896
O       -2.51564807      -0.88913823       0.27785423
C       -1.04502882       1.05329747      -0.37084876
C       -0.34629992      -0.21734283      -0.77523828
H        2.97545592       0.21859127       0.31625488
H        1.71923274       1.43882904       0.38278500
H        2.31442638       0.87597602      -1.18973634
H        1.41226654      -1.41168276      -0.70343517
H       -0.75395169      -0.12186180       1.52464662
H        0.19401179      -1.97836356       1.18059150
H       -3.17703222      -0.43079185       0.80099078
H       -1.82396285       1.37276945      -1.05099198
H       -0.50264245       1.85157458       0.12010755
H       -0.64735838      -0.67571443      -1.70742452
17
Frame=8 idx=008616 GeodesicLength=0.5251003355444448 rxn_smarts="[C:1]([C@@:2]1([H:11])[C:3]([H:12])([H:13])[C@@:4]2([O:5][H:14])[C:6]([H:15])([H:16])[C@@:7]12[H:17])([H:8])([H:9])[H:10]>>[C:1]([C@@:2]([C:3][H:13])([C@@:7]1([H:17])[C@@:4]([O:5][H:14])([H:12])[C:6]1([H:15])[H:16])[H:11])([H:8])([H:9])[H:10]"
C        2.05963499       0.56811243      -0.16498839
C        1.02251054      -0.53787656      -0.18230732
C        0.42008705      -0.91680653       1.15453160
C       -1.31432734      -0.20380695       0.37900087
O       -2.51413538      -0.88204247       0.28756629
C       -1.04378917       1.04953410      -0.37951918
C       -0.34755183      -0.22432102      -0.77795392
H        2.97329219       0.22065143       0.32143652
H        1.71284527       1.43464041       0.40046076
H        2.31049492       0.89172418      -1.17806365
H        1.41946128      -1.40737630      -0.71407372
H       -0.73982341      -0.10535970       1.54443361
H        0.19080000      -1.99066638       1.16185288
H       -3.17302841      -0.41856895       0.80920449
H       -1.82536197       1.36395561      -1.05904563
H       -0.49758532       1.85206431       0.10021562
H       -0.65352340      -0.69385761      -1.70275086
17
Frame=9 idx=008616 GeodesicLength=0.5906648943075117 rxn_smarts="[C:1]([C@@:2]1([H:11])[C:3]([H:12])([H:13])[C@@:4]2([O:5][H:14])[C:6]([H:15])([H:16])[C@@:7]12[H:17])([H:8])([H:9])[H:10]>>[C:1]([C@@:2]([C:3][H:13])([C@@:7]1([H:17])[C@@:4]([O:5][H:14])([H:12])[C:6]1([H:15])[H:16])[H:11])([H:8])([H:9])[H:10]"
C        2.05637017       0.57129092      -0.15719224
C        1.02497628      -0.53915507      -0.18702705
C        0.40708375      -0.92670217       1.13822973
C       -1.30958900      -0.19949275       0.38386451
O       -2.51270040      -0.87501421       0.29672696
C       -1.04262008       1.04580900      -0.38793249
C       -0.34882683      -0.23110339      -0.78078482
H        2.97100793       0.22269887       0.32665291
H        1.70641432       1.43043778       0.41749055
H        2.30655655       0.90682080      -1.16651413
H        1.42635351      -1.40310774      -0.72426262
H       -0.72491120      -0.08975106       1.56396915
H        0.18779952      -2.00221814       1.14369086
H       -3.16901585      -0.40666614       0.81713591
H       -1.82675633       1.35543521      -1.06676155
H       -0.49260268       1.85222037       0.08089755
H       -0.65953964      -0.71150229      -1.69818325
17
Frame=10 idx=008616 GeodesicLength=0.6562225442237273 rxn_smarts="[C:1]([C@@:2]1([H:11])[C:3]([H:12])([H:13])[C@@:4]2([O:5][H:14])[C:6]([H:15])([H:16])[C@@:7]12[H:17])([H:8])([H:9])[H:10]>>[C:1]([C@@:2]([C:3][H:13])([C@@:7]1([H:17])[C@@:4]([O:5][H:14])([H:12])[C:6]1([H:15])[H:16])[H:11])([H:8])([H:9])[H:10]"
C        2.05303540       0.57432458      -0.14952638
C        1.02729890      -0.54036550      -0.19156609
C        0.39401862      -0.93593165       1.12208911
C       -1.30497853      -0.19526481       0.38838513
O       -2.51136566      -0.86802612       0.30536860
C       -1.04152152       1.04212605      -0.39612833
C       -0.35012776      -0.23771503      -0.78373993
H        2.96862182       0.22473238       0.33189639
H        1.69993408       1.42623403       0.43396417
H        2.30258007       0.92135549      -1.15508241
H        1.43298163      -1.39889186      -0.73403886
H       -0.70920139      -0.07503182       1.58329824
H        0.18499821      -2.01308216       1.12609007
H       -3.16500530      -0.39501969       0.82481754
H       -1.82815015       1.34719324      -1.07420048
H       -0.48769581       1.85207841       0.06209900
H       -0.66542260      -0.72871554      -1.69372578
17
Frame=11 idx=008616 GeodesicLength=0.7218228557218891 rxn_smarts="[C:1]([C@@:2]1([H:11])[C:3]([H:12])([H:13])[C@@:4]2([O:5][H:14])[C:6]([H:15])([H:16])[C@@:7]12[H:17])([H:8])([H:9])[H:10]>>[C:1]([C@@:2]([C:3][H:13])([C@@:7]1([H:17])[C@@:4]([O:5][H:14])([H:12])[C:6]1([H:15])[H:16])[H:11])([H:8])([H:9])[H:10]"
C        2.04961006       0.57722950      -0.14197820
C        1.02946432      -0.54149859      -0.19593457
C        0.38087361      -0.94454248       1.10607288
C       -1.30048090      -0.19112558       0.39256983
O       -2.51011766      -0.86106656       0.31353734
C       -1.04046010       1.03846211      -0.40414301
C       -0.35144353      -0.24417249      -0.78680922
H        2.96609649       0.22676524       0.33714712
H        1.69339532       1.42199748       0.44993287
H        2.29853852       0.93541409      -1.14373091
H        1.43933800      -1.39468459      -0.74342185
H       -0.69267566      -0.06119300       1.60245400
H        0.18231884      -2.02326246       1.10900794
H       -3.16096396      -0.38360150       0.83229119
H       -1.82949259       1.33917959      -1.08140483
H       -0.48283157       1.85163224       0.04374860
H       -0.67116920      -0.74553302      -1.68933918
17
Frame=12 idx=008616 GeodesicLength=0.7874350596466436 rxn_smarts="[C:1]([C@@:2]1([H:11])[C:3]([H:12])([H:13])[C@@:4]2([O:5][H:14])[C:6]([H:15])([H:16])[C@@:7]12[H:17])([H:8])([H:9])[H:10]>>[C:1]([C@@:2]([C:3][H:13])([C@@:7]1([H:17])[C@@:4]([O:5][H:14])([H:12])[C:6]1([H:15])[H:16])[H:11])([H:8])([H:9])[H:10]"
C        2.04611671       0.58000878      -0.13455282
C        1.03149370      -0.54257235      -0.20013036
C        0.36769504      -0.95254959       1.09021642
C       -1.29612017      -0.18706942       0.39642408
O       -2.50898315      -0.85414207       0.32122085
C       -1.03946261       1.03484382      -0.41198048
C       -0.35278574      -0.25047974      -0.79000012
H        2.96347989       0.22878940       0.34241044
H        1.68681297       1.41776923       0.46540832
H        2.29444416       0.94898802      -1.13249520
H        1.44545556      -1.39052919      -0.75242297
H       -0.67534380      -0.04824736       1.62148756
H        0.17979381      -2.03278968       1.09247541
H       -3.15693810      -0.37240251       0.83952818
H       -1.83082526       1.33142353      -1.08839710
H       -0.47804207       1.85092986       0.02587042
H       -0.67679094      -0.76197072      -1.68506262
17
Frame=13 idx=008616 GeodesicLength=0.8530645579191316 rxn_smarts="[C:1]([C@@:2]1([H:11])[C:3]([H:12])([H:13])[C@@:4]2([O:5][H:14])[C:6]([H:15])([H:16])[C@@:7]12[H:17])([H:8])([H:9])[H:10]>>[C:1]([C@@:2]([C:3][H:13])([C@@:7]1([H:17])[C@@:4]([O:5][H:14])([H:12])[C:6]1([H:15])[H:16])[H:11])([H:8])([H:9])[H:10]"
C        2.04255333       0.58267062      -0.12726040
C        1.03338276      -0.54358540      -0.20415197
C        0.35448483      -0.95996590       1.07452274
C       -1.29190108      -0.18310046       0.39995374
O       -2.50796009      -0.84726410       0.32841991
C       -1.03851757       1.03127117      -0.41964635
C       -0.35415011      -0.25663738      -0.79330305
H        2.96076519       0.23081018       0.34766653
H        1.68019567       1.41355789       0.48038944
H        2.29029532       0.96209219      -1.12139082
H        1.45132881      -1.38642185      -0.76104187
H       -0.65721047      -0.03621071       1.64043930
H        0.17739791      -2.04166140       1.07651047
H       -3.15293642      -0.36142813       0.84650733
H       -1.83212834       1.32392042      -1.09518864
H       -0.47331918       1.84997845       0.00846476
H       -0.68228054      -0.77802558      -1.68089112
17
Frame=14 idx=008616 GeodesicLength=0.9187203994181153 rxn_smarts="[C:1]([C@@:2]1([H:11])[C:3]([H:12])([H:13])[C@@:4]2([O:5][H:14])[C:6]([H:15])([H:16])[C@@:7]12[H:17])([H:8])([H:9])[H:10]>>[C:1]([C@@:2]([C:3][H:13])([C@@:7]1([H:17])[C@@:4]([O:5][H:14])([H:12])[C:6]1([H:15])[H:16])[H:11])([H:8])([H:9])[H:10]"
C        2.03892583       0.58522176      -0.12010732
C        1.03513454      -0.54454124      -0.20799911
C        0.34125387      -0.96680539       1.05900084
C       -1.28783295      -0.17921896       0.40316511
O       -2.50705465      -0.84044145       0.33513311
C       -1.03762609       1.02775059      -0.42714843
C       -0.35553666      -0.26264854      -0.79671461
H        2.95796219       0.23282948       0.35290369
H        1.67355516       1.40937738       0.49488396
H        2.28609476       0.97473779      -1.11043489
H        1.45696417      -1.38237051      -0.76928383
H       -0.63827408      -0.02509686       1.65935596
H        0.17512042      -2.04988328       1.06113195
H       -3.14897854      -0.35067775       0.85320970
H       -1.83340270       1.31667273      -1.10179747
H       -0.46866737       1.84879680      -0.00846569
H       -0.68763790      -0.79370257      -1.67683296
17
Frame=15 idx=008616 GeodesicLength=0.9843691809707502 rxn_smarts="[C:1]([C@@:2]1([H:11])[C:3]([H:12])([H:13])[C@@:4]2([O:5][H:14])[C:6]([H:15])([H:16])[C@@:7]12[H:17])([H:8])([H:9])[H:10]>>[C:1]([C@@:2]([C:3][H:13])([C@@:7]1([H:17])[C@@:4]([O:5][H:14])([H:12])[C:6]1([H:15])[H:16])[H:11])([H:8])([H:9])[H:10]"
C        2.03522903       0.58767153      -0.11310110
C        1.03674593      -0.54544004      -0.21166907
C        0.32800485      -0.97308338       1.04365541
C       -1.28392137      -0.17542279       0.40606592
O       -2.50626651      -0.83367845       0.34136711
C       -1.03677557       1.02428312      -0.43449319
C       -0.35694378      -0.26851304      -0.80022333
H        2.95506200       0.23485319       0.35810817
H        1.66689170       1.40524067       0.50889156
H        2.28183835       0.98693967      -1.09964089
H        1.46235836      -1.37837403      -0.77714571
H       -0.61853324      -0.01492700       1.67825651
H        0.17294315      -2.05746360       1.04634999
H       -3.14507023      -0.34015314       0.85961800
H       -1.83462693       1.30967525      -1.10823344
H       -0.46407842       1.84739478      -0.02492642
H       -0.69285732      -0.80900272      -1.67287952
17
Frame=16 idx=008616 GeodesicLength=1.0500321621331468 rxn_smarts="[C:1]([C@@:2]1([H:11])[C:3]([H:12])([H:13])[C@@:4]2([O:5][H:14])[C:6]([H:15])([H:16])[C@@:7]12[H:17])([H:8])([H:9])[H:10]>>[C:1]([C@@:2]([C:3][H:13])([C@@:7]1([H:17])[C@@:4]([O:5][H:14])([H:12])[C:6]1([H:15])[H:16])[H:11])([H:8])([H:9])[H:10]"
C        2.03148378       0.59001982      -0.10627033
C        1.03822004      -0.54628424      -0.21515437
C        0.31474992      -0.97878224       1.02851472
C       -1.28018847      -0.17172077       0.40866086
O       -2.50560347      -0.82701489       0.34708241
C       -1.03597866       1.02088702      -0.44166398
C       -0.35837179      -0.27422006      -0.80382248
H        2.95208788       0.23687947       0.36326080
H        1.66024103       1.40118342       0.52236994
H        2.27756102       0.99865161      -1.08906607
H        1.46750581      -1.37445991      -0.78461363
H       -0.59800235      -0.00572599       1.69720840
H        0.17087260      -2.06437902       1.03223352
H       -3.14125978      -0.32989867       0.86566691
H       -1.83581613       1.30295944      -1.11448931
H       -0.45957229       1.84579306      -0.04085355
H       -0.69792913      -0.82388805      -1.66906383
