12
Frame=0 idx=006776 GeodesicLength=0.0 rxn_smarts="[O:1]=[C:2]([C@@:3]1([H:9])[C:4]([H:10])([H:11])[N:5]1[C:6](=[O:7])[H:12])[H:8]>>[O:1]1[C@@:2]2([H:8])[C@:3]1([H:9])[C:4]([H:10])([H:11])[N:5]=[C:6]([H:12])[O:7]2"
O        1.54632235       0.47314442      -1.47004508
C        1.07598986      -0.43118993      -0.73828541
C        0.79987957       0.42375274       0.40069420
C       -0.46531432       1.12772502       0.42145566
N       -1.09955183      -0.07785487       0.98457129
C       -1.17332378      -1.03093287       0.08256217
O       -0.56948404      -1.04584469      -1.04242230
H        1.50289778      -1.43602641      -0.69075498
H        1.54080552       0.54310198       1.18375326
H       -0.82618651       1.38199974      -0.57587716
H       -0.52662237       1.96054503       1.11361218
H       -1.80541219      -1.88842012       0.33073613
12
Frame=1 idx=006776 GeodesicLength=0.06100372194649137 rxn_smarts="[O:1]=[C:2]([C@@:3]1([H:9])[C:4]([H:10])([H:11])[N:5]1[C:6](=[O:7])[H:12])[H:8]>>[O:1]1[C@@:2]2([H:8])[C@:3]1([H:9])[C:4]([H:10])([H:11])[N:5]=[C:6]([H:12])[O:7]2"
O        1.56747248       0.47482999      -1.44659517
C        1.07344222      -0.43694326      -0.73693501
C        0.79706639       0.42337747       0.39845354
C       -0.46754998       1.13428656       0.41903287
N       -1.09205944      -0.07610978       0.97374408
C       -1.18569454      -1.02955808       0.07404946
O       -0.58649364      -1.05478441      -1.05327190
H        1.49319746      -1.44514434      -0.70050877
H        1.53995090       0.55215985       1.17830278
H       -0.82750235       1.40049631      -0.57518925
H       -0.52790589       1.96031583       1.11970566
H       -1.78392362      -1.90292614       0.34921171
12
Frame=2 idx=006776 GeodesicLength=0.12199043113777569 rxn_smarts="[O:1]=[C:2]([C@@:3]1([H:9])[C:4]([H:10])([H:11])[N:5]1[C:6](=[O:7])[H:12])[H:8]>>[O:1]1[C@@:2]2([H:8])[C@:3]1([H:9])[C:4]([H:10])([H:11])[N:5]=[C:6]([H:12])[O:7]2"
O        1.58822428       0.47607735      -1.42314426
C        1.07105511      -0.44240000      -0.73573393
C        0.79444346       0.42321743       0.39612829
C       -0.46978229       1.14071206       0.41658295
N       -1.08447047      -0.07444463       0.96282954
C       -1.19731693      -1.02896285       0.06649774
O       -0.60345099      -1.06449288      -1.06345826
H        1.48399666      -1.45366509      -0.71072805
H        1.53894826       0.56094991       1.17305237
H       -0.82905201       1.41871198      -0.57433203
H       -0.52940252       1.95990634       1.12564291
H       -1.76319257      -1.91560962       0.36666274
12
Frame=3 idx=006776 GeodesicLength=0.1829819900012156 rxn_smarts="[O:1]=[C:2]([C@@:3]1([H:9])[C:4]([H:10])([H:11])[N:5]1[C:6](=[O:7])[H:12])[H:8]>>[O:1]1[C@@:2]2([H:8])[C@:3]1([H:9])[C:4]([H:10])([H:11])[N:5]=[C:6]([H:12])[O:7]2"
O        1.60860520       0.47696158      -1.39971932
C        1.06888264      -0.44753614      -0.73469109
C        0.79204572       0.42329218       0.39370727
C       -0.47199845       1.14700461       0.41410551
N       -1.07674505      -0.07286604       0.95184396
C       -1.20814229      -1.02915353       0.05989916
O       -0.62032855      -1.07502118      -1.07297352
H        1.47537141      -1.46156084      -0.72142588
H        1.53783780       0.56950976       1.16800393
H       -0.83084039       1.43665784      -0.57330384
H       -0.53109573       1.95932567       1.13142203
H       -1.74359229      -1.92661391       0.38313179
12
Frame=4 idx=006776 GeodesicLength=0.24381478052746816 rxn_smarts="[O:1]=[C:2]([C@@:3]1([H:9])[C:4]([H:10])([H:11])[N:5]1[C:6](=[O:7])[H:12])[H:8]>>[O:1]1[C@@:2]2([H:8])[C@:3]1([H:9])[C:4]([H:10])([H:11])[N:5]=[C:6]([H:12])[O:7]2"
O        1.62866859       0.47750629      -1.37630401
C        1.06691023      -0.45234063      -0.73382425
C        0.78984622       0.42360286       0.39117874
C       -0.47418918       1.15318507       0.41158888
N       -1.06890920      -0.07133605       0.94073827
C       -1.21815109      -1.03001076       0.05417697
O       -0.63707054      -1.08635891      -1.08182456
H        1.46723761      -1.46882333      -0.73263322
H        1.53659596       0.57781077       1.16317713
H       -0.83281399       1.45438113      -0.57210767
H       -0.53296291       1.95857488       1.13705414
H       -1.72516172      -1.93619131       0.39877958
12
Frame=5 idx=006776 GeodesicLength=0.3046581778604868 rxn_smarts="[O:1]=[C:2]([C@@:3]1([H:9])[C:4]([H:10])([H:11])[N:5]1[C:6](=[O:7])[H:12])[H:8]>>[O:1]1[C@@:2]2([H:8])[C@:3]1([H:9])[C:4]([H:10])([H:11])[N:5]=[C:6]([H:12])[O:7]2"
O        1.64845295       0.47773488      -1.35286002
C        1.06513733      -0.45683237      -0.73312536
C        0.78783415       0.42410504       0.38857038
C       -0.47633739       1.15930347       0.40901557
N       -1.06103374      -0.06978217       0.92944965
C       -1.22752550      -1.03147124       0.04919559
O       -0.65380741      -1.09844978      -1.09012208
H        1.45956854      -1.47550051      -0.74436925
H        1.53517172       0.58578952       1.15864186
H       -0.83491162       1.47200594      -0.57077884
H       -0.53495893       1.95769711       1.14254279
H       -1.70759009      -1.94459987       0.41383971
12
Frame=6 idx=006776 GeodesicLength=0.36548087471324614 rxn_smarts="[O:1]=[C:2]([C@@:3]1([H:9])[C:4]([H:10])([H:11])[N:5]1[C:6](=[O:7])[H:12])[H:8]>>[O:1]1[C@@:2]2([H:8])[C@:3]1([H:9])[C:4]([H:10])([H:11])[N:5]=[C:6]([H:12])[O:7]2"
O        1.66803748       0.47767574      -1.32936090
C        1.06356614      -0.46099286      -0.73259964
C        0.78600338       0.42480260       0.38587543
C       -0.47844461       1.16538972       0.40636915
N       -1.05316165      -0.06818513       0.91792140
C       -1.23629523      -1.03346242       0.04487703
O       -0.67053347      -1.11129435      -1.09788365
H        1.45229028      -1.48157660      -0.75664285
H        1.53358897       0.59339867       1.15439920
H       -0.83710983       1.48960180      -0.56931882
H       -0.53707120       1.95669402       1.14789018
H       -1.69087028      -1.95205119       0.42847346
12
Frame=7 idx=006776 GeodesicLength=0.42624481995686236 rxn_smarts="[O:1]=[C:2]([C@@:3]1([H:9])[C:4]([H:10])([H:11])[N:5]1[C:6](=[O:7])[H:12])[H:8]>>[O:1]1[C@@:2]2([H:8])[C@:3]1([H:9])[C:4]([H:10])([H:11])[N:5]=[C:6]([H:12])[O:7]2"
O        1.68743842       0.47729586      -1.30574588
C        1.06215435      -0.46485044      -0.73225526
C        0.78430441       0.42565068       0.38310894
C       -0.48050012       1.17146934       0.40363458
N       -1.04534910      -0.06648076       0.90610291
C       -1.24455145      -1.03589155       0.04113021
O       -0.68730085      -1.12483644      -1.10515933
H        1.44531537      -1.48709437      -0.76951578
H        1.53176698       0.60060440       1.15051699
H       -0.83933467       1.50723177      -0.56774938
H       -0.53928411       1.95558425       1.15309950
H       -1.67465923      -1.95868274       0.44283248
12
Frame=8 idx=006776 GeodesicLength=0.4870276401129357 rxn_smarts="[O:1]=[C:2]([C@@:3]1([H:9])[C:4]([H:10])([H:11])[N:5]1[C:6](=[O:7])[H:12])[H:8]>>[O:1]1[C@@:2]2([H:8])[C@:3]1([H:9])[C:4]([H:10])([H:11])[N:5]=[C:6]([H:12])[O:7]2"
O        1.70668925       0.47661037      -1.28199363
C        1.06092158      -0.46840571      -0.73209299
C        0.78274553       0.42664632       0.38027126
C       -0.48250085       1.17756617       0.40080373
N       -1.03761455      -0.06465889       0.89396165
C       -1.25235056      -1.03873533       0.03790726
O       -0.70415959      -1.13908388      -1.11196244
H        1.43864195      -1.49206031      -0.78300319
H        1.52971768       0.60740026       1.14700881
H       -0.84156978       1.52495063      -0.56607241
H       -0.54159099       1.95438481       1.15817392
H       -1.65892968      -1.96461444       0.45699803
12
Frame=9 idx=006776 GeodesicLength=0.547692903628976 rxn_smarts="[O:1]=[C:2]([C@@:3]1([H:9])[C:4]([H:10])([H:11])[N:5]1[C:6](=[O:7])[H:12])[H:8]>>[O:1]1[C@@:2]2([H:8])[C@:3]1([H:9])[C:4]([H:10])([H:11])[N:5]=[C:6]([H:12])[O:7]2"
O        1.72580493       0.47565493      -1.25812018
C        1.05986242      -0.47164381      -0.73211288
C        0.78132082       0.42779872       0.37735775
C       -0.48444443       1.18367971       0.39787109
N       -1.02995146      -0.06273266       0.88145878
C       -1.25966598      -1.04194193       0.03517543
O       -0.72101305      -1.15407844      -1.11826749
H        1.43218841      -1.49644062      -0.79708347
H        1.52744536       0.61376168       1.14384652
H       -0.84380050       1.54278171      -0.56428300
H       -0.54398856       1.95305633       1.16312461
H       -1.64375796      -1.96989562       0.47103285
12
Frame=10 idx=006776 GeodesicLength=0.6083532758419679 rxn_smarts="[O:1]=[C:2]([C@@:3]1([H:9])[C:4]([H:10])([H:11])[N:5]1[C:6](=[O:7])[H:12])[H:8]>>[O:1]1[C@@:2]2([H:8])[C@:3]1([H:9])[C:4]([H:10])([H:11])[N:5]=[C:6]([H:12])[O:7]2"
O        1.74482348       0.47438293      -1.23403689
C        1.05896584      -0.47458586      -0.73232416
C        0.78000699       0.42907212       0.37437732
C       -0.48632904       1.18983906       0.39481770
N       -1.02241963      -0.06065432       0.86855234
C       -1.26660207      -1.04547907       0.03287363
O       -0.73799124      -1.16977609      -1.12410967
H        1.42593608      -1.50026884      -0.81184297
H        1.52491378       0.61967239       1.14110138
H       -0.84598225       1.56078412      -0.56239940
H       -0.54647653       1.95163393       1.16794159
H       -1.62884541      -1.97462037       0.48504915
12
Frame=11 idx=006776 GeodesicLength=0.6689971693043302 rxn_smarts="[O:1]=[C:2]([C@@:3]1([H:9])[C:4]([H:10])([H:11])[N:5]1[C:6](=[O:7])[H:12])[H:8]>>[O:1]1[C@@:2]2([H:8])[C@:3]1([H:9])[C:4]([H:10])([H:11])[N:5]=[C:6]([H:12])[O:7]2"
O        1.76377931       0.47275641      -1.20968196
C        1.05820641      -0.47723669      -0.73272628
C        0.77877298       0.43044469       0.37134440
C       -0.48815246       1.19606713       0.39162651
N       -1.01506568      -0.05838255       0.85519398
C       -1.27319930      -1.04931644       0.03095834
O       -0.75511956      -1.18616874      -1.12951070
H        1.41980497      -1.50353236      -0.82734481
H        1.52208199       0.62508617       1.13880389
H       -0.84807521       1.57900119      -0.56043131
H       -0.54905656       1.95012182       1.17261788
H       -1.61397688      -1.97884063       0.49915005
12
Frame=12 idx=006776 GeodesicLength=0.7295924423322891 rxn_smarts="[O:1]=[C:2]([C@@:3]1([H:9])[C:4]([H:10])([H:11])[N:5]1[C:6](=[O:7])[H:12])[H:8]>>[O:1]1[C@@:2]2([H:8])[C@:3]1([H:9])[C:4]([H:10])([H:11])[N:5]=[C:6]([H:12])[O:7]2"
O        1.78267565       0.47080351      -1.18505929
C        1.05760038      -0.47959069      -0.73332123
C        0.77763036       0.43192701       0.36825105
C       -0.48991418       1.20236197       0.38829484
N       -1.00787296      -0.05594173       0.84135024
C       -1.27944411      -1.05343389       0.02942052
O       -0.77235554      -1.20330888      -1.13442550
H        1.41377520      -1.50620927      -0.84359545
H        1.51895769       0.63000480       1.13693901
H       -0.85007089       1.59745429      -0.55837058
H       -0.55173514       1.94849581       1.17716145
H       -1.59924645      -1.98256292       0.51335496
12
Frame=13 idx=006776 GeodesicLength=0.7901722412473162 rxn_smarts="[O:1]=[C:2]([C@@:3]1([H:9])[C:4]([H:10])([H:11])[N:5]1[C:6](=[O:7])[H:12])[H:8]>>[O:1]1[C@@:2]2([H:8])[C@:3]1([H:9])[C:4]([H:10])([H:11])[N:5]=[C:6]([H:12])[O:7]2"
O        1.80154819       0.46847187      -1.16009026
C        1.05713421      -0.48165057      -0.73411745
C        0.77655645       0.43349703       0.36510659
C       -0.49161147       1.20874531       0.38480211
N       -1.00088442      -0.05329408       0.82697841
C       -1.28538209      -1.05781740       0.02823207
O       -0.78975637      -1.22119154      -1.13885945
H        1.40779534      -1.50827892      -0.86067931
H        1.51550532       0.63439229       1.13554943
H       -0.85193171       1.61618090      -0.55623055
H       -0.55452507       1.94676388       1.18156066
H       -1.58444838      -1.98581877       0.52774773
12
Frame=14 idx=006776 GeodesicLength=0.8507490952667794 rxn_smarts="[O:1]=[C:2]([C@@:3]1([H:9])[C:4]([H:10])([H:11])[N:5]1[C:6](=[O:7])[H:12])[H:8]>>[O:1]1[C@@:2]2([H:8])[C@:3]1([H:9])[C:4]([H:10])([H:11])[N:5]=[C:6]([H:12])[O:7]2"
O        1.82043042       0.46573257      -1.13470163
C        1.05679583      -0.48341814      -0.73512062
C        0.77553557       0.43513999       0.36191898
C       -0.49324332       1.21523629       0.38112905
N       -0.99413363      -0.05041995       0.81202355
C       -1.29103463      -1.06245458       0.02738501
O       -0.80734482      -1.23983419      -1.14278903
H        1.40180666      -1.50972281      -0.87868644
H        1.51169056       0.63821467       1.13466508
H       -0.85362385       1.63522376      -0.55402327
H       -0.55743919       1.94492949       1.18580530
H       -1.56943960      -1.98862710       0.54239401
12
Frame=15 idx=006776 GeodesicLength=0.9113191943579905 rxn_smarts="[O:1]=[C:2]([C@@:3]1([H:9])[C:4]([H:10])([H:11])[N:5]1[C:6](=[O:7])[H:12])[H:8]>>[O:1]1[C@@:2]2([H:8])[C@:3]1([H:9])[C:4]([H:10])([H:11])[N:5]=[C:6]([H:12])[O:7]2"
O        1.83934868       0.46252969      -1.10881682
C        1.05657426      -0.48488493      -0.73633343
C        0.77455130       0.43684870       0.35869260
C       -0.49480680       1.22184127       0.37725402
N       -0.98763426      -0.04730320       0.79642846
C       -1.29640812      -1.06732799       0.02686631
O       -0.82513403      -1.25925915      -1.14618628
H        1.39573530      -1.51049058      -0.89770593
H        1.50746859       0.64144234       1.13431483
H       -0.85511340       1.65460905      -0.55176011
H       -0.56049394       1.94296662       1.18988559
H       -1.55408757      -1.99097182       0.55736076
12
Frame=16 idx=006776 GeodesicLength=0.9718679326499673 rxn_smarts="[O:1]=[C:2]([C@@:3]1([H:9])[C:4]([H:10])([H:11])[N:5]1[C:6](=[O:7])[H:12])[H:8]>>[O:1]1[C@@:2]2([H:8])[C@:3]1([H:9])[C:4]([H:10])([H:11])[N:5]=[C:6]([H:12])[O:7]2"
O        1.85828472       0.45885317      -1.08240787
C        1.05648362      -0.48604834      -0.73776443
C        0.77360448       0.43861666       0.35542976
C       -0.49629568       1.22856171       0.37317038
N       -0.98138296      -0.04394463       0.78016410
C       -1.30149023      -1.07243622       0.02668576
O       -0.84310119      -1.27952693      -1.14899663
H        1.38958952      -1.51052322      -0.91780914
H        1.50282387       0.64405382       1.13450890
H       -0.85637308       1.67433868      -0.54943742
H       -0.56370654       1.94086971       1.19379344
H       -1.53843652      -1.99281440       0.57266314
