16
Frame=0 idx=001218 GeodesicLength=0.0 rxn_smarts="[C:1]([C:2]([C@@:3]([C:4]([H:13])([H:14])[H:15])([C:5](=[O:6])[H:16])[H:12])([H:10])[H:11])([H:7])([H:8])[H:9]>>[C:1]([C:2](/[C:3](=[C:5](\[O:6][C:4]([H:13])([H:14])[H:15])[H:16])[H:12])([H:10])[H:11])([H:7])([H:8])[H:9]"
C        2.14698251      -0.38052170      -0.36803997
C        0.71873474      -0.51144219       0.15701005
C       -0.30569991       0.10184654      -0.77635043
C       -1.92191886      -0.28550440       0.96027898
C       -0.82694478       1.37295888      -0.54829879
O       -1.47686717       1.65919014       0.48163960
H        2.43586387       0.66853054      -0.45782197
H        2.85805212      -0.87342590       0.29922462
H        2.24308303      -0.83716879      -1.35590503
H        0.49967864      -1.57791793       0.30693997
H        0.64544454      -0.05094486       1.14588561
H       -0.12724209      -0.14932636      -1.82319154
H       -1.95572486       0.13352602       1.95553162
H       -2.84073866      -0.21524431       0.39733935
H       -1.41354569      -1.23852029       0.90112000
H       -0.67915742       2.18396459      -1.27536206
16
Frame=1 idx=001218 GeodesicLength=0.05275763337575793 rxn_smarts="[C:1]([C:2]([C@@:3]([C:4]([H:13])([H:14])[H:15])([C:5](=[O:6])[H:16])[H:12])([H:10])[H:11])([H:7])([H:8])[H:9]>>[C:1]([C:2](/[C:3](=[C:5](\[O:6][C:4]([H:13])([H:14])[H:15])[H:16])[H:12])([H:10])[H:11])([H:7])([H:8])[H:9]"
C        2.14965666      -0.37026097      -0.36039490
C        0.72149853      -0.52370678       0.15825076
C       -0.30860677       0.09223054      -0.76623435
C       -1.91851124      -0.27109933       0.94848180
C       -0.81399530       1.37317147      -0.54994235
O       -1.46031052       1.67312932       0.47966330
H        2.42800059       0.68337876      -0.42734178
H        2.86344724      -0.86934556       0.29922105
H        2.25273525      -0.80640068      -1.35676103
H        0.51013380      -1.59382110       0.29026421
H        0.64428278      -0.08277121       1.15538945
H       -0.14025033      -0.16463059      -1.81342146
H       -1.91191715       0.12952432       1.95260915
H       -2.85725546      -0.18456039       0.42067145
H       -1.45164353      -1.24528850       0.87859245
H       -0.70726454       2.16045071      -1.30904774
16
Frame=2 idx=001218 GeodesicLength=0.10562762063213278 rxn_smarts="[C:1]([C:2]([C@@:3]([C:4]([H:13])([H:14])[H:15])([C:5](=[O:6])[H:16])[H:12])([H:10])[H:11])([H:7])([H:8])[H:9]>>[C:1]([C:2](/[C:3](=[C:5](\[O:6][C:4]([H:13])([H:14])[H:15])[H:16])[H:12])([H:10])[H:11])([H:7])([H:8])[H:9]"
C        2.15221384      -0.35988022      -0.35244872
C        0.72429355      -0.53615987       0.15907972
C       -0.31139316       0.08258263      -0.75642336
C       -1.91492669      -0.25636160       0.93676313
C       -0.80094851       1.37314655      -0.55241862
O       -1.44258734       1.68692642       0.47743774
H        2.41981856       0.69781766      -0.39587017
H        2.86875783      -0.86526953       0.29922569
H        2.26222650      -0.77467860      -1.35713450
H        0.52092591      -1.60966658       0.27260615
H        0.64298504      -0.11530017       1.16422100
H       -0.15300838      -0.17996979      -1.80382019
H       -1.86883952       0.12491029       1.94816268
H       -2.87219883      -0.15326090       0.44521591
H       -1.49026913      -1.24978726       0.85675375
H       -0.73704966       2.13495097      -1.34135023
16
Frame=3 idx=001218 GeodesicLength=0.158627418915756 rxn_smarts="[C:1]([C:2]([C@@:3]([C:4]([H:13])([H:14])[H:15])([C:5](=[O:6])[H:16])[H:12])([H:10])[H:11])([H:7])([H:8])[H:9]>>[C:1]([C:2](/[C:3](=[C:5](\[O:6][C:4]([H:13])([H:14])[H:15])[H:16])[H:12])([H:10])[H:11])([H:7])([H:8])[H:9]"
C        2.15459266      -0.34930914      -0.34421262
C        0.72708783      -0.54879669       0.15946286
C       -0.31414490       0.07277448      -0.74698029
C       -1.91118244      -0.24131550       0.92513532
C       -0.78800831       1.37272241      -0.55591890
O       -1.42374159       1.70049895       0.47478596
H        2.41116313       0.71189128      -0.36348395
H        2.87397135      -0.86102410       0.29923744
H        2.27151466      -0.74196881      -1.35697042
H        0.53211955      -1.62542730       0.25398685
H        0.64148253      -0.14848885       1.17230136
H       -0.16558211      -0.19551688      -1.79443968
H       -1.82653262       0.11975722       1.94225187
H       -2.88555121      -0.12141895       0.47104734
H       -1.52940759      -1.25206779       0.83565645
H       -0.76778093       2.10768968      -1.37185960
16
Frame=4 idx=001218 GeodesicLength=0.2117632770809504 rxn_smarts="[C:1]([C:2]([C@@:3]([C:4]([H:13])([H:14])[H:15])([C:5](=[O:6])[H:16])[H:12])([H:10])[H:11])([H:7])([H:8])[H:9]>>[C:1]([C:2](/[C:3](=[C:5](\[O:6][C:4]([H:13])([H:14])[H:15])[H:16])[H:12])([H:10])[H:11])([H:7])([H:8])[H:9]"
C        2.15672960      -0.33848582      -0.33570744
C        0.72985305      -0.56161654       0.15937562
C       -0.31694472       0.06268184      -0.73795014
C       -1.90730944      -0.22600573       0.91361484
C       -0.77536220       1.37173599      -0.56058317
O       -1.40386600       1.71377799       0.47155180
H        2.40188448       0.72564044      -0.33028113
H        2.87907180      -0.85644678       0.29925685
H        2.28054339      -0.70825173      -1.35623489
H        0.54377553      -1.64108519       0.23443622
H        0.63972340      -0.18230181       1.17956967
H       -0.17803794      -0.21142999      -1.78531495
H       -1.78506499       0.11410772       1.93493199
H       -2.89729150      -0.08913908       0.49823714
H       -1.56902027      -1.25218314       0.81540021
H       -0.79868417       2.07900182      -1.40030263
16
Frame=5 idx=001218 GeodesicLength=0.2650467019191682 rxn_smarts="[C:1]([C:2]([C@@:3]([C:4]([H:13])([H:14])[H:15])([C:5](=[O:6])[H:16])[H:12])([H:10])[H:11])([H:7])([H:8])[H:9]>>[C:1]([C:2](/[C:3](=[C:5](\[O:6][C:4]([H:13])([H:14])[H:15])[H:16])[H:12])([H:10])[H:11])([H:7])([H:8])[H:9]"
C        2.15858092      -0.32740951      -0.32690046
C        0.73259130      -0.57463231       0.15880705
C       -0.31981801       0.05227270      -0.72933281
C       -1.90330087      -0.21044249       0.90220585
C       -0.76305739       1.37012901      -0.56637532
O       -1.38294777       1.72671677       0.46770733
H        2.39191145       0.73899963      -0.29624553
H        2.88404916      -0.85147684       0.29930738
H        2.28923709      -0.67351708      -1.35483585
H        0.55595005      -1.65661006       0.21392108
H        0.63768662      -0.21680616       1.18599723
H       -0.19038714      -0.22770749      -1.77646137
H       -1.74443577       0.10794756       1.92633312
H       -2.90734816      -0.05636967       0.52664902
H       -1.60898633      -1.25015911       0.79605220
H       -0.82972516       2.04906506      -1.42682891
16
Frame=6 idx=001218 GeodesicLength=0.318507357433159 rxn_smarts="[C:1]([C:2]([C@@:3]([C:4]([H:13])([H:14])[H:15])([C:5](=[O:6])[H:16])[H:12])([H:10])[H:11])([H:7])([H:8])[H:9]>>[C:1]([C:2](/[C:3](=[C:5](\[O:6][C:4]([H:13])([H:14])[H:15])[H:16])[H:12])([H:10])[H:11])([H:7])([H:8])[H:9]"
C        2.16010056      -0.31604205      -0.31778622
C        0.73528060      -0.58785207       0.15774004
C       -0.32281383       0.04146836      -0.72115500
C       -1.89915890      -0.19465105       0.89092469
C       -0.75118749       1.36779807      -0.57338246
O       -1.36107781       1.73927926       0.46309952
H        2.38113785       0.75199722      -0.26139054
H        2.88887453      -0.84604794       0.29940061
H        2.29755861      -0.63772204      -1.35274562
H        0.56867522      -1.67199238       0.19244536
H        0.63534213      -0.25199212       1.19154488
H       -0.20268010      -0.24446896      -1.76789041
H       -1.70466564       0.10133750       1.91647472
H       -2.91563206      -0.02323166       0.55642058
H       -1.64931492      -1.24603829       0.77763349
H       -0.86043875       2.01815816      -1.45133366
16
Frame=7 idx=001218 GeodesicLength=0.3721596894388434 rxn_smarts="[C:1]([C:2]([C@@:3]([C:4]([H:13])([H:14])[H:15])([C:5](=[O:6])[H:16])[H:12])([H:10])[H:11])([H:7])([H:8])[H:9]>>[C:1]([C:2](/[C:3](=[C:5](\[O:6][C:4]([H:13])([H:14])[H:15])[H:16])[H:12])([H:10])[H:11])([H:7])([H:8])[H:9]"
C        2.16124358      -0.30438598      -0.30833063
C        0.73791743      -0.60128094       0.15616167
C       -0.32595519       0.03024559      -0.71342466
C       -1.89486246      -0.17864654       0.87978558
C       -0.73978233       1.36470501      -0.58159125
O       -1.33829115       1.75142856       0.45763993
H        2.36947864       0.76457544      -0.22568229
H        2.89352882      -0.84012281       0.29955639
H        2.30544001      -0.60084297      -1.34987884
H        0.58198336      -1.68720227       0.16998195
H        0.63267304      -0.28789787       1.19617846
H       -0.21493984      -0.26173079      -1.75961468
H       -1.66574287       0.09430244       1.90543124
H       -2.92202114       0.01023918       0.58754240
H       -1.68994003      -1.23984848       0.76016979
H       -0.89072987       1.98646244      -1.47392506
16
Frame=8 idx=001218 GeodesicLength=0.4260185332101544 rxn_smarts="[C:1]([C:2]([C@@:3]([C:4]([H:13])([H:14])[H:15])([C:5](=[O:6])[H:16])[H:12])([H:10])[H:11])([H:7])([H:8])[H:9]>>[C:1]([C:2](/[C:3](=[C:5](\[O:6][C:4]([H:13])([H:14])[H:15])[H:16])[H:12])([H:10])[H:11])([H:7])([H:8])[H:9]"
C        2.16198033      -0.29244264      -0.29850558
C        0.74050136      -0.61492620       0.15406359
C       -0.32925142       0.01859414      -0.70613670
C       -1.89040860      -0.16243834       0.86878884
C       -0.72883730       1.36082349      -0.59097604
O       -1.31463203       1.76315200       0.45127840
H        2.35688955       0.77669558      -0.18911345
H        2.89798861      -0.83368952       0.29980706
H        2.31283194      -0.56288360      -1.34618113
H        0.59589965      -1.70220884       0.14650854
H        0.62967888      -0.32455676       1.19987292
H       -0.22718575      -0.27950420      -1.75163272
H       -1.62769745       0.08685259       1.89325696
H       -2.92640425       0.04399660       0.61998196
H       -1.73078187      -1.23160032       0.74371082
H       -0.92057164       1.95413600      -1.49472346
16
Frame=9 idx=001218 GeodesicLength=0.48010246295237746 rxn_smarts="[C:1]([C:2]([C@@:3]([C:4]([H:13])([H:14])[H:15])([C:5](=[O:6])[H:16])[H:12])([H:10])[H:11])([H:7])([H:8])[H:9]>>[C:1]([C:2](/[C:3](=[C:5](\[O:6][C:4]([H:13])([H:14])[H:15])[H:16])[H:12])([H:10])[H:11])([H:7])([H:8])[H:9]"
C        2.16226043      -0.28023791      -0.28825467
C        0.74304001      -0.62879502       0.15143010
C       -0.33271638       0.00652968      -0.69927576
C       -1.88574219      -0.14602016       0.85796271
C       -0.71834191       1.35616004      -0.60144636
O       -1.29007374       1.77441023       0.44401965
H        2.34331697       0.78823416      -0.15162986
H        2.90223032      -0.82671961       0.30019400
H        2.31964500      -0.52384440      -1.34152401
H        0.61046530      -1.71695065       0.12196546
H        0.62634910      -0.36205330       1.20257933
H       -0.23944822      -0.29773696      -1.74395035
H       -1.59047279       0.07896668       1.88009639
H       -2.92866961       0.07811776       0.65347342
H       -1.77165367      -1.22129043       0.72832626
H       -0.95018863       1.92122989      -1.51396632
16
Frame=10 idx=001218 GeodesicLength=0.5344630266886279 rxn_smarts="[C:1]([C:2]([C@@:3]([C:4]([H:13])([H:14])[H:15])([C:5](=[O:6])[H:16])[H:12])([H:10])[H:11])([H:7])([H:8])[H:9]>>[C:1]([C:2](/[C:3](=[C:5](\[O:6][C:4]([H:13])([H:14])[H:15])[H:16])[H:12])([H:10])[H:11])([H:7])([H:8])[H:9]"
C        2.16207205      -0.26777937      -0.27754097
C        0.74552739      -0.64288918       0.14824798
C       -0.33634158      -0.00594898      -0.69285974
C       -1.88084485      -0.12937963       0.84728782
C       -0.70827733       1.35070426      -0.61305114
O       -1.26463615       1.78521900       0.43574324
H        2.32872736       0.79916813      -0.11317359
H        2.90622611      -0.81923780       0.30076288
H        2.32586469      -0.48369792      -1.33585231
H        0.62567380      -1.73139897       0.09633345
H        0.62268208      -0.40039237       1.20426183
H       -0.25173650      -0.31647140      -1.73656869
H       -1.55408099       0.07069783       1.86592088
H       -2.92864446       0.11250259       0.68814249
H       -1.81256539      -1.20891058       0.71397744
H       -0.97964623       1.88781439      -1.53163156
16
Frame=11 idx=001218 GeodesicLength=0.5891409541315538 rxn_smarts="[C:1]([C:2]([C@@:3]([C:4]([H:13])([H:14])[H:15])([C:5](=[O:6])[H:16])[H:12])([H:10])[H:11])([H:7])([H:8])[H:9]>>[C:1]([C:2](/[C:3](=[C:5](\[O:6][C:4]([H:13])([H:14])[H:15])[H:16])[H:12])([H:10])[H:11])([H:7])([H:8])[H:9]"
C        2.16136765      -0.25508049      -0.26632391
C        0.74796115      -0.65720802       0.14450431
C       -0.34013935      -0.01883833      -0.68688511
C       -1.87567339      -0.11251413       0.83678779
C       -0.69864518       1.34444778      -0.62577141
O       -1.23834736       1.79555925       0.42638813
H        2.31305435       0.80942579      -0.07371509
H        2.90994326      -0.81122624       0.30155033
H        2.33142104      -0.44243563      -1.32907981
H        0.64154404      -1.74549623       0.06958519
H        0.61867303      -0.43960138       1.20487570
H       -0.26409036      -0.33571364      -1.72948552
H       -1.51848655       0.06206868       1.85079966
H       -2.92619999       0.14711279       0.72388604
H       -1.85341692      -1.19446510       0.70069176
H       -1.00896540       1.85396492      -1.54780807
16
Frame=12 idx=001218 GeodesicLength=0.6442188203867234 rxn_smarts="[C:1]([C:2]([C@@:3]([C:4]([H:13])([H:14])[H:15])([C:5](=[O:6])[H:16])[H:12])([H:10])[H:11])([H:7])([H:8])[H:9]>>[C:1]([C:2](/[C:3](=[C:5](\[O:6][C:4]([H:13])([H:14])[H:15])[H:16])[H:12])([H:10])[H:11])([H:7])([H:8])[H:9]"
C        2.16009454      -0.24215380      -0.25451871
C        0.75034148      -0.67175398       0.14016949
C       -0.34411217      -0.03212953      -0.68137293
C       -1.87014942      -0.09539352       0.82646342
C       -0.68944138       1.33738835      -0.63962496
O       -1.21115455       1.80541992       0.41585633
H        2.29622526       0.81887565      -0.03312331
H        2.91334701      -0.80269345       0.30258809
H        2.33622572      -0.39999532      -1.32104789
H        0.65809743      -1.75917229       0.04166222
H        0.61430990      -0.47973692       1.20433964
H       -0.27652949      -0.35546216      -1.72272058
H       -1.48360919       0.05310094       1.83477657
H       -2.92113163       0.18196763       0.76059986
H       -1.89409470      -1.17790846       0.68848926
H       -1.03841880       1.81964693      -1.56253649
16
Frame=13 idx=001218 GeodesicLength=0.6997044453682814 rxn_smarts="[C:1]([C:2]([C@@:3]([C:4]([H:13])([H:14])[H:15])([C:5](=[O:6])[H:16])[H:12])([H:10])[H:11])([H:7])([H:8])[H:9]>>[C:1]([C:2](/[C:3](=[C:5](\[O:6][C:4]([H:13])([H:14])[H:15])[H:16])[H:12])([H:10])[H:11])([H:7])([H:8])[H:9]"
C        2.15818983      -0.22900247      -0.24211774
C        0.75266332      -0.68652049       0.13522671
C       -0.34829802      -0.04582569      -0.67630141
C       -1.86423573      -0.07803459       0.81636781
C       -0.68069490       1.32950528      -0.65455400
O       -1.18312949       1.81476901       0.40415057
H        2.27816473       0.82745961       0.00854333
H        2.91638673      -0.79358434       0.30393058
H        2.34018285      -0.35642856      -1.31169238
H        0.67536697      -1.77234709       0.01254285
H        0.60959067      -0.52081769       1.20259793
H       -0.28914375      -0.37572625      -1.71625716
H       -1.44944794       0.04379077       1.81797971
H       -2.91340197       0.21700473       0.79803688
H       -1.93438631      -1.15926856       0.67751347
H       -1.06780700       1.78502634      -1.57596714
16
Frame=14 idx=001218 GeodesicLength=0.7557373593726432 rxn_smarts="[C:1]([C:2]([C@@:3]([C:4]([H:13])([H:14])[H:15])([C:5](=[O:6])[H:16])[H:12])([H:10])[H:11])([H:7])([H:8])[H:9]>>[C:1]([C:2](/[C:3](=[C:5](\[O:6][C:4]([H:13])([H:14])[H:15])[H:16])[H:12])([H:10])[H:11])([H:7])([H:8])[H:9]"
C        2.15561283      -0.21563823      -0.22901665
C        0.75491959      -0.70152024       0.12963619
C       -0.35268740      -0.05992607      -0.67171502
C       -1.85783970      -0.06038646       0.80649151
C       -0.67239909       1.32078564      -0.67065747
O       -1.15418512       1.82361625       0.39109218
H        2.25880679       0.83507039       0.05149565
H        2.91902573      -0.78392540       0.30562118
H        2.34324160      -0.31159460      -1.30084981
H        0.69334933      -1.78496821      -0.01784976
H        0.60449492      -0.56290755       1.19956040
H       -0.30194779      -0.39655129      -1.71011982
H       -1.41589432       0.03419943       1.80038255
H       -2.90274387       0.25222686       0.83624852
H       -1.97428035      -1.13847160       0.66771877
H       -1.09747314       1.74999108      -1.58803841
16
Frame=15 idx=001218 GeodesicLength=0.8123852151858981 rxn_smarts="[C:1]([C:2]([C@@:3]([C:4]([H:13])([H:14])[H:15])([C:5](=[O:6])[H:16])[H:12])([H:10])[H:11])([H:7])([H:8])[H:9]>>[C:1]([C:2](/[C:3](=[C:5](\[O:6][C:4]([H:13])([H:14])[H:15])[H:16])[H:12])([H:10])[H:11])([H:7])([H:8])[H:9]"
C        2.15229888      -0.20205383      -0.21516941
C        0.75710088      -0.71675822       0.12336978
C       -0.35730686      -0.07444176      -0.66761656
C       -1.85090194      -0.04244493       0.79687762
C       -0.66457852       1.31119749      -0.68795050
O       -1.12435544       1.83194920       0.37660253
H        2.23806364       0.84163145       0.09579679
H        2.92121237      -0.77369435       0.30769512
H        2.34530508      -0.26544391      -1.28842332
H        0.71206659      -1.79696110      -0.04955954
H        0.59901737      -0.60604752       1.19515298
H       -0.31501676      -0.41798055      -1.70429944
H       -1.38289190       0.02436372       1.78205154
H       -2.88905139       0.28758948       0.87512468
H       -2.01363359      -1.11551491       0.65918646
H       -1.12732839       1.71460973      -1.59883871
16
Frame=16 idx=001218 GeodesicLength=0.869753725984508 rxn_smarts="[C:1]([C:2]([C@@:3]([C:4]([H:13])([H:14])[H:15])([C:5](=[O:6])[H:16])[H:12])([H:10])[H:11])([H:7])([H:8])[H:9]>>[C:1]([C:2](/[C:3](=[C:5](\[O:6][C:4]([H:13])([H:14])[H:15])[H:16])[H:12])([H:10])[H:11])([H:7])([H:8])[H:9]"
C        2.14817567      -0.18824536      -0.20050061
C        0.75920400      -0.73224235       0.11638261
C       -0.36217599      -0.08938421      -0.66402469
C       -1.84332904      -0.02418029       0.78756339
C       -0.65725467       1.30070903      -0.70648283
O       -1.09360756       1.83976024       0.36058765
H        2.21583186       0.84702418       0.14157847
H        2.92289306      -0.76287780       0.31019008
H        2.34627350      -0.21787706      -1.27426882
H        0.73155596      -1.80823701      -0.08266737
H        0.59314343      -0.65031083       1.18927364
H       -0.32842537      -0.44006647      -1.69879971
H       -1.35036862       0.01431740       1.76305885
H       -2.87217977       0.32308876       0.91452424
H       -2.05229496      -1.09035671       0.65202198
H       -1.15744149       1.67887849      -1.60843688
