11
Frame=0 idx=009450 GeodesicLength=0.0 rxn_smarts="[O:1]([c+:2]1[n-:3][c:4]([O:5][H:9])[c:6]([H:10])[n:7]1[H:11])[H:8]>>[O:1]([C:2]1=[N:3][C:4](=[O:5])[C:6]([H:9])([H:10])[N:7]1[H:11])[H:8]"
O       -2.32603738       0.48202066       0.01406687
C       -1.02199436       0.28710043      -0.04528823
N       -0.15009336       1.24976539      -0.31729718
C        1.02357953       0.60846131      -0.17762569
O        2.20228103       1.03739945       0.05990676
C        0.91355675      -0.81061105       0.07282563
N       -0.51706879      -0.91402215       0.22945764
H       -2.48928999       1.41060389      -0.18788961
H        2.10746353      -0.15122111       0.61618568
H        1.32629571      -1.47029343      -0.68769477
H       -1.06869270      -1.72920340       0.42335290
11
Frame=1 idx=009450 GeodesicLength=0.04644408106603604 rxn_smarts="[O:1]([c+:2]1[n-:3][c:4]([O:5][H:9])[c:6]([H:10])[n:7]1[H:11])[H:8]>>[O:1]([C:2]1=[N:3][C:4](=[O:5])[C:6]([H:9])([H:10])[N:7]1[H:11])[H:8]"
O       -2.32671032       0.48289009       0.01704202
C       -1.02266252       0.28730143      -0.05278449
N       -0.15004522       1.25219024      -0.30517117
C        1.02643960       0.60378968      -0.20790598
O        2.20348143       1.03523241       0.03560104
C        0.91236547      -0.80941142       0.07595182
N       -0.51771300      -0.91405586       0.22345012
H       -2.48938616       1.41580783      -0.16397953
H        2.10100415      -0.13356801       0.64806923
H        1.33334736      -1.48628106      -0.66450254
H       -1.07012077      -1.73389534       0.39422949
11
Frame=2 idx=009450 GeodesicLength=0.09288885128354821 rxn_smarts="[O:1]([c+:2]1[n-:3][c:4]([O:5][H:9])[c:6]([H:10])[n:7]1[H:11])[H:8]>>[O:1]([C:2]1=[N:3][C:4](=[O:5])[C:6]([H:9])([H:10])[N:7]1[H:11])[H:8]"
O       -2.32727833       0.48375078       0.01858799
C       -1.02326058       0.28742986      -0.06045812
N       -0.14940065       1.25331266      -0.29535349
C        1.02886912       0.59861054      -0.23715073
O        2.20428844       1.03261110       0.01204381
C        0.91108700      -0.80825323       0.07936225
N       -0.51852303      -0.91438040       0.21711865
H       -2.48851489       1.42136028      -0.13740357
H        2.09385637      -0.11440678       0.67894173
H        1.34030078      -1.50166073      -0.64061225
H       -1.07142424      -1.73837408       0.36492375
11
Frame=3 idx=009450 GeodesicLength=0.13930617286630845 rxn_smarts="[O:1]([c+:2]1[n-:3][c:4]([O:5][H:9])[c:6]([H:10])[n:7]1[H:11])[H:8]>>[O:1]([C:2]1=[N:3][C:4](=[O:5])[C:6]([H:9])([H:10])[N:7]1[H:11])[H:8]"
O       -2.32769364       0.48486156       0.02021301
C       -1.02372626       0.28774715      -0.06706532
N       -0.14829516       1.25333935      -0.28798964
C        1.03100741       0.59305995      -0.26504206
O        2.20476585       1.02960273      -0.01007145
C        0.90973957      -0.80719644       0.08261753
N       -0.51940615      -0.91495352       0.21067420
H       -2.48700631       1.42666299      -0.11063570
H        2.08630239      -0.09440758       0.70858672
H        1.34683263      -1.51612085      -0.61707166
H       -1.07252032      -1.74259535       0.33578436
11
Frame=4 idx=009450 GeodesicLength=0.18571423022141334 rxn_smarts="[O:1]([c+:2]1[n-:3][c:4]([O:5][H:9])[c:6]([H:10])[n:7]1[H:11])[H:8]>>[O:1]([C:2]1=[N:3][C:4](=[O:5])[C:6]([H:9])([H:10])[N:7]1[H:11])[H:8]"
O       -2.32784385       0.48651136       0.02368681
C       -1.02404301       0.28832034      -0.07173299
N       -0.14680793       1.25230151      -0.28204427
C        1.03282968       0.58736286      -0.29132051
O        2.20497410       1.02631211      -0.03061141
C        0.90833164      -0.80624125       0.08543673
N       -0.52029604      -0.91559242       0.20462797
H       -2.48512995       1.43109659      -0.08672177
H        2.07879901      -0.07420845       0.73666724
H        1.35256898      -1.52941663      -0.59474601
H       -1.07338263      -1.74644602       0.30675821
11
Frame=5 idx=009450 GeodesicLength=0.23207674297907638 rxn_smarts="[O:1]([c+:2]1[n-:3][c:4]([O:5][H:9])[c:6]([H:10])[n:7]1[H:11])[H:8]>>[O:1]([C:2]1=[N:3][C:4](=[O:5])[C:6]([H:9])([H:10])[N:7]1[H:11])[H:8]"
O       -2.32777626       0.48834074       0.02786043
C       -1.02425014       0.28891763      -0.07597964
N       -0.14511130       1.25058498      -0.27894326
C        1.03458759       0.58134804      -0.31647738
O        2.20487828       1.02281746      -0.04926396
C        0.90688959      -0.80545933       0.08784242
N       -0.52117156      -0.91651304       0.19827813
H       -2.48278065       1.43539995      -0.06266930
H        2.07081351      -0.05352179       0.76405430
H        1.35791274      -1.54192721      -0.57316525
H       -1.07399180      -1.74998744       0.27846352
11
Frame=6 idx=009450 GeodesicLength=0.27840752745396347 rxn_smarts="[O:1]([c+:2]1[n-:3][c:4]([O:5][H:9])[c:6]([H:10])[n:7]1[H:11])[H:8]>>[O:1]([C:2]1=[N:3][C:4](=[O:5])[C:6]([H:9])([H:10])[N:7]1[H:11])[H:8]"
O       -2.32767033       0.49010182       0.03116132
C       -1.02431958       0.28965193      -0.07926386
N       -0.14318761       1.24843270      -0.27699359
C        1.03621141       0.57520785      -0.34040622
O        2.20460222       1.01905216      -0.06650071
C        0.90540770      -0.80480937       0.08975942
N       -0.52200026      -0.91742960       0.19245202
H       -2.48008430       1.43919003      -0.03902682
H        2.06284766      -0.03283019       0.79029795
H        1.36251863      -1.55353036      -0.55287166
H       -1.07432554      -1.75303698       0.25139215
11
Frame=7 idx=009450 GeodesicLength=0.3247177086031047 rxn_smarts="[O:1]([c+:2]1[n-:3][c:4]([O:5][H:9])[c:6]([H:10])[n:7]1[H:11])[H:8]>>[O:1]([C:2]1=[N:3][C:4](=[O:5])[C:6]([H:9])([H:10])[N:7]1[H:11])[H:8]"
O       -2.32747146       0.49191688       0.03452625
C       -1.02430763       0.29037872      -0.08214530
N       -0.14112796       1.24587619      -0.27631623
C        1.03779645       0.56891962      -0.36333686
O        2.20418533       1.01510992      -0.08234683
C        0.90391831      -0.80430192       0.09122772
N       -0.52279670      -0.91843268       0.18683600
H       -2.47707922       1.44266058      -0.01584698
H        2.05475538      -0.01198526       0.81572155
H        1.36657361      -1.56442899      -0.53360156
H       -1.07444609      -1.75571306       0.22528225
11
Frame=8 idx=009450 GeodesicLength=0.3710803302466391 rxn_smarts="[O:1]([c+:2]1[n-:3][c:4]([O:5][H:9])[c:6]([H:10])[n:7]1[H:11])[H:8]>>[O:1]([C:2]1=[N:3][C:4](=[O:5])[C:6]([H:9])([H:10])[N:7]1[H:11])[H:8]"
O       -2.32707766       0.49387860       0.03876664
C       -1.02422872       0.29106219      -0.08483292
N       -0.13897303       1.24294307      -0.27695005
C        1.03935679       0.56247332      -0.38547641
O        2.20358805       1.01103382      -0.09693643
C        0.90241204      -0.80394687       0.09233296
N       -0.52357372      -0.91954018       0.18126825
H       -2.47374386       1.44587305       0.00665778
H        2.04639553       0.00911525       0.84057074
H        1.37022757      -1.57478491      -0.51511176
H       -1.07438299      -1.75810734       0.19971121
11
Frame=9 idx=009450 GeodesicLength=0.4174184181405704 rxn_smarts="[O:1]([c+:2]1[n-:3][c:4]([O:5][H:9])[c:6]([H:10])[n:7]1[H:11])[H:8]>>[O:1]([C:2]1=[N:3][C:4](=[O:5])[C:6]([H:9])([H:10])[N:7]1[H:11])[H:8]"
O       -2.32643428       0.49607727       0.04387123
C       -1.02412018       0.29162958      -0.08783804
N       -0.13677148       1.23955968      -0.27933452
C        1.04093672       0.55573016      -0.40710371
O        2.20276551       1.00679417      -0.11046042
C        0.90086090      -0.80370175       0.09329953
N       -0.52439135      -0.92076622       0.17552285
H       -2.46989533       1.44890325       0.02955157
H        2.03749268       0.03078323       0.86511201
H        1.37371867      -1.58477013      -0.49674589
H       -1.07416186      -1.76023925       0.17412538
11
Frame=10 idx=009450 GeodesicLength=0.46381684221312025 rxn_smarts="[O:1]([c+:2]1[n-:3][c:4]([O:5][H:9])[c:6]([H:10])[n:7]1[H:11])[H:8]>>[O:1]([C:2]1=[N:3][C:4](=[O:5])[C:6]([H:9])([H:10])[N:7]1[H:11])[H:8]"
O       -2.32558327       0.49845521       0.04882515
C       -1.02404374       0.29191949      -0.09226850
N       -0.13456321       1.23557775      -0.28458940
C        1.04265457       0.54848518      -0.42865158
O        2.20166861       1.00244403      -0.12305386
C        0.89917703      -0.80350793       0.09446419
N       -0.52535549      -0.92214748       0.16918299
H       -2.46486123       1.45198427       0.05568494
H        2.02748164       0.05367348       0.88981043
H        1.37730901      -1.59465419      -0.47743749
H       -1.07388391      -1.76222981       0.14803312
11
Frame=11 idx=009450 GeodesicLength=0.5102167740700577 rxn_smarts="[O:1]([c+:2]1[n-:3][c:4]([O:5][H:9])[c:6]([H:10])[n:7]1[H:11])[H:8]>>[O:1]([C:2]1=[N:3][C:4](=[O:5])[C:6]([H:9])([H:10])[N:7]1[H:11])[H:8]"
O       -2.32449036       0.50100144       0.05440935
C       -1.02393143       0.29215323      -0.09681048
N       -0.13232265       1.23135650      -0.29070881
C        1.04441425       0.54103614      -0.44964959
O        2.20042414       0.99792153      -0.13471720
C        0.89744141      -0.80342958       0.09536665
N       -0.52633553      -0.92359140       0.16284253
H       -2.45936434       1.45467377       0.08152827
H        2.01707370       0.07695002       0.91404373
H        1.38053022      -1.60412937      -0.45861114
H       -1.07343941      -1.76394230       0.12230668
11
Frame=12 idx=009450 GeodesicLength=0.5566359874207488 rxn_smarts="[O:1]([c+:2]1[n-:3][c:4]([O:5][H:9])[c:6]([H:10])[n:7]1[H:11])[H:8]>>[O:1]([C:2]1=[N:3][C:4](=[O:5])[C:6]([H:9])([H:10])[N:7]1[H:11])[H:8]"
O       -2.32331395       0.50350789       0.05974043
C       -1.02377018       0.29236432      -0.10125066
N       -0.13003228       1.22703691      -0.29703743
C        1.04620630       0.53352085      -0.47001134
O        2.19911085       0.99325212      -0.14549410
C        0.89568930      -0.80347881       0.09585791
N       -0.52729585      -0.92504697       0.15675259
H       -2.45351664       1.45698483       0.10690164
H        2.00654416       0.10035481       0.93767828
H        1.38322883      -1.61313670      -0.44074059
H       -1.07285054      -1.76535926       0.09760328
11
Frame=13 idx=009450 GeodesicLength=0.6030660785270212 rxn_smarts="[O:1]([c+:2]1[n-:3][c:4]([O:5][H:9])[c:6]([H:10])[n:7]1[H:11])[H:8]>>[O:1]([C:2]1=[N:3][C:4](=[O:5])[C:6]([H:9])([H:10])[N:7]1[H:11])[H:8]"
O       -2.32212333       0.50589104       0.06487209
C       -1.02352423       0.29263564      -0.10506002
N       -0.12766980       1.22278848      -0.30269293
C        1.04798564       0.52612594      -0.48958466
O        2.19780487       0.98844892      -0.15542288
C        0.89398597      -0.80369628       0.09573316
N       -0.52815697      -0.92645674       0.15121134
H       -2.44772399       1.45885625       0.13048297
H        1.99628478       0.12348325       0.96053934
H        1.38524638      -1.62162482      -0.42449102
H       -1.07210932      -1.76645166       0.07441263
11
Frame=14 idx=009450 GeodesicLength=0.6494684156581709 rxn_smarts="[O:1]([c+:2]1[n-:3][c:4]([O:5][H:9])[c:6]([H:10])[n:7]1[H:11])[H:8]>>[O:1]([C:2]1=[N:3][C:4](=[O:5])[C:6]([H:9])([H:10])[N:7]1[H:11])[H:8]"
O       -2.32085106       0.50825837       0.06965057
C       -1.02321685       0.29289900      -0.10877425
N       -0.12525453       1.21848053      -0.30834378
C        1.04978171       0.51870239      -0.50862462
O        2.19641550       0.98350175      -0.16461059
C        0.89228483      -0.80403789       0.09522026
N       -0.52899737      -0.92785054       0.14592389
H       -2.44169141       1.46035921       0.15360252
H        1.98597570       0.14670561       0.98290422
H        1.38682892      -1.62973717      -0.40918804
H       -1.07127543      -1.76728126       0.05223982
11
Frame=15 idx=009450 GeodesicLength=0.695807512635936 rxn_smarts="[O:1]([c+:2]1[n-:3][c:4]([O:5][H:9])[c:6]([H:10])[n:7]1[H:11])[H:8]>>[O:1]([C:2]1=[N:3][C:4](=[O:5])[C:6]([H:9])([H:10])[N:7]1[H:11])[H:8]"
O       -2.31954566       0.51045343       0.07439825
C       -1.02277951       0.29324897      -0.11162496
N       -0.12274778       1.21431953      -0.31284368
C        1.05151511       0.51152008      -0.52688070
O        2.19502168       0.97843955      -0.17301616
C        0.89067587      -0.80456835       0.09397640
N       -0.52967288      -0.92917076       0.14127941
H       -2.43601782       1.46150490       0.17419312
H        1.97613229       0.16944561       1.00455216
H        1.38771682      -1.63738296      -0.39586005
H       -1.07029812      -1.76781000       0.03182621
11
Frame=16 idx=009450 GeodesicLength=0.7421692609978298 rxn_smarts="[O:1]([c+:2]1[n-:3][c:4]([O:5][H:9])[c:6]([H:10])[n:7]1[H:11])[H:8]>>[O:1]([C:2]1=[N:3][C:4](=[O:5])[C:6]([H:9])([H:10])[N:7]1[H:11])[H:8]"
O       -2.31822638       0.51255651       0.07907102
C       -1.02227156       0.29362744      -0.11404060
N       -0.12018120       1.21020582      -0.31683946
C        1.05323877       0.50446267      -0.54459191
O        2.19361000       0.97328108      -0.18075049
C        0.88914455      -0.80527054       0.09222974
N       -0.53027537      -0.93047608       0.13701779
H       -2.43047081       1.46242373       0.19339360
H        1.96653355       0.19204259       1.02574728
H        1.38818124      -1.64471419      -0.38386934
H       -1.06928279      -1.76813902       0.01263236
