9
Frame=0 idx=003605 GeodesicLength=0.0 rxn_smarts="[N:1]#[C:2][C@@:3]1([H:6])[C:4]([H:7])([H:8])[N:5]1[H:9]>>[N:1]1([H:8])[C:2][C@@:3]2([H:6])[C@:4]1([H:7])[N:5]2[H:9]"
N        0.90217634      -0.93156662      -0.90171773
C        1.42756828       0.21940590      -0.61316063
C        0.24533842       0.93705921       0.02460761
C       -0.75997196      -0.14881229      -0.20495601
N       -0.44175622       0.20712176       1.06400994
H        0.07979285       2.00457546      -0.00157863
H       -1.72078114      -0.30631678      -0.67655439
H        0.25305093      -1.57425423      -0.41813702
H        0.01458253      -0.40721243       1.72748687
9
Frame=1 idx=003605 GeodesicLength=0.09061923195471604 rxn_smarts="[N:1]#[C:2][C@@:3]1([H:6])[C:4]([H:7])([H:8])[N:5]1[H:9]>>[N:1]1([H:8])[C:2][C@@:3]2([H:6])[C@:4]1([H:7])[N:5]2[H:9]"
N        0.92020015      -0.92853585      -0.90063001
C        1.43167156       0.22026001      -0.59864219
C        0.24109279       0.93425832       0.02504287
C       -0.75555168      -0.15875777      -0.20378666
N       -0.44441387       0.20795219       1.06929696
H        0.07141117       2.00056551      -0.01417943
H       -1.72137930      -0.29584601      -0.67158033
H        0.23134596      -1.57494573      -0.43008274
H        0.02562322      -0.40495068       1.72456152
9
Frame=2 idx=003605 GeodesicLength=0.18117562472933005 rxn_smarts="[N:1]#[C:2][C@@:3]1([H:6])[C:4]([H:7])([H:8])[N:5]1[H:9]>>[N:1]1([H:8])[C:2][C@@:3]2([H:6])[C@:4]1([H:7])[N:5]2[H:9]"
N        0.93809890      -0.92538034      -0.89948830
C        1.43550021       0.22110822      -0.58441318
C        0.23690826       0.93137953       0.02545642
C       -0.75123267      -0.16850575      -0.20268668
N       -0.44707231       0.20875803       1.07449617
H        0.06337822       1.99634642      -0.02662802
H       -1.72174992      -0.28564287      -0.66630498
H        0.20995917      -1.57544358      -0.44198725
H        0.03621016      -0.40261965       1.72155580
9
Frame=3 idx=003605 GeodesicLength=0.2717788237453458 rxn_smarts="[N:1]#[C:2][C@@:3]1([H:6])[C:4]([H:7])([H:8])[N:5]1[H:9]>>[N:1]1([H:8])[C:2][C@@:3]2([H:6])[C@:4]1([H:7])[N:5]2[H:9]"
N        0.95591608      -0.92206570      -0.89833485
C        1.43912278       0.22197320      -0.57043612
C        0.23280046       0.92845317       0.02584683
C       -0.74702403      -0.17804460      -0.20166969
N       -0.44973328       0.20953051       1.07961110
H        0.05567242       1.99196377      -0.03895045
H       -1.72194118      -0.27572400      -0.66074162
H        0.18880397      -1.57583120      -0.45380567
H        0.04638277      -0.40025516       1.71848046
9
Frame=4 idx=003605 GeodesicLength=0.36245400452156507 rxn_smarts="[N:1]#[C:2][C@@:3]1([H:6])[C:4]([H:7])([H:8])[N:5]1[H:9]>>[N:1]1([H:8])[C:2][C@@:3]2([H:6])[C@:4]1([H:7])[N:5]2[H:9]"
N        0.97365389      -0.91853265      -0.89727066
C        1.44257147       0.22285091      -0.55666767
C        0.22877312       0.92547984       0.02621434
C       -0.74291025      -0.18739629      -0.20073695
N       -0.45238856       0.21026932       1.08465622
H        0.04828610       1.98742459      -0.05117181
H       -1.72196414      -0.26609654      -0.65492851
H        0.16782168      -1.57611541      -0.46544282
H        0.05615669      -0.39788376       1.71534788
9
Frame=5 idx=003605 GeodesicLength=0.4530051309522973 rxn_smarts="[N:1]#[C:2][C@@:3]1([H:6])[C:4]([H:7])([H:8])[N:5]1[H:9]>>[N:1]1([H:8])[C:2][C@@:3]2([H:6])[C@:4]1([H:7])[N:5]2[H:9]"
N        0.99128219      -0.91475568      -0.89636637
C        1.44581919       0.22372613      -0.54307965
C        0.22480844       0.92246216       0.02656951
C       -0.73886062      -0.19655373      -0.19988243
N       -0.45503079       0.21099592       1.08960307
H        0.04119890       1.98273191      -0.06324231
H       -1.72174472      -0.25676028      -0.64888795
H        0.14698229      -1.57636340      -0.47681907
H        0.06554512      -0.39548303       1.71210520
9
Frame=6 idx=003605 GeodesicLength=0.5436845489924003 rxn_smarts="[N:1]#[C:2][C@@:3]1([H:6])[C:4]([H:7])([H:8])[N:5]1[H:9]>>[N:1]1([H:8])[C:2][C@@:3]2([H:6])[C@:4]1([H:7])[N:5]2[H:9]"
N        1.00887397      -0.91066435      -0.89568308
C        1.44895781       0.22464120      -0.52965304
C        0.22093869       0.91942081       0.02690471
C       -0.73488471      -0.20552174      -0.19914373
N       -0.45766245       0.21168553       1.09447760
H        0.03442069       1.97791244      -0.07520075
H       -1.72139104      -0.24774399      -0.64265280
H        0.12617576      -1.57662589      -0.48784651
H        0.07457127      -0.39310400       1.70879760
9
Frame=7 idx=003605 GeodesicLength=0.6343154840944849 rxn_smarts="[N:1]#[C:2][C@@:3]1([H:6])[C:4]([H:7])([H:8])[N:5]1[H:9]>>[N:1]1([H:8])[C:2][C@@:3]2([H:6])[C@:4]1([H:7])[N:5]2[H:9]"
N        1.02639131      -0.90620450      -0.89533360
C        1.45194207       0.22556192      -0.51631214
C        0.21713671       0.91634953       0.02723412
C       -0.73094952      -0.21431840      -0.19849437
N       -0.46027234       0.21235213       1.09926555
H        0.02791845       1.97296575      -0.08706087
H       -1.72078185      -0.23901363      -0.63625335
H        0.10536295      -1.57695248      -0.49845577
H        0.08325222      -0.39074033       1.70541044
9
Frame=8 idx=003605 GeodesicLength=0.7249206546329211 rxn_smarts="[N:1]#[C:2][C@@:3]1([H:6])[C:4]([H:7])([H:8])[N:5]1[H:9]>>[N:1]1([H:8])[C:2][C@@:3]2([H:6])[C@:4]1([H:7])[N:5]2[H:9]"
N        1.04389448      -0.90131880      -0.89534749
C        1.45487140       0.22653026      -0.50306126
C        0.21343147       0.91328118       0.02754410
C       -0.72708600      -0.22295293      -0.19795274
N       -0.46286693       0.21295946       1.10399779
H        0.02169562       1.96795238      -0.09888449
H       -1.72002507      -0.23056191      -0.62973690
H        0.08447284      -1.57740326      -0.50855660
H        0.09161219      -0.38848638       1.70199760
9
Frame=9 idx=003605 GeodesicLength=0.8156127107999964 rxn_smarts="[N:1]#[C:2][C@@:3]1([H:6])[C:4]([H:7])([H:8])[N:5]1[H:9]>>[N:1]1([H:8])[C:2][C@@:3]2([H:6])[C@:4]1([H:7])[N:5]2[H:9]"
N        1.06141626      -0.89597534      -0.89576348
C        1.45768234       0.22753714      -0.48985024
C        0.20981500       0.91017952       0.02788530
C       -0.72317638      -0.23140092      -0.19755236
N       -0.46542196       0.21355735       1.10862365
H        0.01568867       1.96274688      -0.11054125
H       -1.71902861      -0.22240644      -0.62310735
H        0.06334956      -1.57803969      -0.51809740
H        0.09967512      -0.38619850       1.69840312
9
Frame=10 idx=003605 GeodesicLength=0.9062830904636876 rxn_smarts="[N:1]#[C:2][C@@:3]1([H:6])[C:4]([H:7])([H:8])[N:5]1[H:9]>>[N:1]1([H:8])[C:2][C@@:3]2([H:6])[C@:4]1([H:7])[N:5]2[H:9]"
N        1.07897534      -0.89008789      -0.89668077
C        1.46047371       0.22862342      -0.47667183
C        0.20630271       0.90709881       0.02821210
C       -0.71930381      -0.23970431      -0.19728902
N       -0.46795677       0.21408283       1.11318800
H        0.00994906       1.95750019      -0.12215949
H       -1.71786742      -0.21452354      -0.61643835
H        0.04197580      -1.57893714      -0.52694913
H        0.10745138      -0.38405237       1.69478848
9
Frame=11 idx=003605 GeodesicLength=0.9970384829078802 rxn_smarts="[N:1]#[C:2][C@@:3]1([H:6])[C:4]([H:7])([H:8])[N:5]1[H:9]>>[N:1]1([H:8])[C:2][C@@:3]2([H:6])[C@:4]1([H:7])[N:5]2[H:9]"
N        1.09665161      -0.88362391      -0.89807348
C        1.46314257       0.22974050      -0.46352071
C        0.20285730       0.90397251       0.02858168
C       -0.71531392      -0.24780213      -0.19716990
N       -0.47045030       0.21459914       1.11761662
H        0.00438655       1.95203128      -0.13356490
H       -1.71640311      -0.20689699      -0.60968500
H        0.02019744      -1.58015476      -0.53508887
H        0.11493186      -0.38186565       1.69090457
9
Frame=12 idx=003605 GeodesicLength=1.087794910830932 rxn_smarts="[N:1]#[C:2][C@@:3]1([H:6])[C:4]([H:7])([H:8])[N:5]1[H:9]>>[N:1]1([H:8])[C:2][C@@:3]2([H:6])[C@:4]1([H:7])[N:5]2[H:9]"
N        1.11444004      -0.87648225      -0.90007666
C        1.46579836       0.23096517      -0.45038422
C        0.19951890       0.90087602       0.02893712
C       -0.71131274      -0.25576663      -0.19723815
N       -0.47291866       0.21503106       1.12195673
H       -0.00089939       1.94653932      -0.14486908
H       -1.71473949      -0.19954997      -0.60296620
H       -0.00202684      -1.58177837      -0.54232583
H        0.12213981      -0.37983436       1.68696629
9
Frame=13 idx=003605 GeodesicLength=1.1785416191685387 rxn_smarts="[N:1]#[C:2][C@@:3]1([H:6])[C:4]([H:7])([H:8])[N:5]1[H:9]>>[N:1]1([H:8])[C:2][C@@:3]2([H:6])[C@:4]1([H:7])[N:5]2[H:9]"
N        1.13237838      -0.86859210      -0.90274103
C        1.46843063       0.23229835      -0.43725771
C        0.19628087       0.89779870       0.02928793
C       -0.70725126      -0.26359007      -0.19751330
N       -0.47536228       0.21538235       1.12618084
H       -0.00592128       1.94100232      -0.15601160
H       -1.71282892      -0.19247420      -0.59631533
H       -0.02480316      -1.58388492      -0.54854315
H        0.12907701      -0.37794043       1.68291333
9
Frame=14 idx=003605 GeodesicLength=1.2692861162978146 rxn_smarts="[N:1]#[C:2][C@@:3]1([H:6])[C:4]([H:7])([H:8])[N:5]1[H:9]>>[N:1]1([H:8])[C:2][C@@:3]2([H:6])[C@:4]1([H:7])[N:5]2[H:9]"
N        1.15051319      -0.85987480      -0.90612081
C        1.47104654       0.23375120      -0.42413520
C        0.19314528       0.89474062       0.02963632
C       -0.70309380      -0.27127556      -0.19802261
N       -0.47778136       0.21564441       1.13026917
H       -0.01068175       1.93542540      -0.16694932
H       -1.71064629      -0.18566631      -0.58977792
H       -0.04825034      -1.58655513      -0.55361263
H        0.13574852      -0.37618982       1.67871299
9
Frame=15 idx=003605 GeodesicLength=1.3600339445737264 rxn_smarts="[N:1]#[C:2][C@@:3]1([H:6])[C:4]([H:7])([H:8])[N:5]1[H:9]>>[N:1]1([H:8])[C:2][C@@:3]2([H:6])[C@:4]1([H:7])[N:5]2[H:9]"
N        1.16889482      -0.85023996      -0.91027231
C        1.47365977       0.23533773      -0.41101040
C        0.19011702       0.89170377       0.02998053
C       -0.69880926      -0.27883093      -0.19879562
N       -0.48017770       0.21580138       1.13420471
H       -0.01517767       1.92982161      -0.17764859
H       -1.70816925      -0.17912351      -0.58340636
H       -0.07249773      -1.58987119      -0.55739933
H        0.14216000      -0.37459890       1.67434737
9
Frame=16 idx=003605 GeodesicLength=1.4507866086655112 rxn_smarts="[N:1]#[C:2][C@@:3]1([H:6])[C:4]([H:7])([H:8])[N:5]1[H:9]>>[N:1]1([H:8])[C:2][C@@:3]2([H:6])[C@:4]1([H:7])[N:5]2[H:9]"
N        1.18758027      -0.83958945      -0.91524777
C        1.47628619       0.23707146      -0.39787575
C        0.18720213       0.88868930       0.03031721
C       -0.69436424      -0.28626839      -0.19986417
N       -0.48255315       0.21583357       1.13796900
H       -0.01940627       1.92420611      -0.18807903
H       -1.70537156      -0.17284436      -0.57725464
H       -0.09769136      -1.59391117      -0.55976637
H        0.14831799      -0.37318708       1.66980151
