12
Frame=0 idx=001582 GeodesicLength=0.0 rxn_smarts="[O:1]([C@:2]1([H:8])[C@:3]2([H:9])[C:4]([H:10])([H:11])[C@@:5]1([H:12])[O:6]2)[H:7]>>[O:1]([C@@:2]([C:3](=[C:4]([H:10])[H:11])[H:9])([C:5](=[O:6])[H:12])[H:8])[H:7]"
O        1.62888599      -0.23644211      -0.90756801
C        0.90550900       0.33718991       0.13950693
C       -0.42070158       0.90183247      -0.25932711
C       -1.12130934      -0.25230372      -0.68261578
C       -0.23083430      -0.45025759       0.83578270
O       -0.78283686       0.40204299       1.68505132
H        2.26168867      -0.85136718      -0.53133745
H        1.48818381       0.94582249       0.82739395
H       -0.79802735       1.90129085      -0.08408094
H       -2.20348415      -0.25580483      -0.67862284
H       -0.61408491      -0.91017773      -1.37746584
H       -0.11298894      -1.53182550       1.03328311
12
Frame=1 idx=001582 GeodesicLength=0.09452036692596016 rxn_smarts="[O:1]([C@:2]1([H:8])[C@:3]2([H:9])[C:4]([H:10])([H:11])[C@@:5]1([H:12])[O:6]2)[H:7]>>[O:1]([C@@:2]([C:3](=[C:4]([H:10])[H:11])[H:9])([C:5](=[O:6])[H:12])[H:8])[H:7]"
O        1.63816018      -0.23960903      -0.89294162
C        0.90430787       0.33186857       0.14797341
C       -0.41729013       0.89543694      -0.26423953
C       -1.14118327      -0.24605949      -0.67872496
C       -0.22478850      -0.46463231       0.84237352
O       -0.77508219       0.39156723       1.68873861
H        2.28628874      -0.83362874      -0.50922999
H        1.47957604       0.94901892       0.83506994
H       -0.76398923       1.91257832      -0.13480262
H       -2.22219706      -0.28506233      -0.64907094
H       -0.66256495      -0.86689806      -1.42652667
H       -0.10123750      -1.54458002       1.04138084
12
Frame=2 idx=001582 GeodesicLength=0.18883968069282894 rxn_smarts="[O:1]([C@:2]1([H:8])[C@:3]2([H:9])[C:4]([H:10])([H:11])[C@@:5]1([H:12])[O:6]2)[H:7]>>[O:1]([C@@:2]([C:3](=[C:4]([H:10])[H:11])[H:9])([C:5](=[O:6])[H:12])[H:8])[H:7]"
O        1.64728913      -0.24283729      -0.87791537
C        0.90297219       0.32642729       0.15676827
C       -0.41405119       0.88889634      -0.26856367
C       -1.16100676      -0.23956885      -0.67440862
C       -0.21853224      -0.47950817       0.84930506
O       -0.76758973       0.38017413       1.69285440
H        2.31075159      -0.81478480      -0.48688632
H        1.47066617       0.95201412       0.84310185
H       -0.72786116       1.92160272      -0.18965064
H       -2.23903994      -0.31612034      -0.61998416
H       -0.71486341      -0.81859781      -1.47468433
H       -0.08873465      -1.55769733       1.05006353
12
Frame=3 idx=001582 GeodesicLength=0.2828871941306225 rxn_smarts="[O:1]([C@:2]1([H:8])[C@:3]2([H:9])[C:4]([H:10])([H:11])[C@@:5]1([H:12])[O:6]2)[H:7]>>[O:1]([C@@:2]([C:3](=[C:4]([H:10])[H:11])[H:9])([C:5](=[O:6])[H:12])[H:8])[H:7]"
O        1.65634784      -0.24596400      -0.86245965
C        0.90149014       0.32091196       0.16591877
C       -0.41099824       0.88230647      -0.27226629
C       -1.18074953      -0.23274105      -0.66974276
C       -0.21206122      -0.49489170       0.85653168
O       -0.76041055       0.36778174       1.69739721
H        2.33500607      -0.79476667      -0.46434460
H        1.46139759       0.95483173       0.85157341
H       -0.68936506       1.92776680      -0.24894005
H       -2.25382306      -0.34901152      -0.59165144
H       -0.77139020      -0.76504592      -1.52125792
H       -0.07544377      -1.57117784       1.05924162
12
Frame=4 idx=001582 GeodesicLength=0.3765906009229911 rxn_smarts="[O:1]([C@:2]1([H:8])[C@:3]2([H:9])[C:4]([H:10])([H:11])[C@@:5]1([H:12])[O:6]2)[H:7]>>[O:1]([C@@:2]([C:3](=[C:4]([H:10])[H:11])[H:9])([C:5](=[O:6])[H:12])[H:8])[H:7]"
O        1.66543281      -0.24884985      -0.84653269
C        0.89985173       0.31537950       0.17542549
C       -0.40813181       0.87578982      -0.27536329
C       -1.20040381      -0.22545613      -0.66481340
C       -0.20537232      -0.51077290       0.86397319
O       -0.75358805       0.35432694       1.70233455
H        2.35902052      -0.77349706      -0.44158135
H        1.45170887       0.95751078       0.86054255
H       -0.64824975       1.93031783      -0.31290037
H       -2.26635237      -0.38373521      -0.56438586
H       -0.83257183      -0.70600753      -1.56548851
H       -0.06134397      -1.58500618       1.06878968
12
Frame=5 idx=001582 GeodesicLength=0.46982556587742036 rxn_smarts="[O:1]([C@:2]1([H:8])[C@:3]2([H:9])[C:4]([H:10])([H:11])[C@@:5]1([H:12])[O:6]2)[H:7]>>[O:1]([C@@:2]([C:3](=[C:4]([H:10])[H:11])[H:9])([C:5](=[O:6])[H:12])[H:8])[H:7]"
O        1.67467881      -0.25136444      -0.83009584
C        0.89805870       0.30991064       0.18524184
C       -0.40542861       0.86949151      -0.27796494
C       -1.21996260      -0.21758834      -0.65973107
C       -0.19845513      -0.52709665       0.87151486
O       -0.74715206       0.33981175       1.70758123
H        2.38271813      -0.75101499      -0.41853757
H        1.44154958       0.96013279       0.87000158
H       -0.60442397       1.92835069      -0.38147015
H       -2.27641781      -0.42023339      -0.53861736
H       -0.89874765      -0.64128528      -1.60651060
H       -0.04641739      -1.59911428       1.07858801
12
Frame=6 idx=001582 GeodesicLength=0.5623747263251875 rxn_smarts="[O:1]([C@:2]1([H:8])[C@:3]2([H:9])[C:4]([H:10])([H:11])[C@@:5]1([H:12])[O:6]2)[H:7]>>[O:1]([C@@:2]([C:3](=[C:4]([H:10])[H:11])[H:9])([C:5](=[O:6])[H:12])[H:8])[H:7]"
O        1.68425289      -0.25332689      -0.81314918
C        0.89611628       0.30460997       0.19526526
C       -0.40285645       0.86355392      -0.28029023
C       -1.23942557      -0.20903488      -0.65463180
C       -0.19129388      -0.54376108       0.87901222
O       -0.74112729       0.32431673       1.71298602
H        2.40591580      -0.72755452      -0.39517530
H        1.43087045       0.96284063       0.87984743
H       -0.55798508       1.92091857      -0.45414543
H       -2.28384609      -0.45829926      -0.51499419
H       -0.97001001      -0.57089282      -1.64327354
H       -0.03061104      -1.61337037       1.08854875
12
Frame=7 idx=001582 GeodesicLength=0.6543441442582326 rxn_smarts="[O:1]([C@:2]1([H:8])[C@:3]2([H:9])[C:4]([H:10])([H:11])[C@@:5]1([H:12])[O:6]2)[H:7]>>[O:1]([C@@:2]([C:3](=[C:4]([H:10])[H:11])[H:9])([C:5](=[O:6])[H:12])[H:8])[H:7]"
O        1.69432333      -0.25482241      -0.79559531
C        0.89405305       0.29948177       0.20540070
C       -0.40026211       0.85810079      -0.28266099
C       -1.25886847      -0.19952478      -0.64967791
C       -0.18392971      -0.56073124       0.88621927
O       -0.73558402       0.30786903       1.71828704
H        2.42905684      -0.70259116      -0.37121579
H        1.41958903       0.96559487       0.89010541
H       -0.50881341       1.90706515      -0.53068082
H       -2.28848071      -0.49757207      -0.49376570
H       -1.04700729      -0.49510345      -1.67470250
H       -0.01407653      -1.62776651       1.09828658
12
Frame=8 idx=001582 GeodesicLength=0.7456199774298594 rxn_smarts="[O:1]([C@:2]1([H:8])[C@:3]2([H:9])[C:4]([H:10])([H:11])[C@@:5]1([H:12])[O:6]2)[H:7]>>[O:1]([C@@:2]([C:3](=[C:4]([H:10])[H:11])[H:9])([C:5](=[O:6])[H:12])[H:8])[H:7]"
O        1.70514439      -0.25622598      -0.77739904
C        0.89199421       0.29456166       0.21531971
C       -0.39737931       0.85310875      -0.28582575
C       -1.27815518      -0.18914545      -0.64517485
C       -0.17633439      -0.57769196       0.89298485
O       -0.73050920       0.29106454       1.72303067
H        2.45200106      -0.67680350      -0.34637314
H        1.40781877       0.96863270       0.90024779
H       -0.45799056       1.88622612      -0.60906464
H       -2.28984194      -0.53847068      -0.47578892
H       -1.12986442      -0.41336221      -1.70008541
H        0.00311659      -1.64189399       1.10812874
12
Frame=9 idx=001582 GeodesicLength=0.8358372241888318 rxn_smarts="[O:1]([C@:2]1([H:8])[C@:3]2([H:9])[C:4]([H:10])([H:11])[C@@:5]1([H:12])[O:6]2)[H:7]>>[O:1]([C@@:2]([C:3](=[C:4]([H:10])[H:11])[H:9])([C:5](=[O:6])[H:12])[H:8])[H:7]"
O        1.71686714      -0.25751480      -0.75867930
C        0.88997154       0.28985132       0.22476631
C       -0.39406879       0.84849318      -0.29035083
C       -1.29738718      -0.17783731      -0.64132309
C       -0.16854879      -0.59447431       0.89914225
O       -0.72593070       0.27426755       1.72685007
H        2.47454801      -0.65067332      -0.32070303
H        1.39556053       0.97209962       0.90987361
H       -0.40620765       1.85841527      -0.68760180
H       -2.28786219      -0.58063818      -0.46222070
H       -1.21791641      -0.32647921      -1.71791195
H        0.02097449      -1.65550982       1.11815845
12
Frame=10 idx=001582 GeodesicLength=0.9254838107297552 rxn_smarts="[O:1]([C@:2]1([H:8])[C@:3]2([H:9])[C:4]([H:10])([H:11])[C@@:5]1([H:12])[O:6]2)[H:7]>>[O:1]([C@@:2]([C:3](=[C:4]([H:10])[H:11])[H:9])([C:5](=[O:6])[H:12])[H:8])[H:7]"
O        1.72990226      -0.25915985      -0.73907458
C        0.88816629       0.28520219       0.23366477
C       -0.38985801       0.84398583      -0.29692931
C       -1.31654286      -0.16546671      -0.63832881
C       -0.16056826      -0.61115995       0.90444584
O       -0.72195414       0.25753323       1.72928344
H        2.49766984      -0.62318678      -0.29350956
H        1.38273557       0.97583986       0.91909990
H       -0.35366316       1.82334145      -0.76640172
H       -2.28221817      -0.62360687      -0.45315385
H       -1.31279362      -0.23451733      -1.72695224
H        0.03912426      -1.66880508       1.12785611
12
Frame=11 idx=001582 GeodesicLength=1.01357919814102 rxn_smarts="[O:1]([C@:2]1([H:8])[C@:3]2([H:9])[C:4]([H:10])([H:11])[C@@:5]1([H:12])[O:6]2)[H:7]>>[O:1]([C@@:2]([C:3](=[C:4]([H:10])[H:11])[H:9])([C:5](=[O:6])[H:12])[H:8])[H:7]"
O        1.74408048      -0.26130758      -0.71898114
C        0.88656227       0.28057180       0.24156489
C       -0.38486450       0.83902741      -0.30614809
C       -1.33534652      -0.15288056      -0.63652237
C       -0.15236270      -0.62722834       0.90921491
O       -0.71863120       0.24197712       1.72990929
H        2.51989788      -0.59708183      -0.26525384
H        1.36949099       0.98043486       0.92658107
H       -0.30208316       1.78225730      -0.84239226
H       -2.27190133      -0.66932566      -0.45151751
H       -1.41302232      -0.13569989      -1.72561039
H        0.05818009      -1.68074462       1.13915545
12
Frame=12 idx=001582 GeodesicLength=1.100910087493132 rxn_smarts="[O:1]([C@:2]1([H:8])[C@:3]2([H:9])[C:4]([H:10])([H:11])[C@@:5]1([H:12])[O:6]2)[H:7]>>[O:1]([C@@:2]([C:3](=[C:4]([H:10])[H:11])[H:9])([C:5](=[O:6])[H:12])[H:8])[H:7]"
O        1.76015853      -0.26469461      -0.69741697
C        0.88542769       0.27574342       0.24861781
C       -0.37829359       0.83316027      -0.31882438
C       -1.35348807      -0.13991899      -0.63633420
C       -0.14390749      -0.64303066       0.91311203
O       -0.71630205       0.22725273       1.72813447
H        2.54310282      -0.56995814      -0.23449010
H        1.35552576       0.98550907       0.93301038
H       -0.25073408       1.73401261      -0.91863989
H       -2.25572715      -0.71743538      -0.45752644
H       -1.52307106      -0.02861565      -1.71046203
H        0.07730868      -1.69202468       1.15081932
12
Frame=13 idx=001582 GeodesicLength=1.1864967059414238 rxn_smarts="[O:1]([C@:2]1([H:8])[C@:3]2([H:9])[C:4]([H:10])([H:11])[C@@:5]1([H:12])[O:6]2)[H:7]>>[O:1]([C@@:2]([C:3](=[C:4]([H:10])[H:11])[H:9])([C:5](=[O:6])[H:12])[H:8])[H:7]"
O        1.77824441      -0.26895263      -0.67446633
C        0.88475524       0.27078797       0.25464577
C       -0.37013497       0.82590571      -0.33543393
C       -1.37083126      -0.12706673      -0.63820734
C       -0.13524489      -0.65844749       0.91625191
O       -0.71517907       0.21367427       1.72370195
H        2.56657176      -0.54303136      -0.20127699
H        1.34072376       0.99156315       0.93779404
H       -0.20026539       1.67849328      -0.99539613
H       -2.23306147      -0.76814828      -0.47494743
H       -1.64231581       0.08750175      -1.67633434
H        0.09673769      -1.70227963       1.16366882
12
Frame=14 idx=001582 GeodesicLength=1.2691617048834651 rxn_smarts="[O:1]([C@:2]1([H:8])[C@:3]2([H:9])[C:4]([H:10])([H:11])[C@@:5]1([H:12])[O:6]2)[H:7]>>[O:1]([C@@:2]([C:3](=[C:4]([H:10])[H:11])[H:9])([C:5](=[O:6])[H:12])[H:8])[H:7]"
O        1.79803030      -0.27370857      -0.65026551
C        0.88424297       0.26577762       0.25944616
C       -0.36068554       0.81713279      -0.35602947
C       -1.38771478      -0.11413267      -0.64204047
C       -0.12663222      -0.67335425       0.91860824
O       -0.71541680       0.20136646       1.71652036
H        2.58971499      -0.51666286      -0.16578782
H        1.32472257       0.99891765       0.94029299
H       -0.15098966       1.61443694      -1.07397805
H       -2.20355984      -0.82050723      -0.50873287
H       -1.76826593       0.21186689      -1.61610966
H        0.11655395      -1.71113278       1.17807609
12
Frame=15 idx=001582 GeodesicLength=1.3485575378115937 rxn_smarts="[O:1]([C@:2]1([H:8])[C@:3]2([H:9])[C:4]([H:10])([H:11])[C@@:5]1([H:12])[O:6]2)[H:7]>>[O:1]([C@@:2]([C:3](=[C:4]([H:10])[H:11])[H:9])([C:5](=[O:6])[H:12])[H:8])[H:7]"
O        1.81996568      -0.27864027      -0.62401859
C        0.88383407       0.26111445       0.26294612
C       -0.34946218       0.80712798      -0.38106966
C       -1.40389867      -0.10004237      -0.64798954
C       -0.11814896      -0.68784981       0.91935320
O       -0.71697832       0.18975343       1.70628418
H        2.61309022      -0.48916508      -0.12693438
H        1.30699021       1.00756508       0.94097400
H       -0.10439641       1.53935831      -1.15736683
H       -2.16845333      -0.86878308      -0.56076878
H       -1.89783206       0.33890542      -1.52280958
H        0.13528974      -1.71934406       1.19139985
12
Frame=16 idx=001582 GeodesicLength=1.4261836808701323 rxn_smarts="[O:1]([C@:2]1([H:8])[C@:3]2([H:9])[C:4]([H:10])([H:11])[C@@:5]1([H:12])[O:6]2)[H:7]>>[O:1]([C@@:2]([C:3](=[C:4]([H:10])[H:11])[H:9])([C:5](=[O:6])[H:12])[H:8])[H:7]"
O        1.84323802      -0.28076495      -0.59702232
C        0.88263135       0.25720210       0.26496166
C       -0.33826223       0.79637235      -0.40886278
C       -1.42075778      -0.08453151      -0.65452069
C       -0.10973864      -0.70293412       0.91794942
O       -0.71884628       0.17662469       1.69450773
H        2.63561877      -0.45913865      -0.08645180
H        1.28666798       1.01772467       0.93967332
H       -0.06225408       1.45266431      -1.24294798
H       -2.13951764      -0.90041837      -0.62580882
H       -2.01328975       0.45496184      -1.40381077
H        0.15451029      -1.72776236       1.20233302
