13
Frame=0 idx=003399 GeodesicLength=0.0 rxn_smarts="[N:1](=[C:2](/[O:3][C:4]1([H:9])[C:5]([H:10])([H:11])[C:6]1([H:12])[H:13])[H:8])\[H:7]>>[N:1](=[C:2](/[O+:3]=[C-:4][C:6]([C:5]([H:9])([H:10])[H:11])([H:12])[H:13])[H:8])\[H:7]"
N        2.92478392       0.39798276       0.47227556
C        1.94196580       0.11007590      -0.24934628
O        0.71363766       0.57379728       0.08513274
C       -0.32690226       0.07991424      -0.68934265
C       -1.51355778      -0.61451163       0.54458119
C       -1.60423939       0.68043560      -0.19149983
H        3.77083992       0.00026343       0.07922042
H        1.93208152      -0.48593448      -1.16604755
H       -0.58559121      -1.11596977      -0.25358392
H       -2.25225034      -1.37773501       0.32439766
H       -1.12103767      -0.58354600       1.55230079
H       -1.47927259       1.57126149       0.41329781
H       -2.40045761       0.76396619      -0.92138591
13
Frame=1 idx=003399 GeodesicLength=0.05506329410726625 rxn_smarts="[N:1](=[C:2](/[O:3][C:4]1([H:9])[C:5]([H:10])([H:11])[C:6]1([H:12])[H:13])[H:8])\[H:7]>>[N:1](=[C:2](/[O+:3]=[C-:4][C:6]([C:5]([H:9])([H:10])[H:11])([H:12])[H:13])[H:8])\[H:7]"
N        2.93743427       0.43186972       0.45271058
C        1.94887746       0.10582248      -0.24414259
O        0.72117802       0.57667614       0.08458835
C       -0.32214617       0.07799537      -0.67829060
C       -1.52397480      -0.62133722       0.53993752
C       -1.59778673       0.68259875      -0.18419623
H        3.78385257       0.03357815       0.06100472
H        1.93321535      -0.53008287      -1.13350226
H       -0.60398857      -1.13602631      -0.27229345
H       -2.28287014      -1.36444541       0.31983748
H       -1.13784715      -0.60169865       1.55067888
H       -1.47387968       1.56745316       0.42971705
H       -2.38206444       0.77759669      -0.92604945
13
Frame=2 idx=003399 GeodesicLength=0.10997264697056747 rxn_smarts="[N:1](=[C:2](/[O:3][C:4]1([H:9])[C:5]([H:10])([H:11])[C:6]1([H:12])[H:13])[H:8])\[H:7]>>[N:1](=[C:2](/[O+:3]=[C-:4][C:6]([C:5]([H:9])([H:10])[H:11])([H:12])[H:13])[H:8])\[H:7]"
N        2.94970385       0.46704147       0.43064917
C        1.95580802       0.10319211      -0.23907349
O        0.72867764       0.58152946       0.08293656
C       -0.31729023       0.07627014      -0.66720719
C       -1.53368594      -0.62841969       0.53514267
C       -1.59153414       0.68427029      -0.17675708
H        3.79538761       0.06194472       0.04435679
H        1.93451390      -0.57295419      -1.09806746
H       -0.62258962      -1.15529320      -0.29257859
H       -2.31220598      -1.35115746       0.31587886
H       -1.15369497      -0.61989647       1.54864033
H       -1.46925273       1.56314728       0.44619977
H       -2.36383743       0.79032554      -0.93012035
13
Frame=3 idx=003399 GeodesicLength=0.1647300985313831 rxn_smarts="[N:1](=[C:2](/[O:3][C:4]1([H:9])[C:5]([H:10])([H:11])[C:6]1([H:12])[H:13])[H:8])\[H:7]>>[N:1](=[C:2](/[O+:3]=[C-:4][C:6]([C:5]([H:9])([H:10])[H:11])([H:12])[H:13])[H:8])\[H:7]"
N        2.96151884       0.50233358       0.40660265
C        1.96272316       0.10152636      -0.23377344
O        0.73617784       0.58805998       0.08019662
C       -0.31231599       0.07457083      -0.65602898
C       -1.54289084      -0.63573047       0.53014999
C       -1.58538868       0.68553045      -0.16920912
H        3.80604315       0.08748504       0.02819176
H        1.93596931      -0.61482984      -1.05932456
H       -0.64165992      -1.17380210      -0.31447125
H       -2.34056615      -1.33773302       0.31244085
H       -1.16882452      -0.63820606       1.54616892
H       -1.46515399       1.55838598       0.46274288
H       -2.34563222       0.80240927      -0.93368632
13
Frame=4 idx=003399 GeodesicLength=0.21933388447842087 rxn_smarts="[N:1](=[C:2](/[O:3][C:4]1([H:9])[C:5]([H:10])([H:11])[C:6]1([H:12])[H:13])[H:8])\[H:7]>>[N:1](=[C:2](/[O+:3]=[C-:4][C:6]([C:5]([H:9])([H:10])[H:11])([H:12])[H:13])[H:8])\[H:7]"
N        2.97286469       0.53745887       0.38052756
C        1.96958122       0.10078006      -0.22826002
O        0.74366164       0.59633042       0.07611925
C       -0.30726139       0.07289676      -0.64480989
C       -1.55156436      -0.64329343       0.52494571
C       -1.57936339       0.68638858      -0.16153656
H        3.81594125       0.11037431       0.01262895
H        1.93750473      -0.65563233      -1.01702584
H       -0.66124826      -1.19145402      -0.33807712
H       -2.36792342      -1.32422197       0.30957555
H       -1.18313256      -0.65667469       1.54323280
H       -1.46153579       1.55316263       0.47936984
H       -2.32752435       0.81388482      -0.93669022
13
Frame=5 idx=003399 GeodesicLength=0.27376084748215507 rxn_smarts="[N:1](=[C:2](/[O:3][C:4]1([H:9])[C:5]([H:10])([H:11])[C:6]1([H:12])[H:13])[H:8])\[H:7]>>[N:1](=[C:2](/[O+:3]=[C-:4][C:6]([C:5]([H:9])([H:10])[H:11])([H:12])[H:13])[H:8])\[H:7]"
N        2.98363771       0.57190246       0.35263152
C        1.97631777       0.10096846      -0.22267822
O        0.75109109       0.60646725       0.07025159
C       -0.30220240       0.07123805      -0.63368284
C       -1.55962777      -0.65111377       0.51956465
C       -1.57348858       0.68683890      -0.15373360
H        3.82511685       0.13065940      -0.00201287
H        1.93908848      -0.69504303      -0.97117978
H       -0.68136950      -1.20814289      -0.36344762
H       -2.39416276      -1.31071777       0.30744733
H       -1.19640137      -0.67527136       1.53982854
H       -1.45833663       1.54748199       0.49605353
H       -2.30966289       0.82473232      -0.93904222
13
Frame=6 idx=003399 GeodesicLength=0.3280663493892913 rxn_smarts="[N:1](=[C:2](/[O:3][C:4]1([H:9])[C:5]([H:10])([H:11])[C:6]1([H:12])[H:13])[H:8])\[H:7]>>[N:1](=[C:2](/[O+:3]=[C-:4][C:6]([C:5]([H:9])([H:10])[H:11])([H:12])[H:13])[H:8])\[H:7]"
N        2.99408509       0.60592567       0.32231760
C        1.98291682       0.10171460      -0.21649476
O        0.75849609       0.61826784       0.06268696
C       -0.29706834       0.06957655      -0.62255342
C       -1.56720972      -0.65927016       0.51383912
C       -1.56767864       0.68693119      -0.14575369
H        3.83379778       0.14906417      -0.01640310
H        1.94049602      -0.73348928      -0.92067319
H       -0.70219351      -1.22376503      -0.39079951
H       -2.41950623      -1.29714735       0.30578707
H       -1.20883782      -0.69428702       1.53582047
H       -1.45539957       1.54127747       0.51297475
H       -2.29189799       0.83520134      -0.94074832
13
Frame=7 idx=003399 GeodesicLength=0.38204189719871073 rxn_smarts="[N:1](=[C:2](/[O:3][C:4]1([H:9])[C:5]([H:10])([H:11])[C:6]1([H:12])[H:13])[H:8])\[H:7]>>[N:1](=[C:2](/[O+:3]=[C-:4][C:6]([C:5]([H:9])([H:10])[H:11])([H:12])[H:13])[H:8])\[H:7]"
N        3.00356916       0.63684837       0.29244949
C        1.98914917       0.10280722      -0.20983666
O        0.76574983       0.63211629       0.05206498
C       -0.29208800       0.06767724      -0.61183506
C       -1.57397898      -0.66755742       0.50827222
C       -1.56207323       0.68650849      -0.13785373
H        3.84172458       0.16534515      -0.02967143
H        1.94208628      -0.76815672      -0.86888451
H       -0.72355073      -1.23837455      -0.41951033
H       -2.44343008      -1.28374732       0.30570444
H       -1.21974409      -0.71284413       1.53162114
H       -1.45269174       1.53477069       0.52935741
H       -2.27472218       0.84460669      -0.94187796
13
Frame=8 idx=003399 GeodesicLength=0.43583944720571977 rxn_smarts="[N:1](=[C:2](/[O:3][C:4]1([H:9])[C:5]([H:10])([H:11])[C:6]1([H:12])[H:13])[H:8])\[H:7]>>[N:1](=[C:2](/[O+:3]=[C-:4][C:6]([C:5]([H:9])([H:10])[H:11])([H:12])[H:13])[H:8])\[H:7]"
N        3.01252631       0.66640011       0.26106642
C        1.99503298       0.10487320      -0.20310851
O        0.77283164       0.64800887       0.03819159
C       -0.28726504       0.06587548      -0.60164682
C       -1.57987821      -0.67620807       0.50249531
C       -1.55664258       0.68568178      -0.12976870
H        3.84895472       0.17898826      -0.04128309
H        1.94318284      -0.80089208      -0.81300720
H       -0.74554088      -1.25164496      -0.45028061
H       -2.46597838      -1.27058406       0.30671039
H       -1.22894682      -0.73168700       1.52682205
H       -1.45005847       1.52776024       0.54585884
H       -2.25821810       0.85342822      -0.94204967
13
Frame=9 idx=003399 GeodesicLength=0.4892782728800877 rxn_smarts="[N:1](=[C:2](/[O:3][C:4]1([H:9])[C:5]([H:10])([H:11])[C:6]1([H:12])[H:13])[H:8])\[H:7]>>[N:1](=[C:2](/[O+:3]=[C-:4][C:6]([C:5]([H:9])([H:10])[H:11])([H:12])[H:13])[H:8])\[H:7]"
N        3.02037452       0.69245429       0.23126111
C        2.00032355       0.10780269      -0.19683653
O        0.77958520       0.66603153       0.01939107
C       -0.28289141       0.06383104      -0.59251191
C       -1.58458764      -0.68499269       0.49716928
C       -1.55149702       0.68428833      -0.12174997
H        3.85518792       0.18932171      -0.04902754
H        1.94417561      -0.82867424      -0.75798388
H       -0.76809633      -1.26382438      -0.48221112
H       -2.48668343      -1.25787341       0.31016687
H       -1.23566773      -0.74983742       1.52198925
H       -1.44723856       1.52053830       0.56161994
H       -2.24298468       0.86093425      -0.94127655
13
Frame=10 idx=003399 GeodesicLength=0.542521064705598 rxn_smarts="[N:1](=[C:2](/[O:3][C:4]1([H:9])[C:5]([H:10])([H:11])[C:6]1([H:12])[H:13])[H:8])\[H:7]>>[N:1](=[C:2](/[O+:3]=[C-:4][C:6]([C:5]([H:9])([H:10])[H:11])([H:12])[H:13])[H:8])\[H:7]"
N        3.02748488       0.71630816       0.20171668
C        2.00506665       0.11155728      -0.19076948
O        0.78606408       0.68552331      -0.00419540
C       -0.27884867       0.06160083      -0.58439519
C       -1.58838009      -0.69408766       0.49180453
C       -1.54638308       0.68251173      -0.11356043
H        3.86066943       0.19783564      -0.05447168
H        1.94456531      -0.85376866      -0.70016292
H       -0.79159241      -1.27475421      -0.51586404
H       -2.50597161      -1.24542155       0.31521805
H       -1.24030296      -0.76815324       1.51665799
H       -1.44369364       1.51288405       0.57735974
H       -2.22867789       0.86796432      -0.93933785
13
Frame=11 idx=003399 GeodesicLength=0.5955877634948052 rxn_smarts="[N:1](=[C:2](/[O:3][C:4]1([H:9])[C:5]([H:10])([H:11])[C:6]1([H:12])[H:13])[H:8])\[H:7]>>[N:1](=[C:2](/[O+:3]=[C-:4][C:6]([C:5]([H:9])([H:10])[H:11])([H:12])[H:13])[H:8])\[H:7]"
N        3.03393800       0.73830900       0.17238663
C        2.00930006       0.11557869      -0.18392210
O        0.79232294       0.70538011      -0.03222887
C       -0.27498278       0.05866007      -0.57697819
C       -1.59178518      -0.70345988       0.48638002
C       -1.54100392       0.68036207      -0.10521834
H        3.86557945       0.20571823      -0.05868018
H        1.94470289      -0.87573985      -0.64012211
H       -0.81630632      -1.28473122      -0.55066471
H       -2.52440349      -1.23295823       0.32146256
H       -1.24379564      -0.78672320       1.51094405
H       -1.43884390       1.50475268       0.59309441
H       -2.21472210       0.87485153      -0.93645318
13
Frame=12 idx=003399 GeodesicLength=0.6486921787891835 rxn_smarts="[N:1](=[C:2](/[O:3][C:4]1([H:9])[C:5]([H:10])([H:11])[C:6]1([H:12])[H:13])[H:8])\[H:7]>>[N:1](=[C:2](/[O+:3]=[C-:4][C:6]([C:5]([H:9])([H:10])[H:11])([H:12])[H:13])[H:8])\[H:7]"
N        3.04004905       0.76043673       0.13874316
C        2.01273983       0.12037082      -0.17604250
O        0.79828322       0.72585893      -0.06575590
C       -0.27138263       0.05574502      -0.57101231
C       -1.59438520      -0.71351714       0.47997454
C       -1.53523996       0.67803571      -0.09621679
H        3.86967413       0.21243336      -0.06152041
H        1.94317263      -0.89695557      -0.56993152
H       -0.84249794      -1.29290190      -0.58850528
H       -2.54166753      -1.22063926       0.32808220
H       -1.24514961      -0.80708234       1.50362871
H       -1.43215746       1.49558521       0.61014607
H       -2.20143854       0.88263044      -0.93158997
13
Frame=13 idx=003399 GeodesicLength=0.70178931102266 rxn_smarts="[N:1](=[C:2](/[O:3][C:4]1([H:9])[C:5]([H:10])([H:11])[C:6]1([H:12])[H:13])[H:8])\[H:7]>>[N:1](=[C:2](/[O+:3]=[C-:4][C:6]([C:5]([H:9])([H:10])[H:11])([H:12])[H:13])[H:8])\[H:7]"
N        3.04568652       0.78110978       0.10369940
C        2.01556927       0.12569231      -0.16637313
O        0.80405199       0.74528199      -0.10392506
C       -0.26779760       0.05177917      -0.56577444
C       -1.59700130      -0.72403111       0.47302589
C       -1.52877487       0.67533865      -0.08688693
H        3.87323635       0.21940602      -0.06473596
H        1.94093973      -0.91448891      -0.49411071
H       -0.87027830      -1.30003815      -0.62763968
H       -2.55855808      -1.20803854       0.33513512
H       -1.24599933      -0.82852573       1.49543784
H       -1.42312831       1.48553966       0.62771292
H       -2.18794608       0.89097487      -0.92556526
13
Frame=14 idx=003399 GeodesicLength=0.7549710117272608 rxn_smarts="[N:1](=[C:2](/[O:3][C:4]1([H:9])[C:5]([H:10])([H:11])[C:6]1([H:12])[H:13])[H:8])\[H:7]>>[N:1](=[C:2](/[O+:3]=[C-:4][C:6]([C:5]([H:9])([H:10])[H:11])([H:12])[H:13])[H:8])\[H:7]"
N        3.05089357       0.80057310       0.06593317
C        2.01777165       0.13226577      -0.15593300
O        0.80957875       0.76298526      -0.14714189
C       -0.26428560       0.04666144      -0.56145413
C       -1.59970467      -0.73508038       0.46543154
C       -1.52146976       0.67224548      -0.07704533
H        3.87616042       0.22605553      -0.06686075
H        1.93774820      -0.92754802      -0.41158873
H       -0.89979455      -1.30610044      -0.66810358
H       -2.57509923      -1.19518013       0.34249018
H       -1.24633305      -0.85141784       1.48618549
H       -1.41122019       1.47440985       0.64609165
H       -2.17424554       0.90013039      -0.91800463
13
Frame=15 idx=003399 GeodesicLength=0.8080564311399714 rxn_smarts="[N:1](=[C:2](/[O:3][C:4]1([H:9])[C:5]([H:10])([H:11])[C:6]1([H:12])[H:13])[H:8])\[H:7]>>[N:1](=[C:2](/[O+:3]=[C-:4][C:6]([C:5]([H:9])([H:10])[H:11])([H:12])[H:13])[H:8])\[H:7]"
N        3.05575344       0.81832320       0.02917979
C        2.02040397       0.13994308      -0.14578808
O        0.81512245       0.77631167      -0.19171439
C       -0.26023157       0.03855895      -0.55553547
C       -1.60446216      -0.74620837       0.45815515
C       -1.51300501       0.66848043      -0.06709640
H        3.87941809       0.23460478      -0.06918875
H        1.93646138      -0.93396661      -0.33208134
H       -0.93101922      -1.31253719      -0.70666098
H       -2.59323895      -1.18106085       0.34960845
H       -1.25024446      -0.87449850       1.47763736
H       -1.39667633       1.46256368       0.66418958
H       -2.15828163       0.90948575      -0.91070492
13
Frame=16 idx=003399 GeodesicLength=0.8613440524966715 rxn_smarts="[N:1](=[C:2](/[O:3][C:4]1([H:9])[C:5]([H:10])([H:11])[C:6]1([H:12])[H:13])[H:8])\[H:7]>>[N:1](=[C:2](/[O+:3]=[C-:4][C:6]([C:5]([H:9])([H:10])[H:11])([H:12])[H:13])[H:8])\[H:7]"
N        3.06044968       0.83493831      -0.01265771
C        2.02244398       0.14950458      -0.13483220
O        0.82042942       0.78666346      -0.24053846
C       -0.25597085       0.02919870      -0.55019768
C       -1.60965489      -0.75807426       0.44967223
C       -1.50333664       0.66419255      -0.05637494
H        3.88203817       0.24309476      -0.07200455
H        1.93354061      -0.93480729      -0.24161746
H       -0.96403129      -1.31742791      -0.74708008
H       -2.61138410      -1.16632043       0.35608254
H       -1.25443733      -0.90001483       1.46745864
H       -1.37875891       1.44897228       0.68373634
H       -2.14132787       0.92008009      -0.90164667
