12
Frame=0 idx=011940 GeodesicLength=0.0 rxn_smarts="[N:1]([c:2]1[c:3]([H:10])[n:4]([H:11])[c:5]([O:6][H:12])[n:7]1)([H:8])[H:9]>>[N:1]([C:2]1=[C:3]([H:10])[N:4]=[C:5]=[N:7]1)([H:8])[H:9].[O:6]([H:11])[H:12]"
N        2.25329055       0.63166744      -0.21088301
C        0.94029863       0.17765050      -0.06644252
C        0.45243175      -1.11418642      -0.10237226
N       -0.92946377      -1.01419097      -0.00584409
C       -1.08737399       0.27802009       0.08283261
O       -2.51472584       0.41380212       0.31488185
N       -0.08405438       1.09531707       0.07423927
H        2.93570256      -0.02193478       0.13830212
H        2.37604863       1.53754884       0.21405593
H        0.96656913      -2.05421405      -0.20883767
H       -2.34632891      -0.73840061       0.21715455
H       -2.96239432       0.80892082      -0.44708682
12
Frame=1 idx=011940 GeodesicLength=0.050103385226203424 rxn_smarts="[N:1]([c:2]1[c:3]([H:10])[n:4]([H:11])[c:5]([O:6][H:12])[n:7]1)([H:8])[H:9]>>[N:1]([C:2]1=[C:3]([H:10])[N:4]=[C:5]=[N:7]1)([H:8])[H:9].[O:6]([H:11])[H:12]"
N        2.25026525       0.63383913      -0.21413312
C        0.93783710       0.17789865      -0.07128299
C        0.45172098      -1.11401218      -0.10630773
N       -0.92796492      -1.01848484       0.02571861
C       -1.08699441       0.27394830       0.12618987
O       -2.51965338       0.40938631       0.30722365
N       -0.08831180       1.09425432       0.06340303
H        2.93345101      -0.01861215       0.13564855
H        2.37098602       1.53998068       0.21083448
H        0.96512991      -2.05389231      -0.21738470
H       -2.35288041      -0.75730117       0.19848955
H       -2.93358535       0.83299525      -0.45839922
12
Frame=2 idx=011940 GeodesicLength=0.10031761327288824 rxn_smarts="[N:1]([c:2]1[c:3]([H:10])[n:4]([H:11])[c:5]([O:6][H:12])[n:7]1)([H:8])[H:9]>>[N:1]([C:2]1=[C:3]([H:10])[N:4]=[C:5]=[N:7]1)([H:8])[H:9].[O:6]([H:11])[H:12]"
N        2.24592585       0.63654679      -0.21887775
C        0.93467373       0.17807564      -0.07403373
C        0.45034239      -1.11396715      -0.10679009
N       -0.92623028      -1.02271160       0.06083403
C       -1.08689476       0.27027721       0.16832844
O       -2.52368055       0.40587196       0.29578044
N       -0.09319298       1.09221905       0.06103056
H        2.93125544      -0.01517167       0.12804426
H        2.36577800       1.54226168       0.20726817
H        0.96243568      -2.05332115      -0.22794564
H       -2.35756219      -0.77570747       0.17922630
H       -2.90285034       0.85562672      -0.47286497
12
Frame=3 idx=011940 GeodesicLength=0.15062164268862266 rxn_smarts="[N:1]([c:2]1[c:3]([H:10])[n:4]([H:11])[c:5]([O:6][H:12])[n:7]1)([H:8])[H:9]>>[N:1]([C:2]1=[C:3]([H:10])[N:4]=[C:5]=[N:7]1)([H:8])[H:9].[O:6]([H:11])[H:12]"
N        2.24168869       0.63893545      -0.22262926
C        0.93140303       0.17811300      -0.07763760
C        0.44862583      -1.11396967      -0.10781530
N       -0.92455258      -1.02625793       0.09080220
C       -1.08694729       0.26746044       0.20277233
O       -2.52552890       0.40280322       0.28577683
N       -0.09836173       1.08994364       0.05675491
H        2.92852785      -0.01197020       0.12277027
H        2.36007770       1.54437773       0.20451347
H        0.95950721      -2.05310325      -0.23534353
H       -2.35968588      -0.79397871       0.16187209
H       -2.87475391       0.87764629      -0.48183642
12
Frame=4 idx=011940 GeodesicLength=0.20089476175949286 rxn_smarts="[N:1]([c:2]1[c:3]([H:10])[n:4]([H:11])[c:5]([O:6][H:12])[n:7]1)([H:8])[H:9]>>[N:1]([C:2]1=[C:3]([H:10])[N:4]=[C:5]=[N:7]1)([H:8])[H:9].[O:6]([H:11])[H:12]"
N        2.23740776       0.64119670      -0.22637750
C        0.92821907       0.17810003      -0.07964573
C        0.44685461      -1.11395512      -0.10652721
N       -0.92304739      -1.02937339       0.11842820
C       -1.08740885       0.26529691       0.23240194
O       -2.52670514       0.40003326       0.27528546
N       -0.10338519       1.08761386       0.05431096
H        2.92615164      -0.00891148       0.11667320
H        2.35483649       1.54634968       0.20161368
H        0.95603126      -2.05283650      -0.24247932
H       -2.36048033      -0.81235699       0.14544839
H       -2.84847395       0.89884304      -0.48913208
12
Frame=5 idx=011940 GeodesicLength=0.2512088560546504 rxn_smarts="[N:1]([c:2]1[c:3]([H:10])[n:4]([H:11])[c:5]([O:6][H:12])[n:7]1)([H:8])[H:9]>>[N:1]([C:2]1=[C:3]([H:10])[N:4]=[C:5]=[N:7]1)([H:8])[H:9].[O:6]([H:11])[H:12]"
N        2.23212584       0.64357813      -0.23149970
C        0.92483723       0.17785738      -0.07723342
C        0.44514081      -1.11425746      -0.10002107
N       -0.92201458      -1.03238858       0.14473377
C       -1.08872700       0.26323254       0.25994450
O       -2.52742335       0.39735488       0.26243863
N       -0.10835068       1.08497349       0.05845732
H        2.92433701      -0.00551669       0.10638712
H        2.35011483       1.54855785       0.19667564
H        0.95168456      -2.05236889      -0.25014166
H       -2.36018136      -0.83100421       0.12720951
H       -2.82154330       0.91998155      -0.49695065
12
Frame=6 idx=011940 GeodesicLength=0.3015469668670606 rxn_smarts="[N:1]([c:2]1[c:3]([H:10])[n:4]([H:11])[c:5]([O:6][H:12])[n:7]1)([H:8])[H:9]>>[N:1]([C:2]1=[C:3]([H:10])[N:4]=[C:5]=[N:7]1)([H:8])[H:9].[O:6]([H:11])[H:12]"
N        2.22694569       0.64578906      -0.23643994
C        0.92163442       0.17751384      -0.07415451
C        0.44355462      -1.11462794      -0.09296682
N       -0.92130025      -1.03506728       0.16764741
C       -1.09036156       0.26144552       0.28416745
O       -2.52762538       0.39481406       0.24977117
N       -0.11313949       1.08232469       0.06262573
H        2.92264366      -0.00217041       0.09635078
H        2.34560177       1.55076232       0.19155830
H        0.94733802      -2.05205532      -0.25593019
H       -2.35900541      -0.84996544       0.10953817
H       -2.79628609       0.94123688      -0.50216754
12
Frame=7 idx=011940 GeodesicLength=0.3518776172322677 rxn_smarts="[N:1]([c:2]1[c:3]([H:10])[n:4]([H:11])[c:5]([O:6][H:12])[n:7]1)([H:8])[H:9]>>[N:1]([C:2]1=[C:3]([H:10])[N:4]=[C:5]=[N:7]1)([H:8])[H:9].[O:6]([H:11])[H:12]"
N        2.22155987       0.64792918      -0.24157572
C        0.91853006       0.17710207      -0.06929184
C        0.44208190      -1.11506270      -0.08421064
N       -0.92095462      -1.03759592       0.18899839
C       -1.09244850       0.25985621       0.30641948
O       -2.52743759       0.39245739       0.23623359
N       -0.11775588       1.07970830       0.06833306
H        2.92116359       0.00118762       0.08529826
H        2.34140791       1.55301098       0.18586005
H        0.94256518      -2.05162434      -0.26159250
H       -2.35707975      -0.86925835       0.09205769
H       -2.77163217       0.96228956      -0.50652981
12
Frame=8 idx=011940 GeodesicLength=0.4023049555731459 rxn_smarts="[N:1]([c:2]1[c:3]([H:10])[n:4]([H:11])[c:5]([O:6][H:12])[n:7]1)([H:8])[H:9]>>[N:1]([C:2]1=[C:3]([H:10])[N:4]=[C:5]=[N:7]1)([H:8])[H:9].[O:6]([H:11])[H:12]"
N        2.21641817       0.64986930      -0.24621988
C        0.91557670       0.17669981      -0.06463325
C        0.44063712      -1.11546055      -0.07558489
N       -0.92073763      -1.03979020       0.20875896
C       -1.09467422       0.25866188       0.32634455
O       -2.52673590       0.39035523       0.22270620
N       -0.12221886       1.07724234       0.07287728
H        2.91958736       0.00436550       0.07536962
H        2.33729270       1.55519264       0.18044232
H        0.93752760      -2.05116450      -0.26700258
H       -2.35444377      -0.88897368       0.07614837
H       -2.74822928       0.98300225      -0.50920669
12
Frame=9 idx=011940 GeodesicLength=0.4525643784660203 rxn_smarts="[N:1]([c:2]1[c:3]([H:10])[n:4]([H:11])[c:5]([O:6][H:12])[n:7]1)([H:8])[H:9]>>[N:1]([C:2]1=[C:3]([H:10])[N:4]=[C:5]=[N:7]1)([H:8])[H:9].[O:6]([H:11])[H:12]"
N        2.21152943       0.65160717      -0.25031429
C        0.91272066       0.17629590      -0.06062364
C        0.43920574      -1.11575182      -0.06775335
N       -0.92062311      -1.04167722       0.22691659
C       -1.09697691       0.25783012       0.34412264
O       -2.52550330       0.38857656       0.20928487
N       -0.12663333       1.07482723       0.07596352
H        2.91785033       0.00733430       0.06671704
H        2.33310699       1.55719288       0.17555065
H        0.93249356      -2.05069763      -0.27171507
H       -2.35107705      -0.90897833       0.06193376
H       -2.72609301       1.00344083      -0.51008270
12
Frame=10 idx=011940 GeodesicLength=0.5029335283452095 rxn_smarts="[N:1]([c:2]1[c:3]([H:10])[n:4]([H:11])[c:5]([O:6][H:12])[n:7]1)([H:8])[H:9]>>[N:1]([C:2]1=[C:3]([H:10])[N:4]=[C:5]=[N:7]1)([H:8])[H:9].[O:6]([H:11])[H:12]"
N        2.20650802       0.65329778      -0.25454639
C        0.90997471       0.17586465      -0.05536207
C        0.43783787      -1.11608185      -0.05892239
N       -0.92074361      -1.04342081       0.24431270
C       -1.09961570       0.25714638       0.36083588
O       -2.52398629       0.38692695       0.19486797
N       -0.13087853       1.07248363       0.08012823
H        2.91623874       0.01028692       0.05734453
H        2.32918235       1.55924249       0.17024937
H        0.92708378      -2.05008416      -0.27648518
H       -2.34728240      -0.92955030       0.04800232
H       -2.70431894       1.02388832      -0.51042496
12
Frame=11 idx=011940 GeodesicLength=0.5532540104815785 rxn_smarts="[N:1]([c:2]1[c:3]([H:10])[n:4]([H:11])[c:5]([O:6][H:12])[n:7]1)([H:8])[H:9]>>[N:1]([C:2]1=[C:3]([H:10])[N:4]=[C:5]=[N:7]1)([H:8])[H:9].[O:6]([H:11])[H:12]"
N        2.20165817       0.65490979      -0.25852516
C        0.90735306       0.17548939      -0.05021817
C        0.43643043      -1.11631729      -0.05065696
N       -0.92104168      -1.04499696       0.26040803
C       -1.10238478       0.25668043       0.37609597
O       -2.52210999       0.38550585       0.18017554
N       -0.13498218       1.07024543       0.08374504
H        2.91459939       0.01309006       0.04842126
H        2.32540155       1.56120489       0.16524373
H        0.92168862      -2.04951303      -0.28038583
H       -2.34310663      -0.95058412       0.03510647
H       -2.68350595       1.04428557      -0.50940993
12
Frame=12 idx=011940 GeodesicLength=0.6035638393557398 rxn_smarts="[N:1]([c:2]1[c:3]([H:10])[n:4]([H:11])[c:5]([O:6][H:12])[n:7]1)([H:8])[H:9]>>[N:1]([C:2]1=[C:3]([H:10])[N:4]=[C:5]=[N:7]1)([H:8])[H:9].[O:6]([H:11])[H:12]"
N        2.19647761       0.65639692      -0.26280281
C        0.90477454       0.17498234      -0.04368150
C        0.43512843      -1.11662480      -0.04144654
N       -0.92157070      -1.04649547       0.27553886
C       -1.10554155       0.25616582       0.39056496
O       -2.51987576       0.38417975       0.16430082
N       -0.13902457       1.06790095       0.08871791
H        2.91296824       0.01595268       0.03860292
H        2.32163453       1.56319271       0.15942201
H        0.91629610      -2.04878788      -0.28358528
H       -2.33839275      -0.97213981       0.02168576
H       -2.66287411       1.06527679      -0.50731711
12
Frame=13 idx=011940 GeodesicLength=0.6540528038224089 rxn_smarts="[N:1]([c:2]1[c:3]([H:10])[n:4]([H:11])[c:5]([O:6][H:12])[n:7]1)([H:8])[H:9]>>[N:1]([C:2]1=[C:3]([H:10])[N:4]=[C:5]=[N:7]1)([H:8])[H:9].[O:6]([H:11])[H:12]"
N        2.19125686       0.65784903      -0.26713439
C        0.90233377       0.17450024      -0.03644786
C        0.43382373      -1.11694794      -0.03205873
N       -0.92237878      -1.04798399       0.28973077
C       -1.10895840       0.25572484       0.40410870
O       -2.51729025       0.38301696       0.14755499
N       -0.14289764       1.06566701       0.09411410
H        2.91136758       0.01876556       0.02845135
H        2.31806823       1.56524104       0.15336282
H        0.91086315      -2.04809723      -0.28606285
H       -2.33335677      -0.99433477       0.00846689
H       -2.64283148       1.08659924      -0.50408580
12
Frame=14 idx=011940 GeodesicLength=0.7043814749027932 rxn_smarts="[N:1]([c:2]1[c:3]([H:10])[n:4]([H:11])[c:5]([O:6][H:12])[n:7]1)([H:8])[H:9]>>[N:1]([C:2]1=[C:3]([H:10])[N:4]=[C:5]=[N:7]1)([H:8])[H:9].[O:6]([H:11])[H:12]"
N        2.18608030       0.65917186      -0.27126565
C        0.89998770       0.17402453      -0.02911177
C        0.43252197      -1.11716882      -0.02293135
N       -0.92329110      -1.04924434       0.30311973
C       -1.11253238       0.25549022       0.41655907
O       -2.51425910       0.38211686       0.13010142
N       -0.14669590       1.06347263       0.09914223
H        2.90968847       0.02142509       0.01854754
H        2.31453437       1.56714137       0.14746530
H        0.90543978      -2.04732118      -0.28813492
H       -2.32790078      -1.01701235      -0.00384467
H       -2.62357333       1.10790412      -0.49964692
12
Frame=15 idx=011940 GeodesicLength=0.7546446445437432 rxn_smarts="[N:1]([c:2]1[c:3]([H:10])[n:4]([H:11])[c:5]([O:6][H:12])[n:7]1)([H:8])[H:9]>>[N:1]([C:2]1=[C:3]([H:10])[N:4]=[C:5]=[N:7]1)([H:8])[H:9].[O:6]([H:11])[H:12]"
N        2.18110543       0.66036998      -0.27508826
C        0.89774664       0.17357387      -0.02217105
C        0.43119269      -1.11731756      -0.01436121
N       -0.92427999      -1.05028236       0.31569329
C       -1.11618391       0.25549127       0.42781837
O       -2.51079497       0.38145715       0.11208226
N       -0.15040203       1.06135120       0.10323053
H        2.90793935       0.02392582       0.00937876
H        2.31104772       1.56893489       0.14186387
H        0.90009284      -2.04657623      -0.28970022
H       -2.32212623      -1.04026100      -0.01508821
H       -2.60533754       1.12933296      -0.49365813
12
Frame=16 idx=011940 GeodesicLength=0.8048910770798927 rxn_smarts="[N:1]([c:2]1[c:3]([H:10])[n:4]([H:11])[c:5]([O:6][H:12])[n:7]1)([H:8])[H:9]>>[N:1]([C:2]1=[C:3]([H:10])[N:4]=[C:5]=[N:7]1)([H:8])[H:9].[O:6]([H:11])[H:12]"
N        2.17649130       0.66142528      -0.27841634
C        0.89560522       0.17320289      -0.01610756
C        0.42980866      -1.11733218      -0.00661522
N       -0.92525943      -1.05099269       0.32761109
C       -1.11979824       0.25586244       0.43780454
O       -2.50688767       0.38105255       0.09360484
N       -0.15400874       1.05937697       0.10578731
H        2.90613079       0.02618602       0.00143471
H        2.30763464       1.57056800       0.13687141
H        0.89472211      -2.04583605      -0.29115914
H       -2.31613662      -1.06416118      -0.02465439
H       -2.58830203       1.15064795      -0.48616125
