14
Frame=0 idx=003590 GeodesicLength=0.0 rxn_smarts="[C:1]1([H:7])([H:8])[C:2]([H:9])([H:10])[C@@:3]2([H:11])[O:4][C:5]([H:12])([H:13])[C@@:6]12[H:14]>>[C:1]([C:2]([H:9])([H:10])[H:12])([C:6]1([H:14])[C-:3]([H:11])[O+:4]=[C:5]1[H:13])([H:7])[H:8]"
C        1.08042994       0.62680761       0.10429661
C        0.91967990      -0.78062852       0.69200363
C       -0.66481894      -0.58455168      -1.10923703
O       -1.81429547      -0.67810703      -0.49231171
C       -1.39656601       0.29630448       0.45463065
C       -0.28969350       0.74191538      -0.52437364
H        1.25134629       1.40273700       0.85322917
H        1.88083861       0.70241459      -0.63498836
H        1.21236199      -0.89588751       1.73738726
H        1.42510781      -1.55274604       0.11688844
H       -0.37930994      -1.25094750      -1.91064414
H       -0.43618287      -0.53669146       1.01052787
H       -2.20330414       0.91281855       0.84215784
H       -0.58559373       1.59656218      -1.13956653
14
Frame=1 idx=003590 GeodesicLength=0.06471972232179575 rxn_smarts="[C:1]1([H:7])([H:8])[C:2]([H:9])([H:10])[C@@:3]2([H:11])[O:4][C:5]([H:12])([H:13])[C@@:6]12[H:14]>>[C:1]([C:2]([H:9])([H:10])[H:12])([C:6]1([H:14])[C-:3]([H:11])[O+:4]=[C:5]1[H:13])([H:7])[H:8]"
C        1.07916349       0.62665626       0.10498946
C        0.91944819      -0.78584159       0.68239598
C       -0.65640779      -0.59094043      -1.09999189
O       -1.81394474      -0.67944673      -0.48840462
C       -1.40409911       0.30235804       0.45398185
C       -0.29306665       0.74276212      -0.52227687
H        1.24682417       1.39659453       0.86072289
H        1.87989293       0.71033373      -0.63279819
H        1.22632792      -0.91017928       1.72255280
H        1.43070540      -1.55118767       0.10263793
H       -0.37596980      -1.25550867      -1.90476510
H       -0.44127277      -0.52749220       1.04160739
H       -2.21490278       0.92619484       0.82137987
H       -0.58269844       1.59569705      -1.14203147
14
Frame=2 idx=003590 GeodesicLength=0.12943874988899973 rxn_smarts="[C:1]1([H:7])([H:8])[C:2]([H:9])([H:10])[C@@:3]2([H:11])[O:4][C:5]([H:12])([H:13])[C@@:6]12[H:14]>>[C:1]([C:2]([H:9])([H:10])[H:12])([C:6]1([H:14])[C-:3]([H:11])[O+:4]=[C:5]1[H:13])([H:7])[H:8]"
C        1.07795991       0.62641306       0.10553239
C        0.91906936      -0.79092855       0.67295446
C       -0.64812082      -0.59702663      -1.09100479
O       -1.81350292      -0.68087577      -0.48450695
C       -1.41144669       0.30812952       0.45333029
C       -0.29643002       0.74363161      -0.52025083
H        1.24252803       1.39040483       0.86786720
H        1.87896259       0.71787444      -0.63075116
H        1.23942617      -0.92406390       1.70783549
H        1.43611389      -1.54957101       0.08875421
H       -0.37262461      -1.25984548      -1.89899819
H       -0.44593971      -0.51795791       1.07259522
H       -2.22608371       0.93875507       0.80077916
H       -0.57991148       1.59506072      -1.14413649
14
Frame=3 idx=003590 GeodesicLength=0.1941531945391816 rxn_smarts="[C:1]1([H:7])([H:8])[C:2]([H:9])([H:10])[C@@:3]2([H:11])[O:4][C:5]([H:12])([H:13])[C@@:6]12[H:14]>>[C:1]([C:2]([H:9])([H:10])[H:12])([C:6]1([H:14])[C-:3]([H:11])[O+:4]=[C:5]1[H:13])([H:7])[H:8]"
C        1.07681520       0.62608563       0.10593282
C        0.91856658      -0.79589882       0.66366189
C       -0.63994921      -0.60282683      -1.08227780
O       -1.81297869      -0.68238393      -0.48062655
C       -1.41861991       0.31363278       0.45267309
C       -0.29978218       0.74451725      -0.51829669
H        1.23843896       1.38417488       0.87468140
H        1.87804991       0.72506923      -0.62883883
H        1.25168099      -0.93756944       1.69325085
H        1.44134119      -1.54790821       0.07520826
H       -0.36927437      -1.26398212      -1.89334470
H       -0.45020338      -0.50808705       1.10351028
H       -2.23686058       0.95053244       0.78036783
H       -0.57722452       1.59464420      -1.14590185
14
Frame=4 idx=003590 GeodesicLength=0.25885804047366034 rxn_smarts="[C:1]1([H:7])([H:8])[C:2]([H:9])([H:10])[C@@:3]2([H:11])[O:4][C:5]([H:12])([H:13])[C@@:6]12[H:14]>>[C:1]([C:2]([H:9])([H:10])[H:12])([C:6]1([H:14])[C-:3]([H:11])[O+:4]=[C:5]1[H:13])([H:7])[H:8]"
C        1.07572541       0.62568052       0.10619788
C        0.91796026      -0.80076124       0.65450148
C       -0.63188472      -0.60835646      -1.07381258
O       -1.81237900      -0.68396311      -0.47677070
C       -1.42562955       0.31888122       0.45200704
C       -0.30312202       0.74541302      -0.51641523
H        1.23453999       1.37791018       0.88118305
H        1.87715665       0.73194756      -0.62705299
H        1.26311554      -0.95072151       1.67881166
H        1.44639471      -1.54621062       0.06197500
H       -0.36591915      -1.26793907      -1.88780765
H       -0.45408104      -0.49787645       1.13437235
H       -2.24724750       0.96155717       0.76015726
H       -0.57462957       1.59443880      -1.14734658
14
Frame=5 idx=003590 GeodesicLength=0.32355296865269645 rxn_smarts="[C:1]1([H:7])([H:8])[C:2]([H:9])([H:10])[C@@:3]2([H:11])[O:4][C:5]([H:12])([H:13])[C@@:6]12[H:14]>>[C:1]([C:2]([H:9])([H:10])[H:12])([C:6]1([H:14])[C-:3]([H:11])[O+:4]=[C:5]1[H:13])([H:7])[H:8]"
C        1.07468611       0.62520284       0.10633569
C        0.91727059      -0.80552593       0.64545522
C       -0.62391924      -0.61363326      -1.06560790
O       -1.81171063      -0.68560805      -0.47294727
C       -1.43248730       0.32388463       0.45132909
C       -0.30644956       0.74631123      -0.51460533
H        1.23081332       1.37161332       0.88739259
H        1.87628318       0.73853949      -0.62538405
H        1.27376280      -0.96354819       1.66452832
H        1.45128797      -1.54448940       0.04902611
H       -0.36256027      -1.27173535      -1.88238970
H       -0.45759483      -0.48731612       1.16520308
H       -2.25726189       0.97187044       0.74015105
H       -0.57212025       1.59443435      -1.14848690
14
Frame=6 idx=003590 GeodesicLength=0.3882378037902831 rxn_smarts="[C:1]1([H:7])([H:8])[C:2]([H:9])([H:10])[C@@:3]2([H:11])[O:4][C:5]([H:12])([H:13])[C@@:6]12[H:14]>>[C:1]([C:2]([H:9])([H:10])[H:12])([C:6]1([H:14])[C-:3]([H:11])[O+:4]=[C:5]1[H:13])([H:7])[H:8]"
C        1.07369403       0.62465769       0.10635271
C        0.91651336      -0.81020186       0.63650612
C       -0.61604531      -0.61867096      -1.05766386
O       -1.81097820      -0.68731508      -0.46915864
C       -1.43920214       0.32865498       0.45063618
C       -0.30976372       0.74720694      -0.51286771
H        1.22724481       1.36528628       0.89332666
H        1.87543043       0.74487019      -0.62382418
H        1.28364173      -0.97607569       1.65040930
H        1.45603130      -1.54275321       0.03633775
H       -0.35919907      -1.27538517      -1.87709611
H       -0.46075588      -0.47639455       1.19602874
H       -2.26692167       0.98149847       0.72035209
H       -0.56968968       1.59462196      -1.14933906
14
Frame=7 idx=003590 GeodesicLength=0.4529213645722206 rxn_smarts="[C:1]1([H:7])([H:8])[C:2]([H:9])([H:10])[C@@:3]2([H:11])[O:4][C:5]([H:12])([H:13])[C@@:6]12[H:14]>>[C:1]([C:2]([H:9])([H:10])[H:12])([C:6]1([H:14])[C-:3]([H:11])[O+:4]=[C:5]1[H:13])([H:7])[H:8]"
C        1.07274510       0.62404959       0.10625640
C        0.91570473      -0.81479701       0.62763812
C       -0.60825586      -0.62348561      -1.04997757
O       -1.81018616      -0.68908189      -0.46540967
C       -1.44578467       0.33320320       0.44992361
C       -0.31306427       0.74809450      -0.51120229
H        1.22381853       1.35893082       0.89900371
H        1.87459855       0.75096355      -0.62236394
H        1.29278050      -0.98833273       1.63645573
H        1.46063879      -1.54101039       0.02388587
H       -0.35583644      -1.27890253      -1.87193072
H       -0.46358659      -0.46509583       1.22687732
H       -2.27624080       0.99047166       0.70076239
H       -0.56733141       1.59499265      -1.14991897
14
Frame=8 idx=003590 GeodesicLength=0.517592268574114 rxn_smarts="[C:1]1([H:7])([H:8])[C:2]([H:9])([H:10])[C@@:3]2([H:11])[O:4][C:5]([H:12])([H:13])[C@@:6]12[H:14]>>[C:1]([C:2]([H:9])([H:10])[H:12])([C:6]1([H:14])[C-:3]([H:11])[O+:4]=[C:5]1[H:13])([H:7])[H:8]"
C        1.07183593       0.62338119       0.10605277
C        0.91485604      -0.81932016       0.61883548
C       -0.60054494      -0.62808961      -1.04254940
O       -1.80933825      -0.69090712      -0.46170429
C       -1.45224277       0.33753481       0.44918948
C       -0.31635146       0.74896904      -0.50960824
H        1.22052271       1.35254636       0.90443848
H        1.87378712       0.75683969      -0.62099573
H        1.30119943      -1.00034018       1.62267478
H        1.46512206      -1.53926872       0.01165108
H       -0.35247326      -1.28229752      -1.86689966
H       -0.46609413      -0.45340554       1.25777068
H       -2.28523699       0.99881884       0.68138142
H       -0.56504149       1.59553894      -1.15023685
14
Frame=9 idx=003590 GeodesicLength=0.5822310761478371 rxn_smarts="[C:1]1([H:7])([H:8])[C:2]([H:9])([H:10])[C@@:3]2([H:11])[O:4][C:5]([H:12])([H:13])[C@@:6]12[H:14]>>[C:1]([C:2]([H:9])([H:10])[H:12])([C:6]1([H:14])[C-:3]([H:11])[O+:4]=[C:5]1[H:13])([H:7])[H:8]"
C        1.07096366       0.62265449       0.10574783
C        0.91398193      -0.82377759       0.61008522
C       -0.59290609      -0.63249476      -1.03537891
O       -1.80843781      -0.69278889      -0.45804797
C       -1.45858457       0.34165598       0.44843300
C       -0.31962606       0.74982535      -0.50808231
H        1.21734824       1.34613302       0.90964400
H        1.87299511       0.76251675      -0.61971320
H        1.30891043      -1.01212063       1.60907292
H        1.46949210      -1.53753487      -0.00038763
H       -0.34911084      -1.28558108      -1.86200675
H       -0.46828325      -0.44130255       1.28872496
H       -2.29392692       1.00656136       0.66220873
H       -0.56281592       1.59625341      -1.15029989
14
Frame=10 idx=003590 GeodesicLength=0.6468697748267178 rxn_smarts="[C:1]1([H:7])([H:8])[C:2]([H:9])([H:10])[C@@:3]2([H:11])[O:4][C:5]([H:12])([H:13])[C@@:6]12[H:14]>>[C:1]([C:2]([H:9])([H:10])[H:12])([C:6]1([H:14])[C-:3]([H:11])[O+:4]=[C:5]1[H:13])([H:7])[H:8]"
C        1.07012401       0.62187236       0.10534851
C        0.91309227      -0.82818018       0.60136764
C       -0.58533395      -0.63671603      -1.02846258
O       -1.80748688      -0.69473131      -0.45444030
C       -1.46481926       0.34557460       0.44764770
C       -0.32288787       0.75065834      -0.50662620
H        1.21427894       1.33968708       0.91463953
H        1.87222183       0.76801673      -0.61850518
H        1.31594135      -1.02370246       1.59564490
H        1.47376791      -1.53581428      -0.01225308
H       -0.34574998      -1.28876034      -1.85725966
H       -0.47017439      -0.42876210       1.31978229
H       -2.30232424       1.01373169       0.64323921
H       -0.56064973       1.59712589      -1.15012277
14
Frame=11 idx=003590 GeodesicLength=0.7115140505392432 rxn_smarts="[C:1]1([H:7])([H:8])[C:2]([H:9])([H:10])[C@@:3]2([H:11])[O:4][C:5]([H:12])([H:13])[C@@:6]12[H:14]>>[C:1]([C:2]([H:9])([H:10])[H:12])([C:6]1([H:14])[C-:3]([H:11])[O+:4]=[C:5]1[H:13])([H:7])[H:8]"
C        1.06931309       0.62103539       0.10486263
C        0.91219516      -0.83253795       0.59266873
C       -0.57782416      -0.64076396      -1.02179944
O       -1.80648741      -0.69673729      -0.45087933
C       -1.47095438       0.34929676       0.44683091
C       -0.32613718       0.75146391      -0.50523869
H        1.21130343       1.33320423       0.91944156
H        1.87146665       0.77335516      -0.61736059
H        1.32231520      -1.03511172       1.58238535
H        1.47796245      -1.53411240      -0.02396704
H       -0.34239332      -1.29184057      -1.85266450
H       -0.47176879      -0.41575134       1.35097596
H       -2.31045234       1.02035053       0.62445776
H       -0.55853841       1.59814925      -1.14971331
14
Frame=12 idx=003590 GeodesicLength=0.7761697028498503 rxn_smarts="[C:1]1([H:7])([H:8])[C:2]([H:9])([H:10])[C@@:3]2([H:11])[O:4][C:5]([H:12])([H:13])[C@@:6]12[H:14]>>[C:1]([C:2]([H:9])([H:10])[H:12])([C:6]1([H:14])[C-:3]([H:11])[O+:4]=[C:5]1[H:13])([H:7])[H:8]"
C        1.06852770       0.62014433       0.10429672
C        0.91130042      -0.83686034       0.58397180
C       -0.57037164      -0.64465048      -1.01538770
O       -1.80544061      -0.69880983      -0.44736687
C       -1.47699806       0.35282614       0.44597944
C       -0.32937454       0.75223655      -0.50391775
H        1.20841167       1.32668002       0.92406505
H        1.87072760       0.77854884      -0.61627069
H        1.32804369      -1.04637330       1.56929357
H        1.48209241      -1.53243305      -0.03555178
H       -0.33904187      -1.29482806      -1.84822883
H       -0.47307310      -0.40223389       1.38233601
H       -2.31832534       1.02643786       0.60585938
H       -0.55647833       1.59931523      -1.14907833
14
Frame=13 idx=003590 GeodesicLength=0.8408390112056878 rxn_smarts="[C:1]1([H:7])([H:8])[C:2]([H:9])([H:10])[C@@:3]2([H:11])[O:4][C:5]([H:12])([H:13])[C@@:6]12[H:14]>>[C:1]([C:2]([H:9])([H:10])[H:12])([C:6]1([H:14])[C-:3]([H:11])[O+:4]=[C:5]1[H:13])([H:7])[H:8]"
C        1.06776498       0.61919853       0.10365723
C        0.91041678      -0.84115557       0.57526235
C       -0.56297215      -0.64838576      -1.00922548
O       -1.80434762      -0.70095256      -0.44390254
C       -1.48295614       0.35616520       0.44509190
C       -0.33260074       0.75297223      -0.50266074
H        1.20559450       1.32010850       0.92852477
H        1.87000335       0.78361171      -0.61522644
H        1.33314205      -1.05751026       1.55636386
H        1.48617221      -1.53078011      -0.04702746
H       -0.33569705      -1.29772667      -1.84395781
H       -0.47409244      -0.38817465       1.41389124
H       -2.32596079       1.03201205       0.58743092
H       -0.55446693       1.60061736      -1.14822180
14
Frame=14 idx=003590 GeodesicLength=0.9055179997758958 rxn_smarts="[C:1]1([H:7])([H:8])[C:2]([H:9])([H:10])[C@@:3]2([H:11])[O:4][C:5]([H:12])([H:13])[C@@:6]12[H:14]>>[C:1]([C:2]([H:9])([H:10])[H:12])([C:6]1([H:14])[C-:3]([H:11])[O+:4]=[C:5]1[H:13])([H:7])[H:8]"
C        1.06702108       0.61819788       0.10295031
C        0.90954770      -0.84543270       0.56652771
C       -0.55562122      -0.65197743      -1.00331628
O       -1.80320880      -0.70316853      -0.44048994
C       -1.48883592       0.35931586       0.44416366
C       -0.33581641       0.75366706      -0.50146754
H        1.20284279       1.31348553       0.93283255
H        1.86929262       0.78855424      -0.61421801
H        1.33761753      -1.06854283       1.54359447
H        1.49021220      -1.52915707      -0.05840976
H       -0.33235885      -1.30053992      -1.83986066
H       -0.47482250      -0.37353256       1.44566862
H       -2.33336922       1.03708043       0.56917329
H       -0.55250103       1.60205004      -1.14714842
14
Frame=15 idx=003590 GeodesicLength=0.9702033946124419 rxn_smarts="[C:1]1([H:7])([H:8])[C:2]([H:9])([H:10])[C@@:3]2([H:11])[O:4][C:5]([H:12])([H:13])[C@@:6]12[H:14]>>[C:1]([C:2]([H:9])([H:10])[H:12])([C:6]1([H:14])[C-:3]([H:11])[O+:4]=[C:5]1[H:13])([H:7])[H:8]"
C        1.06629292       0.61714124       0.10218230
C        0.90869863      -0.84970069       0.55775460
C       -0.54831458      -0.65543368      -0.99766174
O       -1.80202386      -0.70546231      -0.43713080
C       -1.49464294       0.36227726       0.44319355
C       -0.33902246       0.75431683      -0.50033581
H        1.20014854       1.30680507       0.93700146
H        1.86859370       0.79338772      -0.61323623
H        1.34147606      -1.07949370       1.53098061
H        1.49422436      -1.52756655      -0.06971606
H       -0.32902764      -1.30327052      -1.83594516
H       -0.47525705      -0.35826353       1.47769547
H       -2.34056624       1.04165504       0.55107692
H       -0.55057943       1.60360781      -1.14585909
14
Frame=16 idx=003590 GeodesicLength=1.034887247975829 rxn_smarts="[C:1]1([H:7])([H:8])[C:2]([H:9])([H:10])[C@@:3]2([H:11])[O:4][C:5]([H:12])([H:13])[C@@:6]12[H:14]>>[C:1]([C:2]([H:9])([H:10])[H:12])([C:6]1([H:14])[C-:3]([H:11])[O+:4]=[C:5]1[H:13])([H:7])[H:8]"
C        1.06557710       0.61602692       0.10135963
C        0.90787289      -0.85396821       0.54893137
C       -0.54104829      -0.65876152      -0.99226464
O       -1.80079316      -0.70783761      -0.43382939
C       -1.50038338       0.36504831       0.44217909
C       -0.34222007       0.75491779      -0.49926326
H        1.19750429       1.30006128       0.94104339
H        1.86790479       0.79812072      -0.61227145
H        1.34472456      -1.09038251       1.51851774
H        1.49821850      -1.52601153      -0.08096104
H       -0.32570306      -1.30592021      -1.83221989
H       -0.47538970      -0.34232139       1.50999504
H       -2.34756413       1.04574197       0.53313751
H       -0.54870033       1.60528599      -1.14435410
