14
Frame=0 idx=004327 GeodesicLength=0.0 rxn_smarts="[C:1]([C@@:2]1([C:3]([O:4][H:12])([H:10])[H:11])[C:5]([H:13])([H:14])[O:6]1)([H:7])([H:8])[H:9]>>[C:1](=[C:2]([C:3]([O:4][H:12])([H:10])[H:11])[H:8])([H:7])[H:9].[C:5](=[O:6])([H:13])[H:14]"
C       -1.54564395      -0.62958087       0.23343388
C       -0.31370891      -0.11777987      -0.12928733
C        0.92431108      -0.99879410      -0.01055706
O        2.10963733      -0.29441031      -0.16959209
C       -0.01874097       1.48403235      -0.07190790
O        0.66881934       1.53988821       1.03614097
H       -1.67061829      -1.64251391       0.61288753
H       -0.95642159      -0.25103232      -1.11773933
H       -2.43871085      -0.02237929       0.12569284
H        0.88379766      -1.77429794      -0.78176439
H        0.87583600      -1.50752419       0.96355203
H        1.99423110       0.49903639       0.40044347
H       -1.01665202       1.96797288      -0.08121936
H        0.50386413       1.74738294      -1.01008321
14
Frame=1 idx=004327 GeodesicLength=0.09252930423610517 rxn_smarts="[C:1]([C@@:2]1([C:3]([O:4][H:12])([H:10])[H:11])[C:5]([H:13])([H:14])[O:6]1)([H:7])([H:8])[H:9]>>[C:1](=[C:2]([C:3]([O:4][H:12])([H:10])[H:11])[H:8])([H:7])[H:9].[C:5](=[O:6])([H:13])[H:14]"
C       -1.54635271      -0.63426373       0.22742783
C       -0.31197429      -0.12156550      -0.13025052
C        0.92550009      -1.00272442      -0.01556931
O        2.11196085      -0.29652666      -0.16783570
C       -0.02249005       1.50467279      -0.07523413
O        0.64892305       1.52764540       1.04337886
H       -1.66375730      -1.63346910       0.64332505
H       -0.96575268      -0.27238524      -1.12594722
H       -2.44058895      -0.02814345       0.12457870
H        0.89040315      -1.77389646      -0.79120240
H        0.87624355      -1.51695399       0.95553596
H        1.99982811       0.49168144       0.40809901
H       -1.01470663       1.99814155      -0.08839891
H        0.51276382       1.75778736      -1.00790720
14
Frame=2 idx=004327 GeodesicLength=0.1850408281240053 rxn_smarts="[C:1]([C@@:2]1([C:3]([O:4][H:12])([H:10])[H:11])[C:5]([H:13])([H:14])[O:6]1)([H:7])([H:8])[H:9]>>[C:1](=[C:2]([C:3]([O:4][H:12])([H:10])[H:11])[H:8])([H:7])[H:9].[C:5](=[O:6])([H:13])[H:14]"
C       -1.54698349      -0.63929321       0.22138390
C       -0.31024118      -0.12562916      -0.13147875
C        0.92676581      -1.00677082      -0.02061399
O        2.11425400      -0.29864097      -0.16610029
C       -0.02625497       1.52560457      -0.07825413
O        0.62864527       1.51543945       1.04989201
H       -1.65688510      -1.62327789       0.67366013
H       -0.97520770      -0.29485877      -1.13430201
H       -2.44225374      -0.03408903       0.12326127
H        0.89723690      -1.77364230      -0.80056707
H        0.87670513      -1.52645345       0.94747038
H        2.00541378       0.48410469       0.41592376
H       -1.01236851       2.02917245      -0.09481553
H        0.52117380       1.76833443      -1.00545968
14
Frame=3 idx=004327 GeodesicLength=0.27755199964549093 rxn_smarts="[C:1]([C@@:2]1([C:3]([O:4][H:12])([H:10])[H:11])[C:5]([H:13])([H:14])[O:6]1)([H:7])([H:8])[H:9]>>[C:1](=[C:2]([C:3]([O:4][H:12])([H:10])[H:11])[H:8])([H:7])[H:9].[C:5](=[O:6])([H:13])[H:14]"
C       -1.54752885      -0.64465556       0.21536608
C       -0.30850978      -0.12997342      -0.13296444
C        0.92811093      -1.01093073      -0.02567123
O        2.11651388      -0.30074936      -0.16440178
C       -0.03003921       1.54685520      -0.08095843
O        0.60800691       1.50328147       1.05566275
H       -1.65002896      -1.61197413       0.70370924
H       -0.98481264      -0.31855919      -1.14275078
H       -2.44370258      -0.04021535       0.12173128
H        0.90429668      -1.77355105      -0.80981958
H        0.87722970      -1.53599531       0.93938911
H        2.01099855       0.47631232       0.42388486
H       -1.00959279       2.06114498      -0.10039831
H        0.52905815       1.77901013      -1.00277878
14
Frame=4 idx=004327 GeodesicLength=0.37007858017580353 rxn_smarts="[C:1]([C@@:2]1([C:3]([O:4][H:12])([H:10])[H:11])[C:5]([H:13])([H:14])[O:6]1)([H:7])([H:8])[H:9]>>[C:1](=[C:2]([C:3]([O:4][H:12])([H:10])[H:11])[H:8])([H:7])[H:9].[C:5](=[O:6])([H:13])[H:14]"
C       -1.54798664      -0.65032417       0.20943771
C       -0.30678200      -0.13459707      -0.13470608
C        0.92953510      -1.01520013      -0.03071964
O        2.11873483      -0.30284826      -0.16275779
C       -0.03383776       1.56845726      -0.08333258
O        0.58703545       1.49119001       1.06066869
H       -1.64321162      -1.59963942       0.73328354
H       -0.99459553      -0.34360450      -1.15123475
H       -2.44493972      -0.04650931       0.11997355
H        0.91157811      -1.77364192      -0.81891615
H        0.87782188      -1.54554315       0.93133154
H        2.01659633       0.46831263       0.43194368
H       -1.00632747       2.09414481      -0.10507330
H        0.53637904       1.78980322      -0.99989843
14
Frame=5 idx=004327 GeodesicLength=0.46265546586738726 rxn_smarts="[C:1]([C@@:2]1([C:3]([O:4][H:12])([H:10])[H:11])[C:5]([H:13])([H:14])[O:6]1)([H:7])([H:8])[H:9]>>[C:1](=[C:2]([C:3]([O:4][H:12])([H:10])[H:11])[H:8])([H:7])[H:9].[C:5](=[O:6])([H:13])[H:14]"
C       -1.54834351      -0.65630738       0.20365526
C       -0.30505714      -0.13951070      -0.13671099
C        0.93104366      -1.01958257      -0.03575091
O        2.12091557      -0.30493200      -0.16118959
C       -0.03764981       1.59044015      -0.08535443
O        0.56572761       1.47916737       1.06489642
H       -1.63645368      -1.58620781       0.76222782
H       -1.00457852      -0.37014427      -1.15968983
H       -2.44595491      -0.05298346       0.11795349
H        0.91908233      -1.77393148      -0.82783224
H        0.87849216      -1.55507900       0.92332177
H        2.02221131       0.46010814       0.44007609
H       -1.00252212       2.12825230      -0.10875570
H        0.54308707       1.80071072      -0.99684717
14
Frame=6 idx=004327 GeodesicLength=0.5552788443109911 rxn_smarts="[C:1]([C@@:2]1([C:3]([O:4][H:12])([H:10])[H:11])[C:5]([H:13])([H:14])[O:6]1)([H:7])([H:8])[H:9]>>[C:1](=[C:2]([C:3]([O:4][H:12])([H:10])[H:11])[H:8])([H:7])[H:9].[C:5](=[O:6])([H:13])[H:14]"
C       -1.54860990      -0.66256605       0.19804664
C       -0.30334049      -0.14470721      -0.13899273
C        0.93263110      -1.02407036      -0.04074613
O        2.12304771      -0.30699422      -0.15971298
C       -0.04147085       1.61284210      -0.08701607
O        0.54410285       1.46723111       1.06831802
H       -1.62976833      -1.57183327       0.79039815
H       -1.01477564      -0.39830011      -1.16804801
H       -2.44676466      -0.05961663       0.11565004
H        0.92680362      -1.77444291      -0.83652228
H        0.87923417      -1.56455715       0.91540156
H        2.02785604       0.45170893       0.44824302
H       -0.99809337       2.16357755      -0.11135041
H        0.54914775       1.81172823      -0.99366883
14
Frame=7 idx=004327 GeodesicLength=0.64795727311152 rxn_smarts="[C:1]([C@@:2]1([C:3]([O:4][H:12])([H:10])[H:11])[C:5]([H:13])([H:14])[O:6]1)([H:7])([H:8])[H:9]>>[C:1](=[C:2]([C:3]([O:4][H:12])([H:10])[H:11])[H:8])([H:7])[H:9].[C:5](=[O:6])([H:13])[H:14]"
C       -1.54879161      -0.66907574       0.19263467
C       -0.30163564      -0.15018618      -0.14156440
C        0.93429445      -1.02865991      -0.04569347
O        2.12512575      -0.30902917      -0.15835046
C       -0.04529509       1.63570032      -0.08830315
O        0.52216946       1.45539998       1.07090768
H       -1.62317553      -1.55662443       0.81767905
H       -1.02519479      -0.42820389      -1.17624246
H       -2.44738045      -0.06638946       0.11302529
H        0.93473528      -1.77519737      -0.84494920
H        0.88004805      -1.57394034       0.90760592
H        2.03353850       0.44312610       0.45641153
H       -0.99296320       2.20022400      -0.11276062
H        0.55452483       1.82285609      -0.99040037
14
Frame=8 idx=004327 GeodesicLength=0.740708724395521 rxn_smarts="[C:1]([C@@:2]1([C:3]([O:4][H:12])([H:10])[H:11])[C:5]([H:13])([H:14])[O:6]1)([H:7])([H:8])[H:9]>>[C:1](=[C:2]([C:3]([O:4][H:12])([H:10])[H:11])[H:8])([H:7])[H:9].[C:5](=[O:6])([H:13])[H:14]"
C       -1.54889478      -0.67582112       0.18741863
C       -0.29994270      -0.15595316      -0.14445174
C        0.93603238      -1.03335069      -0.05058534
O        2.12714705      -0.31103044      -0.15712580
C       -0.04912433       1.65905705      -0.08919907
O        0.49992361       1.44368141       1.07263748
H       -1.61669477      -1.54064932       0.84398395
H       -1.03583462      -0.46000675      -1.18419139
H       -2.44780381      -0.07329560       0.11002515
H        0.94287207      -1.77621686      -0.85307844
H        0.88092974      -1.58319441       0.89996622
H        2.03926412       0.43436587       0.46455333
H       -0.98704053       2.23831132      -0.11286545
H        0.55916658       1.83410269      -0.98708752
14
Frame=9 idx=004327 GeodesicLength=0.8333794118300112 rxn_smarts="[C:1]([C@@:2]1([C:3]([O:4][H:12])([H:10])[H:11])[C:5]([H:13])([H:14])[O:6]1)([H:7])([H:8])[H:9]>>[C:1](=[C:2]([C:3]([O:4][H:12])([H:10])[H:11])[H:8])([H:7])[H:9].[C:5](=[O:6])([H:13])[H:14]"
C       -1.54896652      -0.68274601       0.18232128
C       -0.29831986      -0.16200430      -0.14783238
C        0.93780605      -1.03811767      -0.05543647
O        2.12904551      -0.31296180      -0.15613558
C       -0.05297428       1.68295931      -0.08964329
O        0.47733232       1.43200631       1.07354665
H       -1.61026472      -1.52405352       0.86948823
H       -1.04663145      -0.49397464      -1.19180137
H       -2.44811224      -0.08033667       0.10637666
H        0.95122346      -1.77760276      -0.86083072
H        0.88184126      -1.59215739       0.89254306
H        2.04501287       0.42549095       0.47250646
H       -0.97996604       2.27797162      -0.11147486
H        0.56297365       1.84552658      -0.98362768
14
Frame=10 idx=004327 GeodesicLength=0.9261015715602875 rxn_smarts="[C:1]([C@@:2]1([C:3]([O:4][H:12])([H:10])[H:11])[C:5]([H:13])([H:14])[O:6]1)([H:7])([H:8])[H:9]>>[C:1](=[C:2]([C:3]([O:4][H:12])([H:10])[H:11])[H:8])([H:7])[H:9].[C:5](=[O:6])([H:13])[H:14]"
C       -1.54898197      -0.68989753       0.17735575
C       -0.29672606      -0.16835983      -0.15162003
C        0.93964608      -1.04298237      -0.06023128
O        2.13086315      -0.31483120      -0.15533654
C       -0.05682562       1.70742658      -0.08964836
O        0.45438403       1.42043065       1.07353769
H       -1.60396673      -1.50672335       0.89397927
H       -1.05761305      -0.53014119      -1.19900088
H       -2.44825383      -0.08752695       0.10217448
H        0.95979101      -1.77931525      -0.86822546
H        0.88280752      -1.60090774       0.88533149
H        2.05079994       0.41647002       0.48035578
H       -0.97182549       2.31926736      -0.10848204
H        0.56590101       1.85709081      -0.98018987
14
Frame=11 idx=004327 GeodesicLength=1.0188847181364054 rxn_smarts="[C:1]([C@@:2]1([C:3]([O:4][H:12])([H:10])[H:11])[C:5]([H:13])([H:14])[O:6]1)([H:7])([H:8])[H:9]>>[C:1](=[C:2]([C:3]([O:4][H:12])([H:10])[H:11])[H:8])([H:7])[H:9].[C:5](=[O:6])([H:13])[H:14]"
C       -1.54895866      -0.69727363       0.17247766
C       -0.29517605      -0.17502371      -0.15585176
C        0.94154649      -1.04794024      -0.06496647
O        2.13258138      -0.31661671      -0.15475765
C       -0.06067768       1.73249244      -0.08918615
O        0.43105388       1.40894774       1.07258345
H       -1.59780359      -1.48870303       0.91746884
H       -1.06876010      -0.56865243      -1.20572512
H       -2.44825714      -0.09486764       0.09731220
H        0.96857948      -1.78138903      -0.87523241
H        0.88382630      -1.60939771       0.87836589
H        2.05662122       0.40732839       0.48805313
H       -0.96244117       2.36229282      -0.10373393
H        0.56786565       1.86880274      -0.97680768
14
Frame=12 idx=004327 GeodesicLength=1.111726695054438 rxn_smarts="[C:1]([C@@:2]1([C:3]([O:4][H:12])([H:10])[H:11])[C:5]([H:13])([H:14])[O:6]1)([H:7])([H:8])[H:9]>>[C:1](=[C:2]([C:3]([O:4][H:12])([H:10])[H:11])[H:8])([H:7])[H:9].[C:5](=[O:6])([H:13])[H:14]"
C       -1.54891145      -0.70488148       0.16763259
C       -0.29368106      -0.18200897      -0.16057771
C        0.94350278      -1.05299073      -0.06964304
O        2.13418416      -0.31829898      -0.15443166
C       -0.06453337       1.75819232      -0.08822418
O        0.40731173       1.39754342       1.07065229
H       -1.59178721      -1.46996625       0.93996423
H       -1.08003740      -0.60966812      -1.21187954
H       -2.44813671      -0.10238273       0.09167568
H        0.97759642      -1.78386276      -0.88182105
H        0.88489171      -1.61758207       0.87167754
H        2.06247164       0.39808808       0.49554978
H       -0.95164468       2.40714306      -0.09705571
H        0.56877344       1.88067522      -0.97351922
14
Frame=13 idx=004327 GeodesicLength=1.204620730836906 rxn_smarts="[C:1]([C@@:2]1([C:3]([O:4][H:12])([H:10])[H:11])[C:5]([H:13])([H:14])[O:6]1)([H:7])([H:8])[H:9]>>[C:1](=[C:2]([C:3]([O:4][H:12])([H:10])[H:11])[H:8])([H:7])[H:9].[C:5](=[O:6])([H:13])[H:14]"
C       -1.54885511      -0.71272668       0.16276773
C       -0.29225113      -0.18932569      -0.16584322
C        0.94551062      -1.05813077      -0.07425980
O        2.13565497      -0.31985693      -0.15439321
C       -0.06839048       1.78456170      -0.08672797
O        0.38312890       1.38621297       1.06770029
H       -1.58594287      -1.45051391       0.96147112
H       -1.09140610      -0.65334263      -1.21736031
H       -2.44790967      -0.11008367       0.08513874
H        0.98684843      -1.78677288      -0.88795773
H        0.88599984      -1.62541161       0.86530085
H        2.06834705       0.38877776       0.50279549
H       -0.93924534       2.45389422      -0.08826362
H        0.56851090       1.89271812      -0.97036836
14
Frame=14 idx=004327 GeodesicLength=1.2975563029675279 rxn_smarts="[C:1]([C@@:2]1([C:3]([O:4][H:12])([H:10])[H:11])[C:5]([H:13])([H:14])[O:6]1)([H:7])([H:8])[H:9]>>[C:1](=[C:2]([C:3]([O:4][H:12])([H:10])[H:11])[H:8])([H:7])[H:9].[C:5](=[O:6])([H:13])[H:14]"
C       -1.54880763      -0.72083160       0.15781596
C       -0.29090299      -0.19699603      -0.17170706
C        0.94756439      -1.06335706      -0.07881537
O        2.13697225      -0.32126000      -0.15468290
C       -0.07226525       1.81163448      -0.08466643
O        0.35844478       1.37494848       1.06366809
H       -1.58029658      -1.43030766       0.98197734
H       -1.10281630      -0.69985191      -1.22201579
H       -2.44759334      -0.11801574       0.07755431
H        0.99634473      -1.79016184      -0.89359899
H        0.88714624      -1.63282909       0.85927585
H        2.07423206       0.37943700       0.50973131
H       -0.92496040       2.50264505      -0.07711352
H        0.56693803       1.90494593      -0.96742280
14
Frame=15 idx=004327 GeodesicLength=1.390514798676771 rxn_smarts="[C:1]([C@@:2]1([C:3]([O:4][H:12])([H:10])[H:11])[C:5]([H:13])([H:14])[O:6]1)([H:7])([H:8])[H:9]>>[C:1](=[C:2]([C:3]([O:4][H:12])([H:10])[H:11])[H:8])([H:7])[H:9].[C:5](=[O:6])([H:13])[H:14]"
C       -1.54878778      -0.72921599       0.15270676
C       -0.28965214      -0.20504129      -0.17822740
C        0.94965836      -1.06866412      -0.08330559
O        2.13811085      -0.32247580      -0.15534037
C       -0.07616361       1.83944371      -0.08200471
O        0.33320334       1.36375236       1.05848046
H       -1.57488780      -1.40931473       1.00146492
H       -1.11420904      -0.74936088      -1.22568496
H       -2.44720241      -0.12621858       0.06877025
H        1.00609837      -1.79407128      -0.89869917
H        0.88832467      -1.63977142       0.85364627
H        2.08011047       0.37011251       0.51629538
H       -0.90848995       2.55345978      -0.06334724
H        0.56388668       1.91736575      -0.96475461
14
Frame=16 idx=004327 GeodesicLength=1.4834843766743637 rxn_smarts="[C:1]([C@@:2]1([C:3]([O:4][H:12])([H:10])[H:11])[C:5]([H:13])([H:14])[O:6]1)([H:7])([H:8])[H:9]>>[C:1](=[C:2]([C:3]([O:4][H:12])([H:10])[H:11])[H:8])([H:7])[H:9].[C:5](=[O:6])([H:13])[H:14]"
C       -1.54881552      -0.73791777       0.14736057
C       -0.28852057      -0.21349159      -0.18546865
C        0.95178612      -1.07404400      -0.08772419
O        2.13903984      -0.32345805      -0.15640833
C       -0.08010337       1.86801932      -0.07871304
O        0.30731622       1.35262950       1.05204510
H       -1.56975802      -1.38748216       1.01989816
H       -1.12552412      -0.80204108      -1.22816468
H       -2.44675343      -0.13476024       0.05861301
H        1.01612298      -1.79854540      -0.90320330
H        0.88953149      -1.64616916       0.84846121
H        2.08595472       0.36086513       0.52242133
H       -0.88942618       2.60640152      -0.04665959
H        0.55914986       1.92999396      -0.96245761
