13
Frame=0 idx=011636 GeodesicLength=0.0 rxn_smarts="[C:1]([C@:2]12[C:3]([H:11])([H:12])[C@@:4]1([H:13])[C:5](=[O:6])[O:7]2)([H:8])([H:9])[H:10]>>[C:1]([C@@:2]1([C:4](=[C:5]=[O:6])[H:13])[C:3]([H:11])([H:12])[O:7]1)([H:8])([H:9])[H:10]"
C       -1.55826146      -0.67428375       0.01387223
C       -0.22878780       0.00664849       0.01177378
C        0.00872129       1.41783266       0.33593341
C        0.88220705      -0.22711574      -0.94285370
C        1.78403031      -0.53364746       0.06896586
O        2.85222197      -0.90791025       0.39420115
O        0.65096760      -0.24671148       1.15386853
H       -2.13358198      -0.41171720       0.90241524
H       -1.40461398      -1.75394798      -0.00952122
H       -2.12655254      -0.38707469      -0.87230390
H       -0.11905498       1.77407012       1.35260402
H        0.41562151       2.10219547      -0.39619407
H        0.97708297      -0.15833819      -2.01276136
13
Frame=1 idx=011636 GeodesicLength=0.05119299556924983 rxn_smarts="[C:1]([C@:2]12[C:3]([H:11])([H:12])[C@@:4]1([H:13])[C:5](=[O:6])[O:7]2)([H:8])([H:9])[H:10]>>[C:1]([C@@:2]1([C:4](=[C:5]=[O:6])[H:13])[C:3]([H:11])([H:12])[O:7]1)([H:8])([H:9])[H:10]"
C       -1.55650633      -0.67544007       0.01278338
C       -0.22747551       0.00392570       0.01924858
C        0.01775771       1.41360343       0.33766923
C        0.88743386      -0.20822079      -0.93587219
C        1.78956980      -0.54192105       0.06811867
O        2.85482246      -0.92972747       0.38492899
O        0.64917311      -0.23925183       1.16311539
H       -2.13498262      -0.41251864       0.89914618
H       -1.40281575      -1.75509309      -0.01105454
H       -2.11873704      -0.38583790      -0.87646447
H       -0.12231444       1.78301117       1.34785295
H        0.39261768       2.10817350      -0.40181266
H        0.97145707      -0.16070297      -2.00765952
13
Frame=2 idx=011636 GeodesicLength=0.102258190799725 rxn_smarts="[C:1]([C@:2]12[C:3]([H:11])([H:12])[C@@:4]1([H:13])[C:5](=[O:6])[O:7]2)([H:8])([H:9])[H:10]>>[C:1]([C@@:2]1([C:4](=[C:5]=[O:6])[H:13])[C:3]([H:11])([H:12])[O:7]1)([H:8])([H:9])[H:10]"
C       -1.55466868      -0.67643117       0.01162369
C       -0.22602755       0.00125090       0.02657691
C        0.02686869       1.40943844       0.33935106
C        0.89268119      -0.18980441      -0.92875722
C        1.79508280      -0.55009261       0.06696026
O        2.85740530      -0.95083673       0.37526111
O        0.64729901      -0.23183381       1.17231615
H       -2.13631675      -0.41299572       0.89573174
H       -1.40109938      -1.75609916      -0.01249571
H       -2.11075439      -0.38449608      -0.88071107
H       -0.12581371       1.79173056       1.34277753
H        0.36968511       2.11348849      -0.40666130
H        0.96565837      -0.16331870      -2.00197315
13
Frame=3 idx=011636 GeodesicLength=0.15317331216527963 rxn_smarts="[C:1]([C@:2]12[C:3]([H:11])([H:12])[C@@:4]1([H:13])[C:5](=[O:6])[O:7]2)([H:8])([H:9])[H:10]>>[C:1]([C@@:2]1([C:4](=[C:5]=[O:6])[H:13])[C:3]([H:11])([H:12])[O:7]1)([H:8])([H:9])[H:10]"
C       -1.55286374      -0.67725676       0.01040216
C       -0.22451322      -0.00145257       0.03374940
C        0.03606251       1.40525262       0.34094519
C        0.89784991      -0.17206442      -0.92155504
C        1.80051572      -0.55827953       0.06548790
O        2.86020937      -0.97061085       0.36526559
O        0.64526626      -0.22457554       1.18146025
H       -2.13767165      -0.41311338       0.89218919
H       -1.39965467      -1.75697851      -0.01382862
H       -2.10272439      -0.38302246      -0.88502744
H       -0.12942877       1.80014723       1.33735711
H        0.34719940       2.11798765      -0.41071353
H        0.95975327      -0.16603348      -1.99573216
13
Frame=4 idx=011636 GeodesicLength=0.20393499533771553 rxn_smarts="[C:1]([C@:2]12[C:3]([H:11])([H:12])[C@@:4]1([H:13])[C:5](=[O:6])[O:7]2)([H:8])([H:9])[H:10]>>[C:1]([C@@:2]1([C:4](=[C:5]=[O:6])[H:13])[C:3]([H:11])([H:12])[O:7]1)([H:8])([H:9])[H:10]"
C       -1.55131420      -0.67786838       0.00910199
C       -0.22303716      -0.00433193       0.04075563
C        0.04544104       1.40085506       0.34245373
C        0.90280635      -0.15532056      -0.91432735
C        1.80574291      -0.56687008       0.06368339
O        2.86383457      -0.98761917       0.35509528
O        0.64294814      -0.21777488       1.19053741
H       -2.13922437      -0.41276383       0.88852071
H       -1.39887579      -1.75770765      -0.01509324
H       -2.09484763      -0.38126564      -0.88942455
H       -0.13290237       1.80807261       1.33162971
H        0.32568204       2.12146034      -0.41390798
H        0.95374647      -0.16886589      -1.98902472
13
Frame=5 idx=011636 GeodesicLength=0.2543960969758994 rxn_smarts="[C:1]([C@:2]12[C:3]([H:11])([H:12])[C@@:4]1([H:13])[C:5](=[O:6])[O:7]2)([H:8])([H:9])[H:10]>>[C:1]([C@@:2]1([C:4](=[C:5]=[O:6])[H:13])[C:3]([H:11])([H:12])[O:7]1)([H:8])([H:9])[H:10]"
C       -1.54996074      -0.67825991       0.00772640
C       -0.22162830      -0.00741343       0.04759077
C        0.05493643       1.39617589       0.34391852
C        0.90751398      -0.13968690      -0.90702632
C        1.81058067      -0.57586835       0.06147566
O        2.86820524      -1.00172862       0.34476676
O        0.64026522      -0.21144667       1.19950878
H       -2.14089627      -0.41192427       0.88471472
H       -1.39868339      -1.75826767      -0.01630377
H       -2.08703984      -0.37923985      -0.89383370
H       -0.13624103       1.81549166       1.32555779
H        0.30535398       2.12390551      -0.41628639
H        0.94759406      -0.17173740      -1.98180922
13
Frame=6 idx=011636 GeodesicLength=0.3048031219257507 rxn_smarts="[C:1]([C@:2]12[C:3]([H:11])([H:12])[C@@:4]1([H:13])[C:5](=[O:6])[O:7]2)([H:8])([H:9])[H:10]>>[C:1]([C@@:2]1([C:4](=[C:5]=[O:6])[H:13])[C:3]([H:11])([H:12])[O:7]1)([H:8])([H:9])[H:10]"
C       -1.54881333      -0.67856289       0.00633820
C       -0.22027922      -0.01060179       0.05429024
C        0.06441207       1.39140079       0.34522848
C        0.91201795      -0.12487426      -0.89971221
C        1.81537811      -0.58486138       0.05898647
O        2.87306648      -1.01422552       0.33430295
O        0.63733157      -0.20531182       1.20845201
H       -2.14274687      -0.41079948       0.88084495
H       -1.39897544      -1.75877887      -0.01733093
H       -2.07940221      -0.37717775      -0.89826785
H       -0.13951080       1.82258020       1.31913861
H        0.28602559       2.12554286      -0.41797307
H        0.94149610      -0.17433009      -1.97429785
13
Frame=7 idx=011636 GeodesicLength=0.35509951016618796 rxn_smarts="[C:1]([C@:2]12[C:3]([H:11])([H:12])[C@@:4]1([H:13])[C:5](=[O:6])[O:7]2)([H:8])([H:9])[H:10]>>[C:1]([C@@:2]1([C:4](=[C:5]=[O:6])[H:13])[C:3]([H:11])([H:12])[O:7]1)([H:8])([H:9])[H:10]"
C       -1.54758101      -0.67887545       0.00499105
C       -0.21892139      -0.01372713       0.06089338
C        0.07359537       1.38675622       0.34636042
C        0.91638559      -0.11055713      -0.89234982
C        1.82024206      -0.59328953       0.05629071
O        2.87759893      -1.02698039       0.32347319
O        0.63421714      -0.19894110       1.21736998
H       -2.14453504      -0.40955609       0.87693289
H       -1.39919993      -1.75930512      -0.01810203
H       -2.07167814      -0.37534062      -0.90265679
H       -0.14301637       1.82960200       1.31230654
H        0.26732764       2.12658105      -0.41911757
H        0.93556516      -0.17636672      -1.96639196
13
Frame=8 idx=011636 GeodesicLength=0.40530049095116877 rxn_smarts="[C:1]([C@:2]12[C:3]([H:11])([H:12])[C@@:4]1([H:13])[C:5](=[O:6])[O:7]2)([H:8])([H:9])[H:10]>>[C:1]([C@@:2]1([C:4](=[C:5]=[O:6])[H:13])[C:3]([H:11])([H:12])[O:7]1)([H:8])([H:9])[H:10]"
C       -1.54645984      -0.67916746       0.00365961
C       -0.21762531      -0.01690134       0.06740019
C        0.08261313       1.38209285       0.34736894
C        0.92055815      -0.09691227      -0.88496980
C        1.82509345      -0.60148361       0.05336460
O        2.88231626      -1.03885467       0.31246094
O        0.63084865      -0.19259331       1.22629153
H       -2.14642885      -0.40814633       0.87298221
H       -1.39969641      -1.75983938      -0.01867423
H       -2.06405110      -0.37359497      -0.90703387
H       -0.14652736       1.83640612       1.30513782
H        0.24963260       2.12698109      -0.41974124
H        0.92972661      -0.17798672      -1.95824668
13
Frame=9 idx=011636 GeodesicLength=0.4553729447403882 rxn_smarts="[C:1]([C@:2]12[C:3]([H:11])([H:12])[C@@:4]1([H:13])[C:5](=[O:6])[O:7]2)([H:8])([H:9])[H:10]>>[C:1]([C@@:2]1([C:4](=[C:5]=[O:6])[H:13])[C:3]([H:11])([H:12])[O:7]1)([H:8])([H:9])[H:10]"
C       -1.54549379      -0.67939420       0.00233087
C       -0.21642690      -0.02018856       0.07380918
C        0.09149533       1.37729467       0.34829382
C        0.92449877      -0.08407725      -0.87755485
C        1.82980783      -0.60964092       0.05015917
O        2.88742927      -1.04921312       0.30132189
O        0.62714279      -0.18640230       1.23519447
H       -2.14845702      -0.40649476       0.86897224
H       -1.40056852      -1.76033221      -0.01908444
H       -2.05653039      -0.37185845      -0.91138005
H       -0.14995603       1.84290018       1.29766582
H        0.23313068       2.12669595      -0.41984349
H        0.92392798      -0.17928904      -1.94988463
13
Frame=10 idx=011636 GeodesicLength=0.5053806989498508 rxn_smarts="[C:1]([C@:2]12[C:3]([H:11])([H:12])[C@@:4]1([H:13])[C:5](=[O:6])[O:7]2)([H:8])([H:9])[H:10]>>[C:1]([C@@:2]1([C:4](=[C:5]=[O:6])[H:13])[C:3]([H:11])([H:12])[O:7]1)([H:8])([H:9])[H:10]"
C       -1.54460853      -0.67961796       0.00102319
C       -0.21529445      -0.02350622       0.08015281
C        0.10015947       1.37249617       0.34913043
C        0.92824231      -0.07181647      -0.87012101
C        1.83454410      -0.61751937       0.04675651
O        2.89263860      -1.05891433       0.28999326
O        0.62316810      -0.18017605       1.24411532
H       -2.15057139      -0.40472422       0.86492186
H       -1.40164404      -1.76083976      -0.01931324
H       -2.04908027      -0.37024001      -0.91570029
H       -0.15338225       1.84920019       1.28992217
H        0.21758981       2.12587913      -0.41953088
H        0.91823854      -0.18022110      -1.94135013
13
Frame=11 idx=011636 GeodesicLength=0.5553229215360195 rxn_smarts="[C:1]([C@:2]12[C:3]([H:11])([H:12])[C@@:4]1([H:13])[C:5](=[O:6])[O:7]2)([H:8])([H:9])[H:10]>>[C:1]([C@@:2]1([C:4](=[C:5]=[O:6])[H:13])[C:3]([H:11])([H:12])[O:7]1)([H:8])([H:9])[H:10]"
C       -1.54372202      -0.67987334      -0.00025242
C       -0.21420078      -0.02680337       0.08645401
C        0.10854244       1.36776116       0.34988926
C        0.93183473      -0.06000002      -0.86264397
C        1.83933971      -0.62497412       0.04317890
O        2.89772366      -1.06854205       0.27841307
O        0.61894708      -0.17379362       1.25307428
H       -2.15272269      -0.40288752       0.86082121
H       -1.40276468      -1.76138449      -0.01932413
H       -2.04161253      -0.36883040      -0.91999718
H       -0.15687798       1.85538610       1.28191648
H        0.20284529       2.12465600      -0.41888136
H        0.91266777      -0.18071432      -1.93264814
13
Frame=12 idx=011636 GeodesicLength=0.6052446232804307 rxn_smarts="[C:1]([C@:2]12[C:3]([H:11])([H:12])[C@@:4]1([H:13])[C:5](=[O:6])[O:7]2)([H:8])([H:9])[H:10]>>[C:1]([C@@:2]1([C:4](=[C:5]=[O:6])[H:13])[C:3]([H:11])([H:12])[O:7]1)([H:8])([H:9])[H:10]"
C       -1.54282611      -0.68016942      -0.00148984
C       -0.21313188      -0.03006157       0.09273573
C        0.11663700       1.36311713       0.35058836
C        0.93531416      -0.04854852      -0.85511998
C        1.84425288      -0.63198156       0.03944435
O        2.90264948      -1.07831868       0.26655791
O        0.61450186      -0.16721783       1.26210668
H       -2.15493392      -0.40100444       0.85667163
H       -1.40389441      -1.76197291      -0.01910237
H       -2.03411666      -0.36764336      -0.92428637
H       -0.16047020       1.86147954       1.27368613
H        0.18877478       2.12308757      -0.41797216
H        0.90724301      -0.18076596      -1.92382008
13
Frame=13 idx=011636 GeodesicLength=0.655115467669491 rxn_smarts="[C:1]([C@:2]12[C:3]([H:11])([H:12])[C@@:4]1([H:13])[C:5](=[O:6])[O:7]2)([H:8])([H:9])[H:10]>>[C:1]([C@@:2]1([C:4](=[C:5]=[O:6])[H:13])[C:3]([H:11])([H:12])[O:7]1)([H:8])([H:9])[H:10]"
C       -1.54182495      -0.68053917      -0.00268745
C       -0.21206307      -0.03324473       0.09902562
C        0.12440699       1.35860741       0.35127841
C        0.93869279      -0.03735814      -0.84750241
C        1.84926159      -0.63844496       0.03557917
O        2.90717221      -1.08864453       0.25437102
O        0.60983356      -0.16035163       1.27122008
H       -2.15709859      -0.39915799       0.85247032
H       -1.40488151      -1.76262477      -0.01868897
H       -2.02650093      -0.36672769      -0.92853327
H       -0.16424114       1.86755065       1.26519770
H        0.17532560       2.12129038      -0.41688691
H        0.90191744      -0.18035482      -1.91484330
13
Frame=14 idx=011636 GeodesicLength=0.7049195737733571 rxn_smarts="[C:1]([C@:2]12[C:3]([H:11])([H:12])[C@@:4]1([H:13])[C:5](=[O:6])[O:7]2)([H:8])([H:9])[H:10]>>[C:1]([C@@:2]1([C:4](=[C:5]=[O:6])[H:13])[C:3]([H:11])([H:12])[O:7]1)([H:8])([H:9])[H:10]"
C       -1.54095050      -0.68085708      -0.00388957
C       -0.21108894      -0.03651968       0.10527487
C        0.13202115       1.35399860       0.35193511
C        0.94182253      -0.02679562      -0.83987279
C        1.85419515      -0.64489784       0.03150769
O        2.91205969      -1.09765645       0.24205021
O        0.60480408      -0.15356344       1.28033814
H       -2.15938525      -0.39709931       0.84816686
H       -1.40620699      -1.76324191      -0.01816125
H       -2.01894473      -0.36583158      -0.93276591
H       -0.16782076       1.87334526       1.25657763
H        0.16286560       2.11895380      -0.41542963
H        0.89662897      -0.17983475      -1.90573135
13
Frame=15 idx=011636 GeodesicLength=0.7546973543925647 rxn_smarts="[C:1]([C@:2]12[C:3]([H:11])([H:12])[C@@:4]1([H:13])[C:5](=[O:6])[O:7]2)([H:8])([H:9])[H:10]>>[C:1]([C@@:2]1([C:4](=[C:5]=[O:6])[H:13])[C:3]([H:11])([H:12])[O:7]1)([H:8])([H:9])[H:10]"
C       -1.54017303      -0.68117444      -0.00507386
C       -0.21018892      -0.03983902       0.11152260
C        0.13943384       1.34934975       0.35261100
C        0.94480917      -0.01668874      -0.83220134
C        1.85915306      -0.65120185       0.02726200
O        2.91715670      -1.10598119       0.22956402
O        0.59946297      -0.14676489       1.28954251
H       -2.16180942      -0.39496013       0.84381221
H       -1.40773963      -1.76386756      -0.01749670
H       -2.01144695      -0.36501795      -0.93698440
H       -0.17134843       1.87893944       1.24782183
H        0.15130343       2.11631083      -0.41380136
H        0.89138721      -0.17910425      -1.89657851
13
Frame=16 idx=011636 GeodesicLength=0.8044458511613143 rxn_smarts="[C:1]([C@:2]12[C:3]([H:11])([H:12])[C@@:4]1([H:13])[C:5](=[O:6])[O:7]2)([H:8])([H:9])[H:10]>>[C:1]([C@@:2]1([C:4](=[C:5]=[O:6])[H:13])[C:3]([H:11])([H:12])[O:7]1)([H:8])([H:9])[H:10]"
C       -1.53941650      -0.68150755      -0.00623957
C       -0.20933325      -0.04316443       0.11778365
C        0.14661887       1.34471915       0.35331089
C        0.94766040      -0.00694740      -0.82447473
C        1.86415518      -0.65727343       0.02285911
O        2.92227633      -1.11400335       0.21683586
O        0.59382780      -0.13986030       1.29883128
H       -2.16431058      -0.39273852       0.83937160
H       -1.40936910      -1.76451326      -0.01666545
H       -2.00391354      -0.36436098      -0.94120326
H       -0.17486904       1.88438771       1.23894160
H        0.14046609       2.11339508      -0.41200963
H        0.88620734      -0.17813273      -1.88734135
