10
Frame=0 idx=011266 GeodesicLength=0.0 rxn_smarts="[O:1]=[C:2]([c:3]1[n:4][c:5]([H:9])[c:6]([H:10])[o:7]1)[H:8]>>[O:1]=[C:2]=[C:3]1[N:4]=[C:5]([H:9])[C:6]([H:8])([H:10])[O:7]1"
O        2.73877449       0.48250688      -0.28390014
C        1.64529405       0.22996889      -0.01945770
C        0.71391239      -0.57199347       0.85563417
N        0.05280243      -1.41808105      -0.02754255
C       -1.00064354      -0.75057622      -0.40917952
C       -0.93036364       0.55981091       0.15443656
O       -0.14983950       0.43131000       1.26636290
H        0.35010568       0.84782496      -0.57221501
H       -1.70560829      -1.11675906      -1.14383935
H       -1.71443408       1.30598816       0.17970064
10
Frame=1 idx=011266 GeodesicLength=0.07374637300864245 rxn_smarts="[O:1]=[C:2]([c:3]1[n:4][c:5]([H:9])[c:6]([H:10])[o:7]1)[H:8]>>[O:1]=[C:2]=[C:3]1[N:4]=[C:5]([H:9])[C:6]([H:8])([H:10])[O:7]1"
O        2.76231370       0.48590984      -0.24439559
C        1.65935843       0.22352748      -0.02645069
C        0.71758088      -0.56726157       0.83709974
N        0.04887349      -1.41625853      -0.03338993
C       -1.01170386      -0.75202288      -0.40603281
C       -0.93362978       0.56319572       0.14668356
O       -0.14523872       0.43306731       1.25608866
H        0.36016683       0.85987465      -0.59912033
H       -1.72688949      -1.12445262      -1.12731583
H       -1.73083149       1.29442058       0.19683321
10
Frame=2 idx=011266 GeodesicLength=0.14756653944497533 rxn_smarts="[O:1]=[C:2]([c:3]1[n:4][c:5]([H:9])[c:6]([H:10])[o:7]1)[H:8]>>[O:1]=[C:2]=[C:3]1[N:4]=[C:5]([H:9])[C:6]([H:8])([H:10])[O:7]1"
O        2.78430850       0.48915398      -0.20447724
C        1.67380253       0.21711138      -0.03327476
C        0.72125722      -0.56240524       0.81819588
N        0.04508362      -1.41435544      -0.03949766
C       -1.02274532      -0.75349455      -0.40277297
C       -0.93714864       0.56655359       0.13893467
O       -0.14066207       0.43482099       1.24567688
H        0.37054417       0.87207701      -0.62643191
H       -1.74801117      -1.13216708      -1.11042260
H       -1.74642885       1.28270535       0.21406972
10
Frame=3 idx=011266 GeodesicLength=0.22091132377347564 rxn_smarts="[O:1]=[C:2]([c:3]1[n:4][c:5]([H:9])[c:6]([H:10])[o:7]1)[H:8]>>[O:1]=[C:2]=[C:3]1[N:4]=[C:5]([H:9])[C:6]([H:8])([H:10])[O:7]1"
O        2.80430092       0.49231036      -0.16462662
C        1.68840905       0.21064452      -0.03981396
C        0.72477325      -0.55743848       0.79903496
N        0.04134736      -1.41227712      -0.04567716
C       -1.03368664      -0.75496221      -0.39921183
C       -0.94083400       0.56975612       0.13131998
O       -0.13615188       0.43642978       1.23521291
H        0.38123323       0.88434108      -0.65408768
H       -1.76846162      -1.13961541      -1.09337738
H       -1.76092966       1.27081136       0.23122677
10
Frame=4 idx=011266 GeodesicLength=0.2943297388685005 rxn_smarts="[O:1]=[C:2]([c:3]1[n:4][c:5]([H:9])[c:6]([H:10])[o:7]1)[H:8]>>[O:1]=[C:2]=[C:3]1[N:4]=[C:5]([H:9])[C:6]([H:8])([H:10])[O:7]1"
O        2.82281912       0.49499968      -0.12488966
C        1.70335995       0.20434932      -0.04587093
C        0.72826179      -0.55229122       0.77958371
N        0.03783164      -1.41006997      -0.05210564
C       -1.04456231      -0.75648471      -0.39550488
C       -0.94486875       0.57287268       0.12381928
O       -0.13178584       0.43800721       1.22471179
H        0.39222574       0.89684703      -0.68201864
H       -1.78855599      -1.14708071      -1.07611935
H       -1.77472534       1.25885069       0.24839432
10
Frame=5 idx=011266 GeodesicLength=0.3677576788429847 rxn_smarts="[O:1]=[C:2]([c:3]1[n:4][c:5]([H:9])[c:6]([H:10])[o:7]1)[H:8]>>[O:1]=[C:2]=[C:3]1[N:4]=[C:5]([H:9])[C:6]([H:8])([H:10])[O:7]1"
O        2.83987963       0.49734872      -0.08520807
C        1.71863838       0.19820677      -0.05138615
C        0.73167900      -0.54700681       0.75981026
N        0.03451101      -1.40771165      -0.05889007
C       -1.05535041      -0.75803773      -0.39172256
C       -0.94919921       0.57588900       0.11641183
O       -0.12755112       0.43946738       1.21417512
H        0.40360676       0.90965075      -0.71024733
H       -1.80846836      -1.15464080      -1.05842489
H       -1.78774568       1.24683436       0.26548186
10
Frame=6 idx=011266 GeodesicLength=0.44110348939438326 rxn_smarts="[O:1]=[C:2]([c:3]1[n:4][c:5]([H:9])[c:6]([H:10])[o:7]1)[H:8]>>[O:1]=[C:2]=[C:3]1[N:4]=[C:5]([H:9])[C:6]([H:8])([H:10])[O:7]1"
O        2.85551759       0.49926035      -0.04566419
C        1.73418410       0.19223230      -0.05634134
C        0.73499752      -0.54153928       0.73969906
N        0.03139020      -1.40515882      -0.06601641
C       -1.06603775      -0.75962941      -0.38781285
C       -0.95385129       0.57876770       0.10914358
O       -0.12347752       0.44080593       1.20360801
H        0.41536467       0.92276097      -0.73877280
H       -1.82807221      -1.16226699      -1.04033123
H       -1.80001532       1.23476724       0.28248817
10
Frame=7 idx=011266 GeodesicLength=0.5144254098515785 rxn_smarts="[O:1]=[C:2]([c:3]1[n:4][c:5]([H:9])[c:6]([H:10])[o:7]1)[H:8]>>[O:1]=[C:2]=[C:3]1[N:4]=[C:5]([H:9])[C:6]([H:8])([H:10])[O:7]1"
O        2.86983117       0.50070083      -0.00636019
C        1.74998031       0.18640342      -0.06073318
C        0.73823335      -0.53586173       0.71927208
N        0.02844222      -1.40244684      -0.07340635
C       -1.07667936      -0.76131690      -0.38367717
C       -0.95887567       0.58149541       0.10207883
O       -0.11954109       0.44206429       1.19304322
H        0.42746995       0.93619080      -0.76761171
H       -1.84724395      -1.16992476      -1.02203732
H       -1.81161693       1.22269547       0.29943179
10
Frame=8 idx=011266 GeodesicLength=0.5876556439731611 rxn_smarts="[O:1]=[C:2]([c:3]1[n:4][c:5]([H:9])[c:6]([H:10])[o:7]1)[H:8]>>[O:1]=[C:2]=[C:3]1[N:4]=[C:5]([H:9])[C:6]([H:8])([H:10])[O:7]1"
O        2.88284222       0.50165541       0.03255418
C        1.76597066       0.18065343      -0.06458083
C        0.74136186      -0.52992759       0.69855615
N        0.02562229      -1.39957518      -0.08092656
C       -1.08730692      -0.76313935      -0.37916173
C       -0.96430378       0.58403843       0.09529938
O       -0.11573896       0.44328732       1.18250451
H        0.43990250       0.94988802      -0.79678738
H       -1.86574691      -1.17750268      -1.00381336
H       -1.82260295       1.21062217       0.31635564
10
Frame=9 idx=011266 GeodesicLength=0.6608499301093597 rxn_smarts="[O:1]=[C:2]([c:3]1[n:4][c:5]([H:9])[c:6]([H:10])[o:7]1)[H:8]>>[O:1]=[C:2]=[C:3]1[N:4]=[C:5]([H:9])[C:6]([H:8])([H:10])[O:7]1"
O        2.89466848       0.50210702       0.07118805
C        1.78216658       0.17498909      -0.06788831
C        0.74439860      -0.52371738       0.67749609
N        0.02293361      -1.39654538      -0.08863042
C       -1.09792976      -0.76511108      -0.37428180
C       -0.97015270       0.58640168       0.08880001
O       -0.11204764       0.44448314       1.17197232
H        0.45268998       0.96390973      -0.82635236
H       -1.88369388      -1.18508162      -0.98558545
H       -1.83303326       1.19856481       0.33328186
10
Frame=10 idx=011266 GeodesicLength=0.734008635930832 rxn_smarts="[O:1]=[C:2]([c:3]1[n:4][c:5]([H:9])[c:6]([H:10])[o:7]1)[H:8]>>[O:1]=[C:2]=[C:3]1[N:4]=[C:5]([H:9])[C:6]([H:8])([H:10])[O:7]1"
O        2.90537842       0.50204352       0.10955201
C        1.79856229       0.16937405      -0.07066167
C        0.74733612      -0.51719289       0.65605909
N        0.02035988      -1.39335028      -0.09649819
C       -1.10855981      -0.76724821      -0.36898783
C       -0.97644531       0.58857934       0.08260451
O       -0.10846053       0.44568299       1.16143239
H        0.46586328       0.97825993      -0.85635120
H       -1.90106052      -1.19266369      -0.96740712
H       -1.84297383       1.18651523       0.35025800
10
Frame=11 idx=011266 GeodesicLength=0.8071781005674754 rxn_smarts="[O:1]=[C:2]([c:3]1[n:4][c:5]([H:9])[c:6]([H:10])[o:7]1)[H:8]>>[O:1]=[C:2]=[C:3]1[N:4]=[C:5]([H:9])[C:6]([H:8])([H:10])[O:7]1"
O        2.91504526       0.50141387       0.14781807
C        1.81515981       0.16382816      -0.07290645
C        0.75019547      -0.51032612       0.63416515
N        0.01791938      -1.38998233      -0.10461928
C       -1.11918416      -0.76955628      -0.36333027
C       -0.98319149       0.59058463       0.07668770
O       -0.10494099       0.44689098       1.15085563
H        0.47944638       0.99302855      -0.88685559
H       -1.91799059      -1.20036398      -0.94912130
H       -1.85245908       1.17448253       0.36730635
10
Frame=12 idx=011266 GeodesicLength=0.8802185146323707 rxn_smarts="[O:1]=[C:2]([c:3]1[n:4][c:5]([H:9])[c:6]([H:10])[o:7]1)[H:8]>>[O:1]=[C:2]=[C:3]1[N:4]=[C:5]([H:9])[C:6]([H:8])([H:10])[O:7]1"
O        2.92358014       0.50037415       0.18591268
C        1.83194311       0.15818665      -0.07463966
C        0.75291092      -0.50309139       0.61177144
N        0.01554634      -1.38640050      -0.11291731
C       -1.12979670      -0.77201625      -0.35721099
C       -0.99037850       0.59237471       0.07110689
O       -0.10151706       0.44809606       1.14020817
H        0.49355720       1.00811926      -0.91787605
H       -1.93435129      -1.20806486      -0.93081525
H       -1.86149418       1.16242217       0.38446008
10
Frame=13 idx=011266 GeodesicLength=0.9532161511073778 rxn_smarts="[O:1]=[C:2]([c:3]1[n:4][c:5]([H:9])[c:6]([H:10])[o:7]1)[H:8]>>[O:1]=[C:2]=[C:3]1[N:4]=[C:5]([H:9])[C:6]([H:8])([H:10])[O:7]1"
O        2.93117710       0.49859008       0.22401196
C        1.84891952       0.15261869      -0.07584058
C        0.75550768      -0.49536429       0.58877197
N        0.01330781      -1.38254417      -0.12149716
C       -1.14037827      -0.77464170      -0.35067763
C       -0.99807522       0.59397054       0.06581865
O       -0.09820196       0.44937191       1.12942721
H        0.50821062       1.02366502      -0.94950369
H       -1.95025800      -1.21593215      -0.91231597
H       -1.87020928       1.15026607       0.40180524
10
Frame=14 idx=011266 GeodesicLength=1.0262132519898446 rxn_smarts="[O:1]=[C:2]([c:3]1[n:4][c:5]([H:9])[c:6]([H:10])[o:7]1)[H:8]>>[O:1]=[C:2]=[C:3]1[N:4]=[C:5]([H:9])[C:6]([H:8])([H:10])[O:7]1"
O        2.93775640       0.49625812       0.26211156
C        1.86607929       0.14695231      -0.07649613
C        0.75799324      -0.48716702       0.56515595
N        0.01114415      -1.37848446      -0.13029390
C       -1.15094582      -0.77745841      -0.34369437
C       -1.00627361       0.59538815       0.06085973
O       -0.09490897       0.45072723       1.11853767
H        0.52344720       1.03967395      -0.98181922
H       -1.96570512      -1.22394253      -0.89373895
H       -1.87858676       1.13805265       0.41937765
10
Frame=15 idx=011266 GeodesicLength=1.0991729809809905 rxn_smarts="[O:1]=[C:2]([c:3]1[n:4][c:5]([H:9])[c:6]([H:10])[o:7]1)[H:8]>>[O:1]=[C:2]=[C:3]1[N:4]=[C:5]([H:9])[C:6]([H:8])([H:10])[O:7]1"
O        2.94337504       0.49317139       0.30037011
C        1.88343163       0.14125512      -0.07661640
C        0.76034603      -0.47837765       0.54076547
N        0.00909624      -1.37412571      -0.13941506
C       -1.16145435      -0.78044976      -0.33630153
C       -1.01501846       0.59660765       0.05622023
O       -0.09169777       0.45218488       1.10745573
H        0.53937964       1.05622807      -1.01486166
H       -1.98075810      -1.23221404      -0.87483265
H       -1.88669990       1.12572005       0.43721577
10
Frame=16 idx=011266 GeodesicLength=1.1721090592948678 rxn_smarts="[O:1]=[C:2]([c:3]1[n:4][c:5]([H:9])[c:6]([H:10])[o:7]1)[H:8]>>[O:1]=[C:2]=[C:3]1[N:4]=[C:5]([H:9])[C:6]([H:8])([H:10])[O:7]1"
O        2.94799286       0.48936353       0.33874478
C        1.90094914       0.13542035      -0.07618600
C        0.76255466      -0.46893724       0.51556886
N        0.00711950      -1.36949037      -0.14874398
C       -1.17191321      -0.78364302      -0.32841462
C       -1.02433946       0.59762928       0.05194818
O       -0.08852390       0.45379818       1.09617519
H        0.55605514       1.07332637      -1.04872444
H       -1.99531883      -1.24069974      -0.85577903
H       -1.89457590       1.11323267       0.45541105
