11
Frame=0 idx=004046 GeodesicLength=0.0 rxn_smarts="[O:1]([c:2]1[c:3]([H:8])[n:4]([H:9])[c:5]([H:10])[c:6]1[H:11])[H:7]>>[O:1]([C:2]1=[C:3]([H:8])[C@@:6]1(/[C:5](=[N:4]/[H:9])[H:10])[H:11])[H:7]"
O        2.46086326       0.22723154      -0.16692582
C        1.18294621      -0.20163731      -0.12864247
C        0.90955297      -1.54976719      -0.26804396
N       -1.77396500      -0.78133909      -0.07092477
C       -1.24817983       0.35619921       0.16720898
C        0.16046659       0.57629663       0.37918620
H        2.47343114       1.17732795      -0.01671757
H        0.01681467      -1.79373152      -0.85252261
H       -2.76263365      -0.68768487      -0.29095022
H       -1.85062803       1.27003322       0.22068924
H        0.43133170       1.40707140       1.02764303
11
Frame=1 idx=004046 GeodesicLength=0.09442587612072353 rxn_smarts="[O:1]([c:2]1[c:3]([H:8])[n:4]([H:9])[c:5]([H:10])[c:6]1[H:11])[H:7]>>[O:1]([C:2]1=[C:3]([H:8])[C@@:6]1(/[C:5](=[N:4]/[H:9])[H:10])[H:11])[H:7]"
O        2.45572985       0.22147453      -0.19908115
C        1.17285594      -0.18947046      -0.14831973
C        0.86269729      -1.53148243      -0.20533971
N       -1.75213587      -0.77272894      -0.10281582
C       -1.24665251       0.37212323       0.15629623
C        0.15825500       0.57724624       0.40029065
H        2.48447114       1.16810582      -0.03079320
H        0.04237481      -1.82266851      -0.86638384
H       -2.74540513      -0.70145630      -0.30812614
H       -1.86377037       1.27121911       0.25653074
H        0.43157985       1.40763770       1.04774196
11
Frame=2 idx=004046 GeodesicLength=0.18974109723793445 rxn_smarts="[O:1]([c:2]1[c:3]([H:8])[n:4]([H:9])[c:5]([H:10])[c:6]1[H:11])[H:7]>>[O:1]([C:2]1=[C:3]([H:8])[C@@:6]1(/[C:5](=[N:4]/[H:9])[H:10])[H:11])[H:7]"
O        2.44986565       0.21443520      -0.22771216
C        1.16310786      -0.17972367      -0.16147420
C        0.81662189      -1.50972661      -0.15346838
N       -1.72950693      -0.76003888      -0.14391727
C       -1.24461481       0.39021573       0.14163081
C        0.15543881       0.57866698       0.41972911
H        2.49404378       1.15812953      -0.04763560
H        0.07179687      -1.85482964      -0.87261017
H       -2.72975736      -0.71458747      -0.31718139
H       -1.87711763       1.27005555       0.29441023
H        0.43012188       1.40740329       1.06822902
11
Frame=3 idx=004046 GeodesicLength=0.2853215394982733 rxn_smarts="[O:1]([c:2]1[c:3]([H:8])[n:4]([H:9])[c:5]([H:10])[c:6]1[H:11])[H:7]>>[O:1]([C:2]1=[C:3]([H:8])[C@@:6]1(/[C:5](=[N:4]/[H:9])[H:10])[H:11])[H:7]"
O        2.44302637       0.20695815      -0.25599695
C        1.15317050      -0.17114431      -0.17121010
C        0.77098504      -1.48570370      -0.10981930
N       -1.70665096      -0.74360714      -0.19000230
C       -1.24262601       0.40975566       0.12810771
C        0.15222742       0.58070203       0.43845355
H        2.50248724       1.14800591      -0.06742911
H        0.10248533      -1.89013544      -0.86945875
H       -2.71274349      -0.72700221      -0.32723325
H       -1.89075146       1.26614484       0.33430623
H        0.42839001       1.40602622       1.09028227
11
Frame=4 idx=004046 GeodesicLength=0.3809719382712025 rxn_smarts="[O:1]([c:2]1[c:3]([H:8])[n:4]([H:9])[c:5]([H:10])[c:6]1[H:11])[H:7]>>[O:1]([C:2]1=[C:3]([H:8])[C@@:6]1(/[C:5](=[N:4]/[H:9])[H:10])[H:11])[H:7]"
O        2.43510210       0.19924196      -0.28475204
C        1.14289879      -0.16326239      -0.17869297
C        0.72562578      -1.46012771      -0.07278939
N       -1.68351297      -0.72332242      -0.23986410
C       -1.24088652       0.43016676       0.11768696
C        0.14883039       0.58330284       0.45695903
H        2.50977204       1.13799092      -0.09069387
H        0.13321000      -1.92789598      -0.85668822
H       -2.69328249      -0.73872348      -0.34150618
H       -1.90474870       1.25909591       0.37621010
H        0.42699158       1.40353360       1.11413069
11
Frame=5 idx=004046 GeodesicLength=0.4768679356244173 rxn_smarts="[O:1]([c:2]1[c:3]([H:8])[n:4]([H:9])[c:5]([H:10])[c:6]1[H:11])[H:7]>>[O:1]([C:2]1=[C:3]([H:8])[C@@:6]1(/[C:5](=[N:4]/[H:9])[H:10])[H:11])[H:7]"
O        2.42606289       0.19115516      -0.31354990
C        1.13230854      -0.15584690      -0.18462595
C        0.68057216      -1.43338827      -0.04299148
N       -1.65985759      -0.69978515      -0.28979181
C       -1.23942973       0.45102145       0.11022820
C        0.14513515       0.58595502       0.47544845
H        2.51588347       1.12772204      -0.11590164
H        0.16335237      -1.96583141      -0.83662621
H       -2.67076355      -0.75049122      -0.35810861
H       -1.91877861       1.25000002       0.41623855
H        0.42551491       1.39948927       1.13968039
11
Frame=6 idx=004046 GeodesicLength=0.5731230083678334 rxn_smarts="[O:1]([c:2]1[c:3]([H:8])[n:4]([H:9])[c:5]([H:10])[c:6]1[H:11])[H:7]>>[O:1]([C:2]1=[C:3]([H:8])[C@@:6]1(/[C:5](=[N:4]/[H:9])[H:10])[H:11])[H:7]"
O        2.41573794       0.18305050      -0.34319402
C        1.12145820      -0.14885678      -0.18932540
C        0.63618076      -1.40605229      -0.01934382
N       -1.63560533      -0.67358794      -0.33793732
C       -1.23824049       0.47178289       0.10605113
C        0.14125294       0.58823018       0.49435544
H        2.52038288       1.11759262      -0.14377436
H        0.19254949      -2.00357609      -0.80894843
H       -2.64490990      -0.76103473      -0.37975369
H       -1.93285731       1.23889449       0.45475273
H        0.42405080       1.39355716       1.16711774
11
Frame=7 idx=004046 GeodesicLength=0.6696751618779819 rxn_smarts="[O:1]([c:2]1[c:3]([H:8])[n:4]([H:9])[c:5]([H:10])[c:6]1[H:11])[H:7]>>[O:1]([C:2]1=[C:3]([H:8])[C@@:6]1(/[C:5](=[N:4]/[H:9])[H:10])[H:11])[H:7]"
O        2.40427844       0.17540873      -0.37425195
C        1.11062326      -0.14220547      -0.19303266
C        0.59276905      -1.37853156      -0.00095935
N       -1.61092388      -0.64540222      -0.38338792
C       -1.23717165       0.49207577       0.10495080
C        0.13741219       0.58983529       0.51393743
H        2.52320245       1.10808762      -0.17467454
H        0.22043381      -2.04099134      -0.77330339
H       -2.61646760      -0.76934447      -0.40799559
H       -1.94693054       1.22559654       0.49207287
H        0.42277448       1.38547109       1.19664429
11
Frame=8 idx=004046 GeodesicLength=0.7663066825947458 rxn_smarts="[O:1]([c:2]1[c:3]([H:8])[n:4]([H:9])[c:5]([H:10])[c:6]1[H:11])[H:7]>>[O:1]([C:2]1=[C:3]([H:8])[C@@:6]1(/[C:5](=[N:4]/[H:9])[H:10])[H:11])[H:7]"
O        2.39159173       0.16872166      -0.40698140
C        1.10000023      -0.13578001      -0.19592308
C        0.55052845      -1.35112802       0.01294579
N       -1.58599356      -0.61575374      -0.42636662
C       -1.23588413       0.51165000       0.10652563
C        0.13388490       0.59055721       0.53418256
H        2.52415481       1.09972617      -0.20885828
H        0.24669107      -2.07797952      -0.72889007
H       -2.58635359      -0.77440736      -0.44378593
H       -1.96061601       1.20944224       0.52893176
H        0.42199610       1.37495135       1.22821965
11
Frame=9 idx=004046 GeodesicLength=0.8630383936292724 rxn_smarts="[O:1]([c:2]1[c:3]([H:8])[n:4]([H:9])[c:5]([H:10])[c:6]1[H:11])[H:7]>>[O:1]([C:2]1=[C:3]([H:8])[C@@:6]1(/[C:5](=[N:4]/[H:9])[H:10])[H:11])[H:7]"
O        2.37763232       0.16310751      -0.44146229
C        1.08980221      -0.12979320      -0.19786719
C        0.50966145      -1.32429487       0.02272248
N       -1.56057028      -0.58496074      -0.46700283
C       -1.23429675       0.53038555       0.11038806
C        0.13065044       0.58992963       0.55532772
H        2.52273144       1.09287897      -0.24683950
H        0.27163912      -2.11409158      -0.67560489
H       -2.55494917      -0.77529176      -0.48673067
H       -1.97384648       1.19063476       0.56492543
H        0.42154569       1.36149572       1.26214369
11
Frame=10 idx=004046 GeodesicLength=0.9598573462700386 rxn_smarts="[O:1]([c:2]1[c:3]([H:8])[n:4]([H:9])[c:5]([H:10])[c:6]1[H:11])[H:7]>>[O:1]([C:2]1=[C:3]([H:8])[C@@:6]1(/[C:5](=[N:4]/[H:9])[H:10])[H:11])[H:7]"
O        2.36241921       0.15872054      -0.47753787
C        1.08029614      -0.12455952      -0.19859601
C        0.47033859      -1.29851728       0.02833506
N       -1.53452219      -0.55316866      -0.50529276
C       -1.23228904       0.54812101       0.11613655
C        0.12762994       0.58716359       0.57779185
H        2.51813410       1.08799907      -0.28919074
H        0.29578503      -2.14865781      -0.61373956
H       -2.52243781      -0.77146316      -0.53541255
H       -1.98645282       1.17024690       0.59854282
H        0.42109886       1.34411531       1.29896321
11
Frame=11 idx=004046 GeodesicLength=1.0568541234434532 rxn_smarts="[O:1]([c:2]1[c:3]([H:8])[n:4]([H:9])[c:5]([H:10])[c:6]1[H:11])[H:7]>>[O:1]([C:2]1=[C:3]([H:8])[C@@:6]1(/[C:5](=[N:4]/[H:9])[H:10])[H:11])[H:7]"
O        2.34581224       0.15571405      -0.51495434
C        1.07174108      -0.12042462      -0.19772390
C        0.43259732      -1.27411213       0.02983155
N       -1.50764407      -0.52009283      -0.54180258
C       -1.22955677       0.56474578       0.12338547
C        0.12482884       0.58144052       0.60186088
H        2.50920796       1.08556442      -0.33684637
H        0.31940961      -2.18089903      -0.54276812
H       -2.48873808      -0.76241153      -0.58903478
H       -1.99817047       1.14883091       0.62904292
H        0.42051235       1.32164447       1.33900927
11
Frame=12 idx=004046 GeodesicLength=1.154078626980636 rxn_smarts="[O:1]([c:2]1[c:3]([H:8])[n:4]([H:9])[c:5]([H:10])[c:6]1[H:11])[H:7]>>[O:1]([C:2]1=[C:3]([H:8])[C@@:6]1(/[C:5](=[N:4]/[H:9])[H:10])[H:11])[H:7]"
O        2.32772042       0.15429773      -0.55356776
C        1.06445850      -0.11768182      -0.19498196
C        0.39625081      -1.25130914       0.02716694
N       -1.47963009      -0.48524618      -0.57762113
C       -1.22570578       0.58020203       0.13189541
C        0.12242562       0.57219012       0.62764209
H        2.49483878       1.08615372      -0.39084699
H        0.34206859      -2.21015100      -0.46101425
H       -2.45363847      -0.74764980      -0.64798384
H       -2.00878095       1.12596507       0.65683979
H        0.41999257       1.29322927       1.38247170
11
Frame=13 idx=004046 GeodesicLength=1.251367094591238 rxn_smarts="[O:1]([c:2]1[c:3]([H:8])[n:4]([H:9])[c:5]([H:10])[c:6]1[H:11])[H:7]>>[O:1]([C:2]1=[C:3]([H:8])[C@@:6]1(/[C:5](=[N:4]/[H:9])[H:10])[H:11])[H:7]"
O        2.30812513       0.15476976      -0.59340339
C        1.05877042      -0.11663211      -0.19056968
C        0.36141150      -1.23052196       0.01951731
N       -1.45018921      -0.44844396      -0.61322925
C       -1.22040802       0.59444108       0.14142385
C        0.12046763       0.55857324       0.65518510
H        2.47388157       1.09016453      -0.45136017
H        0.36334236      -2.23524683      -0.36692502
H       -2.41679510      -0.72700710      -0.71168147
H       -2.01806353       1.10221353       0.68146310
H        0.41945725       1.25768981       1.42957962
11
Frame=14 idx=004046 GeodesicLength=1.3490226488800865 rxn_smarts="[O:1]([c:2]1[c:3]([H:8])[n:4]([H:9])[c:5]([H:10])[c:6]1[H:11])[H:7]>>[O:1]([C:2]1=[C:3]([H:8])[C@@:6]1(/[C:5](=[N:4]/[H:9])[H:10])[H:11])[H:7]"
O        2.28659529       0.15758500      -0.63383235
C        1.05481066      -0.11773459      -0.18472366
C        0.32861891      -1.21212343       0.00577690
N       -1.41913008      -0.40997082      -0.64833545
C       -1.21292650       0.60710912       0.15139785
C        0.11901342       0.53884069       0.68456026
H        2.44408880       1.09777741      -0.51801411
H        0.38303476      -2.25318819      -0.26004464
H       -2.37781780      -0.70103110      -0.77770085
H       -2.02501060       1.08003386       0.70047505
H        0.41872314       1.21270206       1.48044101
11
Frame=15 idx=004046 GeodesicLength=1.4465605897489546 rxn_smarts="[O:1]([c:2]1[c:3]([H:8])[n:4]([H:9])[c:5]([H:10])[c:6]1[H:11])[H:7]>>[O:1]([C:2]1=[C:3]([H:8])[C@@:6]1(/[C:5](=[N:4]/[H:9])[H:10])[H:11])[H:7]"
O        2.26364401       0.16284697      -0.67485857
C        1.05270002      -0.12106868      -0.17885508
C        0.29851988      -1.19653180      -0.01433436
N       -1.38634270      -0.37028698      -0.68299513
C       -1.20324407       0.61783645       0.16164580
C        0.11808276       0.51267240       0.71458517
H        2.40593764       1.10837943      -0.58860369
H        0.39918995      -2.26015985      -0.13988056
H       -2.33656009      -0.67078328      -0.84487770
H       -2.02965833       1.05925409       0.71455661
H        0.41773093       1.15784125       1.53361751
11
Frame=16 idx=004046 GeodesicLength=1.544342954286792 rxn_smarts="[O:1]([c:2]1[c:3]([H:8])[n:4]([H:9])[c:5]([H:10])[c:6]1[H:11])[H:7]>>[O:1]([C:2]1=[C:3]([H:8])[C@@:6]1(/[C:5](=[N:4]/[H:9])[H:10])[H:11])[H:7]"
O        2.24001653       0.16958116      -0.71566412
C        1.05226202      -0.12657314      -0.17394134
C        0.27168525      -1.18384250      -0.03816595
N       -1.35144687      -0.33032294      -0.71671636
C       -1.19175412       0.62604114       0.17222904
C        0.11785906       0.48148062       0.74353040
H        2.36098635       1.12024665      -0.66103801
H        0.40870391      -2.25114460      -0.01003938
H       -2.29245291      -0.63790177      -0.91246620
H       -2.03253378       1.03761415       0.72555668
H        0.41667457       1.09482124       1.58671522
