5
Frame=0 idx=005842 GeodesicLength=0.0 rxn_smarts="[O:1]=[C:2]([C:3]#[N:4])[H:5]>>[C:3](#[N:4])[H:5].[O+:1]#[C-:2]"
O       -1.30732398      -1.16763961      -0.76498364
C       -1.07719584      -0.12046279      -0.42782434
C        0.98194405       0.27968142       0.43397680
N        2.07280654       0.17609236       0.80508820
H       -0.67023077       0.83232862      -0.04625703
5
Frame=1 idx=005842 GeodesicLength=0.07787171295180507 rxn_smarts="[O:1]=[C:2]([C:3]#[N:4])[H:5]>>[C:3](#[N:4])[H:5].[O+:1]#[C-:2]"
O       -1.33001814      -1.17318662      -0.75894815
C       -1.05949282      -0.12360727      -0.45445511
C        0.97535848       0.27922500       0.43243509
N        2.06672958       0.18779040       0.80391226
H       -0.65257709       0.82977849      -0.02294409
5
Frame=2 idx=005842 GeodesicLength=0.1556873392158875 rxn_smarts="[O:1]=[C:2]([C:3]#[N:4])[H:5]>>[C:3](#[N:4])[H:5].[O+:1]#[C-:2]"
O       -1.35314782      -1.17659807      -0.75411193
C       -1.04142405      -0.12834813      -0.47893737
C        0.96777503       0.27743523       0.43492082
N        2.06158644       0.20075393       0.80052468
H       -0.63478959       0.82675704      -0.00239619
5
Frame=3 idx=005842 GeodesicLength=0.2335028781453219 rxn_smarts="[O:1]=[C:2]([C:3]#[N:4])[H:5]>>[C:3](#[N:4])[H:5].[O+:1]#[C-:2]"
O       -1.37690672      -1.17821795      -0.75016659
C       -1.02313150      -0.13486506      -0.50135356
C        0.96111235       0.27610961       0.43614318
N        2.05645491       0.21384900       0.79825085
H       -0.61752904       0.82312439       0.01712612
5
Frame=4 idx=005842 GeodesicLength=0.3119736141007737 rxn_smarts="[O:1]=[C:2]([C:3]#[N:4])[H:5]>>[C:3](#[N:4])[H:5].[O+:1]#[C-:2]"
O       -1.40101669      -1.17863711      -0.74772098
C       -1.00515370      -0.14313532      -0.52117432
C        0.95471366       0.27455743       0.43791991
N        2.05176364       0.22737407       0.79594928
H       -0.60030691       0.81984093       0.03502611
5
Frame=5 idx=005842 GeodesicLength=0.3896070752060775 rxn_smarts="[O:1]=[C:2]([C:3]#[N:4])[H:5]>>[C:3](#[N:4])[H:5].[O+:1]#[C-:2]"
O       -1.42482819      -1.17743236      -0.74678872
C       -0.98735537      -0.15316498      -0.53778019
C        0.94809668       0.27204451       0.44034194
N        2.04673166       0.24164541       0.79312182
H       -0.58264478       0.81690742       0.05110515
5
Frame=6 idx=005842 GeodesicLength=0.4673317619721925 rxn_smarts="[O:1]=[C:2]([C:3]#[N:4])[H:5]>>[C:3](#[N:4])[H:5].[O+:1]#[C-:2]"
O       -1.44893431      -1.17526017      -0.74698179
C       -0.96977901      -0.16479499      -0.55244343
C        0.94204027       0.26937823       0.44230080
N        2.04179811       0.25623726       0.79075246
H       -0.56512506       0.81443968       0.06637196
5
Frame=7 idx=005842 GeodesicLength=0.546440362136004 rxn_smarts="[O:1]=[C:2]([C:3]#[N:4])[H:5]>>[C:3](#[N:4])[H:5].[O+:1]#[C-:2]"
O       -1.47349514      -1.17255496      -0.74812741
C       -0.95243780      -0.17803482      -0.56565271
C        0.93693125       0.26732758       0.44282572
N        2.03684279       0.27064595       0.78944311
H       -0.54784111       0.81261624       0.08151129
5
Frame=8 idx=005842 GeodesicLength=0.6232368300411548 rxn_smarts="[O:1]=[C:2]([C:3]#[N:4])[H:5]>>[C:3](#[N:4])[H:5].[O+:1]#[C-:2]"
O       -1.49768666      -1.16791445      -0.74917976
C       -0.93475357      -0.19286477      -0.57783252
C        0.93263698       0.26615792       0.44102635
N        2.03124507       0.28454045       0.78939702
H       -0.53144181       0.81008086       0.09658892
5
Frame=9 idx=005842 GeodesicLength=0.7028718294271437 rxn_smarts="[O:1]=[C:2]([C:3]#[N:4])[H:5]>>[C:3](#[N:4])[H:5].[O+:1]#[C-:2]"
O       -1.52337729      -1.16265597      -0.75097601
C       -0.91658506      -0.20947381      -0.58997798
C        0.92882494       0.26477360       0.43963472
N        2.02611955       0.29927894       0.78940268
H       -0.51498214       0.80807724       0.11191659
5
Frame=10 idx=005842 GeodesicLength=0.7794284055560579 rxn_smarts="[O:1]=[C:2]([C:3]#[N:4])[H:5]>>[C:3](#[N:4])[H:5].[O+:1]#[C-:2]"
O       -1.54809370      -1.15542952      -0.75413575
C       -0.89850937      -0.22820872      -0.59893524
C        0.92483336       0.26320812       0.43817927
N        2.02056995       0.31397026       0.78896600
H       -0.49880025       0.80645986       0.12592573
5
Frame=11 idx=005842 GeodesicLength=0.8577107956986904 rxn_smarts="[O:1]=[C:2]([C:3]#[N:4])[H:5]>>[C:3](#[N:4])[H:5].[O+:1]#[C-:2]"
O       -1.57382928      -1.14753448      -0.75874311
C       -0.88058453      -0.24922596      -0.60649201
C        0.92156101       0.26229093       0.43635917
N        2.01544113       0.32882988       0.78895395
H       -0.48258833       0.80563962       0.13992200
5
Frame=12 idx=005842 GeodesicLength=0.9363033121964511 rxn_smarts="[O:1]=[C:2]([C:3]#[N:4])[H:5]>>[C:3](#[N:4])[H:5].[O+:1]#[C-:2]"
O       -1.59967020      -1.13767190      -0.76309937
C       -0.86172941      -0.27236517      -0.61392465
C        0.91873818       0.26193103       0.43292238
N        2.00973073       0.34360042       0.78964227
H       -0.46706930       0.80450562       0.15445937
5
Frame=13 idx=005842 GeodesicLength=1.0133567010522349 rxn_smarts="[O:1]=[C:2]([C:3]#[N:4])[H:5]>>[C:3](#[N:4])[H:5].[O+:1]#[C-:2]"
O       -1.62503218      -1.12655400      -0.77029480
C       -0.84376423      -0.29841255      -0.61707699
C        0.91608651       0.26236708       0.42969405
N        2.00440776       0.35793803       0.78981495
H       -0.45169787       0.80466143       0.16786279
5
Frame=14 idx=005842 GeodesicLength=1.0915067728101644 rxn_smarts="[O:1]=[C:2]([C:3]#[N:4])[H:5]>>[C:3](#[N:4])[H:5].[O+:1]#[C-:2]"
O       -1.64997382      -1.11402382      -0.77860466
C       -0.82589008      -0.32709106      -0.61809718
C        0.91397289       0.26405761       0.42435508
N        1.99843568       0.37154134       0.79073251
H       -0.43654467       0.80551592       0.18161424
5
Frame=15 idx=005842 GeodesicLength=1.1694935375963555 rxn_smarts="[O:1]=[C:2]([C:3]#[N:4])[H:5]>>[C:3](#[N:4])[H:5].[O+:1]#[C-:2]"
O       -1.67362735      -1.10024066      -0.78824730
C       -0.80882104      -0.35829414      -0.61591836
C        0.91270628       0.26777257       0.41508548
N        1.99168126       0.38355270       0.79332266
H       -0.42193916       0.80720954       0.19575751
5
Frame=16 idx=005842 GeodesicLength=1.247581566760051 rxn_smarts="[O:1]=[C:2]([C:3]#[N:4])[H:5]>>[C:3](#[N:4])[H:5].[O+:1]#[C-:2]"
O       -1.69733054      -1.08409309      -0.80113810
C       -0.79216438      -0.39397904      -0.60884911
C        0.91230284       0.27343450       0.40369056
N        1.98484172       0.39505564       0.79640375
H       -0.40764964       0.80958198       0.20989291
