17
Frame=0 idx=009814 GeodesicLength=0.0 rxn_smarts="[C:1]1([H:8])([H:9])[C:2]([H:10])([H:11])[O:3][C:4]([H:12])([H:13])[C:5]([H:14])=[C:6]([H:15])[C:7]1([H:16])[H:17]>>[C:1]1([H:8])([H:9])[C:4]([H:12])([H:13])[C:5]([H:14])=[C:6]([H:15])[C:7]1([H:16])[H:17].[C:2](=[O:3])([H:10])[H:11]"
C       -1.42205335      -0.07589589       0.71375261
C       -0.22858011      -1.73648300      -1.26451527
O        0.08006166      -0.90213303      -2.07774000
C        1.49294663      -0.24417231       1.18156042
C        1.51269033       0.69940077       0.19414001
C        0.42382397       1.32712479      -0.39659635
C       -0.97452805       0.99920549      -0.14754324
H       -1.08915229      -0.14784072       1.73495984
H       -2.41564292      -0.47076000       0.53685979
H        0.52024697      -2.26052731      -0.64604859
H       -1.27562014      -2.05791070      -1.12054285
H        0.68844551      -0.37318157       1.87879261
H        2.39361027      -0.81273167       1.38375941
H        2.47095506       0.90589904      -0.27491812
H        0.60022720       2.12862369      -1.10320294
H       -1.56254312       1.11146942      -1.05903777
H       -1.21488768       1.90991302       0.46632044
17
Frame=1 idx=009814 GeodesicLength=0.16650208392433563 rxn_smarts="[C:1]1([H:8])([H:9])[C:2]([H:10])([H:11])[O:3][C:4]([H:12])([H:13])[C:5]([H:14])=[C:6]([H:15])[C:7]1([H:16])[H:17]>>[C:1]1([H:8])([H:9])[C:4]([H:12])([H:13])[C:5]([H:14])=[C:6]([H:15])[C:7]1([H:16])[H:17].[C:2](=[O:3])([H:10])[H:11]"
C       -1.37459499      -0.08819798       0.69950583
C       -0.25351506      -1.78543544      -1.22890699
O        0.16493544      -0.94377027      -1.99229189
C        1.47094762      -0.27084160       1.12055640
C        1.51126253       0.75317128       0.20578310
C        0.42559153       1.38484971      -0.37676649
C       -0.96997167       1.01682556      -0.15358629
H       -1.07297014      -0.11689112       1.73374032
H       -2.36954020      -0.48848899       0.53968951
H        0.42511689      -2.38118449      -0.59460003
H       -1.32160459      -2.06104280      -1.18610970
H        0.72309840      -0.36366130       1.88525773
H        2.36541568      -0.86566259       1.26955712
H        2.47876533       0.99990377      -0.22311614
H        0.59732256       2.20368103      -1.06449319
H       -1.53745940       1.08918773      -1.08213374
H       -1.26279992       1.91755750       0.44791444
17
Frame=2 idx=009814 GeodesicLength=0.3186797732190539 rxn_smarts="[C:1]1([H:8])([H:9])[C:2]([H:10])([H:11])[O:3][C:4]([H:12])([H:13])[C:5]([H:14])=[C:6]([H:15])[C:7]1([H:16])[H:17]>>[C:1]1([H:8])([H:9])[C:4]([H:12])([H:13])[C:5]([H:14])=[C:6]([H:15])[C:7]1([H:16])[H:17].[C:2](=[O:3])([H:10])[H:11]"
C       -1.32997805      -0.09851010       0.68754523
C       -0.27783787      -1.82458510      -1.19473481
O        0.23700521      -0.98587299      -1.90996216
C        1.44853745      -0.29089747       1.06541999
C        1.50796489       0.79603019       0.21447599
C        0.42650017       1.43362240      -0.35955274
C       -0.96609091       1.03151191      -0.15990404
H       -1.05717610      -0.08963784       1.73137534
H       -2.32526348      -0.50540006       0.54340196
H        0.33366225      -2.47796749      -0.54904488
H       -1.35466739      -2.05850859      -1.24725910
H        0.75871316      -0.36361015       1.88668005
H        2.33890690      -0.90222090       1.16745285
H        2.48352454       1.07719861      -0.17258672
H        0.59477973       2.26877690      -1.02828694
H       -1.51254661       1.06837880      -1.10322409
H       -1.30603389       1.92169189       0.42820409
17
Frame=3 idx=009814 GeodesicLength=0.4627469917797813 rxn_smarts="[C:1]1([H:8])([H:9])[C:2]([H:10])([H:11])[O:3][C:4]([H:12])([H:13])[C:5]([H:14])=[C:6]([H:15])[C:7]1([H:16])[H:17]>>[C:1]1([H:8])([H:9])[C:4]([H:12])([H:13])[C:5]([H:14])=[C:6]([H:15])[C:7]1([H:16])[H:17].[C:2](=[O:3])([H:10])[H:11]"
C       -1.28782088      -0.10730441       0.67709718
C       -0.30186313      -1.85634779      -1.16175287
O        0.29762767      -1.02799330      -1.83148078
C        1.42630698      -0.30644070       1.01521474
C        1.50367793       0.83133426       0.22087437
C        0.42689254       1.47546284      -0.34468291
C       -0.96272017       1.04392611      -0.16656086
H       -1.04187709      -0.06524410       1.72804219
H       -2.28291430      -0.52112405       0.54769718
H        0.24645385      -2.55681580      -0.50871047
H       -1.37738350      -2.05341786      -1.30361513
H        0.79464276      -0.36938985       1.88455716
H        2.31406084      -0.92780851       1.07512795
H        2.48605696       1.14238645      -0.12292965
H        0.59238357       2.32662381      -0.99366498
H       -1.48806706       1.04909149      -1.12271396
H       -1.34545699       1.92306139       0.40750082
17
Frame=4 idx=009814 GeodesicLength=0.6020155025057798 rxn_smarts="[C:1]1([H:8])([H:9])[C:2]([H:10])([H:11])[O:3][C:4]([H:12])([H:13])[C:5]([H:14])=[C:6]([H:15])[C:7]1([H:16])[H:17]>>[C:1]1([H:8])([H:9])[C:4]([H:12])([H:13])[C:5]([H:14])=[C:6]([H:15])[C:7]1([H:16])[H:17].[C:2](=[O:3])([H:10])[H:11]"
C       -1.24783259      -0.11491318       0.66769916
C       -0.32586405      -1.88249746      -1.12984612
O        0.34861103      -1.06997144      -1.75696561
C        1.40456439      -0.31886478       0.96897544
C        1.49892626       0.86136656       0.22563854
C        0.42699433       1.51197841      -0.33173972
C       -0.95974485       1.05457139      -0.17355073
H       -1.02709252      -0.04314257       1.72388159
H       -2.24254680      -0.53544248       0.55251311
H        0.16308840      -2.62208135      -0.47273529
H       -1.39189774      -2.04751857      -1.35546207
H        0.83069911      -0.37920375       1.87951132
H        2.29116635      -0.94525948       0.99105276
H        2.48686664       1.19836652      -0.07408866
H        0.59000210       2.37913966      -0.95990544
H       -1.46403973       1.03123214      -1.14094747
H       -1.38190031       1.92224037       0.38596918
17
Frame=5 idx=009814 GeodesicLength=0.7384354364427124 rxn_smarts="[C:1]1([H:8])([H:9])[C:2]([H:10])([H:11])[O:3][C:4]([H:12])([H:13])[C:5]([H:14])=[C:6]([H:15])[C:7]1([H:16])[H:17]>>[C:1]1([H:8])([H:9])[C:4]([H:12])([H:13])[C:5]([H:14])=[C:6]([H:15])[C:7]1([H:16])[H:17].[C:2](=[O:3])([H:10])[H:11]"
C       -1.20955781      -0.12152951       0.65903622
C       -0.35042311      -1.90448981      -1.09882496
O        0.39096570      -1.11226924      -1.68659195
C        1.38345003      -0.32920706       0.92549436
C        1.49395383       0.88766266       0.22918552
C        0.42706675       1.54409458      -0.32082656
C       -0.95687310       1.06362620      -0.18110968
H       -1.01235489      -0.02277113       1.71897391
H       -2.20387895      -0.54808689       0.55801350
H        0.08267232      -2.67656391      -0.44007001
H       -1.40008760      -2.04203589      -1.40287664
H        0.86709636      -0.39228052       1.87140925
H        2.27018646      -0.95657592       0.91325575
H        2.48619067       1.24880396      -0.02368746
H        0.58757102       2.42777689      -0.92628125
H       -1.44027159       1.01432913      -1.15842807
H       -1.41570609       1.91951648       0.36332809
17
Frame=6 idx=009814 GeodesicLength=0.8729353573379495 rxn_smarts="[C:1]1([H:8])([H:9])[C:2]([H:10])([H:11])[O:3][C:4]([H:12])([H:13])[C:5]([H:14])=[C:6]([H:15])[C:7]1([H:16])[H:17]>>[C:1]1([H:8])([H:9])[C:4]([H:12])([H:13])[C:5]([H:14])=[C:6]([H:15])[C:7]1([H:16])[H:17].[C:2](=[O:3])([H:10])[H:11]"
C       -1.17288019      -0.12731230       0.65084663
C       -0.37536628      -1.92297651      -1.06865085
O        0.42648753      -1.15444950      -1.61972716
C        1.36312511      -0.33785799       0.88443871
C        1.48892899       0.91120818       0.23196947
C        0.42707591       1.57294724      -0.31116331
C       -0.95413580       1.07150406      -0.18904791
H       -0.99779973      -0.00385795       1.71335922
H       -2.16694761      -0.55910283       0.56396373
H        0.00480234      -2.72244967      -0.41003793
H       -1.40297248      -2.03762434      -1.44654154
H        0.90366215      -0.40780110       1.86059007
H        2.25136812      -0.96275630       0.84113192
H        2.48392173       1.29355983       0.02658742
H        0.58490035       2.47332660      -0.89233590
H       -1.41665593       0.99845086      -1.17524208
H       -1.44751420       1.91519172       0.33985950
17
Frame=7 idx=009814 GeodesicLength=1.006213344772179 rxn_smarts="[C:1]1([H:8])([H:9])[C:2]([H:10])([H:11])[O:3][C:4]([H:12])([H:13])[C:5]([H:14])=[C:6]([H:15])[C:7]1([H:16])[H:17]>>[C:1]1([H:8])([H:9])[C:4]([H:12])([H:13])[C:5]([H:14])=[C:6]([H:15])[C:7]1([H:16])[H:17].[C:2](=[O:3])([H:10])[H:11]"
C       -1.13757763      -0.13235126       0.64292449
C       -0.40082338      -1.93861785      -1.03918856
O        0.45608569      -1.19661548      -1.55605247
C        1.34364163      -0.34525143       0.84516426
C        1.48393719       0.93266421       0.23418820
C        0.42709162       1.59918379      -0.30254613
C       -0.95142186       1.07840023      -0.19743565
H       -0.98324785       0.01389354       1.70703769
H       -2.13160496      -0.56841553       0.57032911
H       -0.07100565      -2.76113671      -0.38191972
H       -1.40151209      -2.03491463      -1.48656172
H        0.94047188      -0.42539904       1.84693759
H        2.23461643      -0.96479663       0.77344769
H        2.48007738       1.33396583       0.07741553
H        0.58188726       2.51651662      -0.85753486
H       -1.39299309       0.98343814      -1.19164667
H       -1.47762257       1.90943620       0.31544123
17
Frame=8 idx=009814 GeodesicLength=1.1387315518779868 rxn_smarts="[C:1]1([H:8])([H:9])[C:2]([H:10])([H:11])[O:3][C:4]([H:12])([H:13])[C:5]([H:14])=[C:6]([H:15])[C:7]1([H:16])[H:17]>>[C:1]1([H:8])([H:9])[C:4]([H:12])([H:13])[C:5]([H:14])=[C:6]([H:15])[C:7]1([H:16])[H:17].[C:2](=[O:3])([H:10])[H:11]"
C       -1.10349262      -0.13672327       0.63511750
C       -0.42681320      -1.95187161      -1.01035423
O        0.48058578      -1.23877462      -1.49519767
C        1.32501669      -0.35167178       0.80720648
C        1.47903978       0.95250673       0.23597444
C        0.42715430       1.62337363      -0.29473102
C       -0.94865476       1.08450899      -0.20629910
H       -0.96859607       0.03069350       1.70002941
H       -2.09773754      -0.57602584       0.57704158
H       -0.14511183      -2.79363688      -0.35512764
H       -1.39640690      -2.03445093      -1.52307690
H        0.97755860      -0.44473734       1.83039227
H        2.21976433      -0.96344386       0.70921148
H        2.47462010       1.37074089       0.12904625
H        0.57843168       2.55789077      -0.82142293
H       -1.36909209       0.96921977      -1.20782301
H       -1.50626626       1.90240184       0.29001310
17
Frame=9 idx=009814 GeodesicLength=1.2707549105260503 rxn_smarts="[C:1]1([H:8])([H:9])[C:2]([H:10])([H:11])[O:3][C:4]([H:12])([H:13])[C:5]([H:14])=[C:6]([H:15])[C:7]1([H:16])[H:17]>>[C:1]1([H:8])([H:9])[C:4]([H:12])([H:13])[C:5]([H:14])=[C:6]([H:15])[C:7]1([H:16])[H:17].[C:2](=[O:3])([H:10])[H:11]"
C       -1.07051776      -0.14050105       0.62732268
C       -0.45328477      -1.96304965      -0.98210476
O        0.50073154      -1.28094823      -1.43680922
C        1.30722690      -0.35728864       0.77022381
C        1.47430678       0.97107519       0.23738547
C        0.42730168       1.64596765      -0.28747138
C       -0.94577722       1.08996499      -0.21565311
H       -0.95380484       0.04672506       1.69237897
H       -2.06525779      -0.58198816       0.58403962
H       -0.21776449      -2.82063999      -0.32921452
H       -1.38818031      -2.03656637      -1.55618029
H        1.01495037      -0.46543869       1.81094007
H        2.20653499      -0.95927778       0.64756595
H        2.46750150       1.40424427       0.18150524
H        0.57445172       2.59783985      -0.78352517
H       -1.34476229       0.95570155      -1.22391809
H       -1.53365603       1.89417999       0.26351472
17
Frame=10 idx=009814 GeodesicLength=1.4024775101246647 rxn_smarts="[C:1]1([H:8])([H:9])[C:2]([H:10])([H:11])[O:3][C:4]([H:12])([H:13])[C:5]([H:14])=[C:6]([H:15])[C:7]1([H:16])[H:17]>>[C:1]1([H:8])([H:9])[C:4]([H:12])([H:13])[C:5]([H:14])=[C:6]([H:15])[C:7]1([H:16])[H:17].[C:2](=[O:3])([H:10])[H:11]"
C       -1.03856214      -0.14373563       0.61944346
C       -0.48011626      -1.97231614      -0.95442535
O        0.51717339      -1.32301678      -1.38042986
C        1.29022466      -0.36222721       0.73398503
C        1.46973057       0.98863041       0.23858066
C        0.42750608       1.66734570      -0.28045812
C       -0.94275677       1.09491967      -0.22546776
H       -0.93887008       0.06208688       1.68409801
H       -2.03406357      -0.58635129       0.59119705
H       -0.28912584      -2.84264679      -0.30382213
H       -1.37717614      -2.04150669      -1.58595097
H        1.05259731      -0.48725916       1.78857821
H        2.19467736      -0.95271253       0.58783245
H        2.45870144       1.43454734       0.23449614
H        0.56982238       2.63648837      -0.74359142
H       -1.31982305       0.94290334      -1.23999498
H       -1.55993935       1.88485051       0.23592957
17
Frame=11 idx=009814 GeodesicLength=1.5340134034366437 rxn_smarts="[C:1]1([H:8])([H:9])[C:2]([H:10])([H:11])[O:3][C:4]([H:12])([H:13])[C:5]([H:14])=[C:6]([H:15])[C:7]1([H:16])[H:17]>>[C:1]1([H:8])([H:9])[C:4]([H:12])([H:13])[C:5]([H:14])=[C:6]([H:15])[C:7]1([H:16])[H:17].[C:2](=[O:3])([H:10])[H:11]"
C       -1.00756404      -0.14648166       0.61142385
C       -0.50718042      -1.97979204      -0.92733440
O        0.53047141      -1.36492325      -1.32565353
C        1.27394201      -0.36656871       0.69831664
C        1.46532274       1.00535533       0.23962847
C        0.42775292       1.68779633      -0.27344094
C       -0.93956512       1.09947324      -0.23572589
H       -0.92381250       0.07687540       1.67522820
H       -2.00407525      -0.58919847       0.59841877
H       -0.35932654      -2.86000377      -0.27870461
H       -1.36367391      -2.04942245      -1.61243717
H        1.09048042      -0.50989416       1.76333515
H        2.18387776      -0.94409702       0.52940634
H        2.44824666       1.46169131       0.28776320
H        0.56444266       2.67392169      -0.70133545
H       -1.29411192       0.93080294      -1.25610778
H       -1.58522688       1.87446528       0.20721914
17
Frame=12 idx=009814 GeodesicLength=1.6654264823717988 rxn_smarts="[C:1]1([H:8])([H:9])[C:2]([H:10])([H:11])[O:3][C:4]([H:12])([H:13])[C:5]([H:14])=[C:6]([H:15])[C:7]1([H:16])[H:17]>>[C:1]1([H:8])([H:9])[C:4]([H:12])([H:13])[C:5]([H:14])=[C:6]([H:15])[C:7]1([H:16])[H:17].[C:2](=[O:3])([H:10])[H:11]"
C       -0.97747923      -0.14880108       0.60324565
C       -0.53431376      -1.98552003      -0.90089553
O        0.54114931      -1.40658704      -1.27202540
C        1.25829885      -0.37037052       0.66314322
C        1.46106586       1.02138104       0.24062609
C        0.42799622       1.70753390      -0.26616832
C       -0.93619512       1.10369721      -0.24638570
H       -0.90868482       0.09115090       1.66583003
H       -1.97521628      -0.59064268       0.60561669
H       -0.42849389      -2.87296695      -0.25375348
H       -1.34785932      -2.06027601      -1.63570745
H        1.12856811      -0.53304786       1.73529820
H        2.17382998      -0.93369641       0.47183048
H        2.43623056       1.48564008       0.34088349
H        0.55820598       2.71006558      -0.65664595
H       -1.26750368       0.91938662      -1.27225900
H       -1.60959876       1.86305324       0.17736700
17
Frame=13 idx=009814 GeodesicLength=1.7967393000434269 rxn_smarts="[C:1]1([H:8])([H:9])[C:2]([H:10])([H:11])[O:3][C:4]([H:12])([H:13])[C:5]([H:14])=[C:6]([H:15])[C:7]1([H:16])[H:17]>>[C:1]1([H:8])([H:9])[C:4]([H:12])([H:13])[C:5]([H:14])=[C:6]([H:15])[C:7]1([H:16])[H:17].[C:2](=[O:3])([H:10])[H:11]"
C       -0.94828881      -0.15076953       0.59494418
C       -0.56130969      -1.98946928      -0.87521231
O        0.54969882      -1.44789395      -1.21906996
C        1.24319090      -0.37367246       0.62848960
C        1.45691914       1.03678168       0.24167583
C        0.42815718       1.72670411      -0.25836053
C       -0.93266466       1.10762811      -0.25735668
H       -0.89358734       0.10493691       1.65600427
H       -1.94742182      -0.59083771       0.61272817
H       -0.49670499      -2.88172141      -0.22904073
H       -1.32983217      -2.07378391      -1.65583601
H        1.16681950      -0.55641146       1.70463069
H        2.16419661      -0.92173491       0.41477522
H        2.42280469       1.50633602       0.39333560
H        0.55105974       2.74465689      -0.60973885
H       -1.23991379       0.90863892      -1.28837850
H       -1.63312331       1.85061198       0.14641000
17
Frame=14 idx=009814 GeodesicLength=1.927986021836123 rxn_smarts="[C:1]1([H:8])([H:9])[C:2]([H:10])([H:11])[O:3][C:4]([H:12])([H:13])[C:5]([H:14])=[C:6]([H:15])[C:7]1([H:16])[H:17]>>[C:1]1([H:8])([H:9])[C:4]([H:12])([H:13])[C:5]([H:14])=[C:6]([H:15])[C:7]1([H:16])[H:17].[C:2](=[O:3])([H:10])[H:11]"
C       -0.91998286      -0.15244838       0.58654497
C       -0.58798147      -1.99164376      -0.85040304
O        0.55651388      -1.48875990      -1.16630436
C        1.22851482      -0.37652534       0.59440113
C        1.45285258       1.05159366       0.24278388
C        0.42817613       1.74539383      -0.24986585
C       -0.92898894       1.11130537      -0.26859216
H       -0.87861393       0.11826191       1.64582850
H       -1.92064216      -0.58993185       0.61966685
H       -0.56407838      -2.88640584      -0.20463302
H       -1.30963434      -2.08984840      -1.67291361
H        1.20522059      -0.57963500       1.67150683
H        2.15463588      -0.90844288       0.35798258
H        2.40822726       1.52373423       0.44456039
H        0.54288955       2.77761955      -0.56050164
H       -1.21130950       0.89855969      -1.30441722
H       -1.65579910       1.83717313       0.11435579
17
Frame=15 idx=009814 GeodesicLength=2.0591730439195115 rxn_smarts="[C:1]1([H:8])([H:9])[C:2]([H:10])([H:11])[O:3][C:4]([H:12])([H:13])[C:5]([H:14])=[C:6]([H:15])[C:7]1([H:16])[H:17]>>[C:1]1([H:8])([H:9])[C:4]([H:12])([H:13])[C:5]([H:14])=[C:6]([H:15])[C:7]1([H:16])[H:17].[C:2](=[O:3])([H:10])[H:11]"
C       -0.89257379      -0.15390867       0.57812471
C       -0.61409874      -1.99198432      -0.82662339
O        0.56197018      -1.52907989      -1.11320609
C        1.21414801      -0.37897967       0.56101878
C        1.44882547       1.06579802       0.24392928
C        0.42797043       1.76361708      -0.24053354
C       -0.92520890       1.11473188      -0.27999925
H       -0.86390284       0.13113861       1.63541594
H       -1.89484085      -0.58810737       0.62637815
H       -0.63070479      -2.88711394      -0.18078602
H       -1.28721413      -2.10813455      -1.68704825
H        1.24376043      -0.60233593       1.63618483
H        2.14476986      -0.89405332       0.30131231
H        2.39281319       1.53781437       0.49390186
H        0.53363052       2.80871798      -0.50908743
H       -1.18172208       0.88913384      -1.32025694
H       -1.67762197       1.82274587       0.08127504
17
Frame=16 idx=009814 GeodesicLength=2.1902985162417075 rxn_smarts="[C:1]1([H:8])([H:9])[C:2]([H:10])([H:11])[O:3][C:4]([H:12])([H:13])[C:5]([H:14])=[C:6]([H:15])[C:7]1([H:16])[H:17]>>[C:1]1([H:8])([H:9])[C:4]([H:12])([H:13])[C:5]([H:14])=[C:6]([H:15])[C:7]1([H:16])[H:17].[C:2](=[O:3])([H:10])[H:11]"
C       -0.86608471      -0.15521987       0.56979226
C       -0.63941513      -1.99042741      -0.80405763
O        0.56638550      -1.56875412      -1.05922582
C        1.19996653      -0.38110175       0.52854562
C        1.44479985       1.07934534       0.24504310
C        0.42745525       1.78133297      -0.23027747
C       -0.92138295       1.11789625      -0.29147074
H       -0.84960329       0.14358055       1.62490050
H       -1.86999052      -0.58556687       0.63283023
H       -0.69667861      -2.88393004      -0.15787765
H       -1.26245226      -2.12822653      -1.69837689
H        1.28245425      -0.62411913       1.59897802
H        2.13420437      -0.87883304       0.24470650
H        2.37692822       1.54862736       0.54070193
H        0.52324507       2.83770119      -0.45574479
H       -1.15126413       0.88034180      -1.33574936
H       -1.69856746       1.80735327       0.04728218
