17
Frame=0 idx=009032 GeodesicLength=0.0 rxn_smarts="[C:1]([C@@:2]1([H:11])[C:3]([H:12])([H:13])[C:4]([H:14])=[C:5]([H:15])[C:6]([H:16])([H:17])[O:7]1)([H:8])([H:9])[H:10]>>[C:1]([C@@:2]1([H:11])[C:3]([H:12])([H:13])[C:4]([H:14])([H:15])[C:5][C:6]([H:16])([H:17])[O:7]1)([H:8])([H:9])[H:10]"
C       -2.18742064       0.19117186       0.02411789
C       -0.70197311       0.21597722       0.30297003
C       -0.04294670      -1.15023847       0.15147133
C        1.46407612      -0.99954864       0.11229260
C        2.14762608       0.21440825       0.01609733
C        1.26257261       1.37152881      -0.29158278
O       -0.10471733       1.12589998      -0.59750740
H       -2.69364141      -0.51156102       0.68897132
H       -2.36899622      -0.11396838      -1.00839817
H       -2.61955527       1.18151778       0.16842280
H       -0.52863984       0.57113017       1.33235233
H       -0.40180799      -1.64267970      -0.75708158
H       -0.30780471      -1.80165244       0.98873387
H        2.04373700      -1.88920948       0.36172943
H        2.03675789      -0.72895512      -0.95993438
H        1.34419324       2.02014207       0.59705951
H        1.65854024       1.94603704      -1.12971414
17
Frame=1 idx=009032 GeodesicLength=0.04254033835239415 rxn_smarts="[C:1]([C@@:2]1([H:11])[C:3]([H:12])([H:13])[C:4]([H:14])=[C:5]([H:15])[C:6]([H:16])([H:17])[O:7]1)([H:8])([H:9])[H:10]>>[C:1]([C@@:2]1([H:11])[C:3]([H:12])([H:13])[C:4]([H:14])([H:15])[C:5][C:6]([H:16])([H:17])[O:7]1)([H:8])([H:9])[H:10]"
C       -2.18896877       0.19218279       0.02898072
C       -0.70261674       0.21457815       0.30349934
C       -0.04438659      -1.15090971       0.14291704
C        1.46226447      -1.00102548       0.10868437
C        2.14260428       0.21379160       0.00979564
C        1.26013700       1.37204650      -0.29586656
O       -0.10847906       1.12934631      -0.59464563
H       -2.69356927      -0.51309722       0.69234123
H       -2.37398365      -0.10828301      -1.00427679
H       -2.61988373       1.18219686       0.17917465
H       -0.52658503       0.56480649       1.33414357
H       -0.40124025      -1.63428355      -0.77135372
H       -0.31509936      -1.80906163       0.97302661
H        2.04359861      -1.87710783       0.39887157
H        2.06466586      -0.74208312      -0.96253383
H        1.34758025       2.02072600       0.59264117
H        1.65396200       1.94617682      -1.13539937
17
Frame=2 idx=009032 GeodesicLength=0.08509450937407388 rxn_smarts="[C:1]([C@@:2]1([H:11])[C:3]([H:12])([H:13])[C:4]([H:14])=[C:5]([H:15])[C:6]([H:16])([H:17])[O:7]1)([H:8])([H:9])[H:10]>>[C:1]([C@@:2]1([H:11])[C:3]([H:12])([H:13])[C:4]([H:14])([H:15])[C:5][C:6]([H:16])([H:17])[O:7]1)([H:8])([H:9])[H:10]"
C       -2.19049486       0.19313259       0.03397275
C       -0.70323469       0.21311948       0.30403485
C       -0.04583396      -1.15156928       0.13414217
C        1.46049229      -1.00267748       0.10496297
C        2.13755315       0.21302680       0.00307246
C        1.25768434       1.37249159      -0.30027991
O       -0.11228066       1.13282689      -0.59167918
H       -2.69342500      -0.51476836       0.69578250
H       -2.37902396      -0.10254370      -1.00001283
H       -2.62017012       1.18276538       0.19019428
H       -0.52439119       0.55829719       1.33593160
H       -0.40064895      -1.62563651      -0.78585320
H       -0.32242388      -1.81652335       0.95688548
H        2.04239516      -1.86380155       0.43619092
H        2.09339964      -0.75551613      -0.96419144
H        1.35115488       2.02113323       0.58811273
H        1.64924780       1.94624321      -1.14126614
17
Frame=3 idx=009032 GeodesicLength=0.12768056272063555 rxn_smarts="[C:1]([C@@:2]1([H:11])[C:3]([H:12])([H:13])[C:4]([H:14])=[C:5]([H:15])[C:6]([H:16])([H:17])[O:7]1)([H:8])([H:9])[H:10]>>[C:1]([C@@:2]1([H:11])[C:3]([H:12])([H:13])[C:4]([H:14])([H:15])[C:5][C:6]([H:16])([H:17])[O:7]1)([H:8])([H:9])[H:10]"
C       -2.19199401       0.19401521       0.03909141
C       -0.70382475       0.21160153       0.30457932
C       -0.04728587      -1.15221233       0.12516032
C        1.45876467      -1.00450619       0.10115724
C        2.13247335       0.21210609      -0.00409702
C        1.25521657       1.37286267      -0.30482229
O       -0.11611705       1.13634068      -0.58860136
H       -2.69320564      -0.51657695       0.69929299
H       -2.38410648      -0.09676247      -0.99560549
H       -2.62041144       1.18321483       0.20147027
H       -0.52205941       0.55160773       1.33771399
H       -0.40002810      -1.61673885      -0.80055699
H       -0.32977421      -1.82402055       0.94032496
H        2.04008064      -1.84927421       0.47356195
H        2.12294958      -0.76924986      -0.96483574
H        1.35492939       2.02135093       0.58347371
H        1.64439277       1.94624175      -1.14730727
17
Frame=4 idx=009032 GeodesicLength=0.17032277638633808 rxn_smarts="[C:1]([C@@:2]1([H:11])[C:3]([H:12])([H:13])[C:4]([H:14])=[C:5]([H:15])[C:6]([H:16])([H:17])[O:7]1)([H:8])([H:9])[H:10]>>[C:1]([C@@:2]1([H:11])[C:3]([H:12])([H:13])[C:4]([H:14])([H:15])[C:5][C:6]([H:16])([H:17])[O:7]1)([H:8])([H:9])[H:10]"
C       -2.19346165       0.19482554       0.04433344
C       -0.70438494       0.21002507       0.30513525
C       -0.04873907      -1.15283455       0.11598596
C        1.45708578      -1.00651138       0.09729890
C        2.12736522       0.21102273      -0.01173808
C        1.25273560       1.37315901      -0.30949231
O       -0.11998279       1.13988638      -0.58540621
H       -2.69290831      -0.51852469       0.70287031
H       -2.38922083      -0.09095095      -0.99105515
H       -2.62060499       1.18353813       0.21299055
H       -0.51959059       0.54474372       1.33948855
H       -0.39937143      -1.60759223      -0.81544143
H       -0.33714790      -1.83153699       0.92336199
H        2.03661956      -1.83351479       0.51085451
H        2.15329909      -0.78328162      -0.96439622
H        1.35891489       2.02136637       0.57872489
H        1.63939235       1.94618025      -1.15351496
17
Frame=5 idx=009032 GeodesicLength=0.21296834952419205 rxn_smarts="[C:1]([C@@:2]1([H:11])[C:3]([H:12])([H:13])[C:4]([H:14])=[C:5]([H:15])[C:6]([H:16])([H:17])[O:7]1)([H:8])([H:9])[H:10]>>[C:1]([C@@:2]1([H:11])[C:3]([H:12])([H:13])[C:4]([H:14])([H:15])[C:5][C:6]([H:16])([H:17])[O:7]1)([H:8])([H:9])[H:10]"
C       -2.19488867       0.19555448       0.04969878
C       -0.70490842       0.20838747       0.30570834
C       -0.05018495      -1.15343493       0.10663481
C        1.45547274      -1.00870698       0.09344269
C        2.12223362       0.20976185      -0.01988582
C        1.25024576       1.37337440      -0.31429141
O       -0.12386856       1.14345692      -0.58208737
H       -2.69252544      -0.52061824       0.70651429
H       -2.39435314      -0.08512360      -0.98635945
H       -2.62074332       1.18372419       0.22474856
H       -0.51697963       0.53770937       1.34125769
H       -0.39865952      -1.59819695      -0.83048633
H       -0.34454170      -1.83906329       0.90600328
H        2.03189292      -1.81642026       0.54786910
H        2.18443995      -0.79763127      -0.96274533
H        1.36312664       2.02116562       0.57387021
H        1.63424172       1.94606124      -1.15989203
17
Frame=6 idx=009032 GeodesicLength=0.25561875688193775 rxn_smarts="[C:1]([C@@:2]1([H:11])[C:3]([H:12])([H:13])[C:4]([H:14])=[C:5]([H:15])[C:6]([H:16])([H:17])[O:7]1)([H:8])([H:9])[H:10]>>[C:1]([C@@:2]1([H:11])[C:3]([H:12])([H:13])[C:4]([H:14])([H:15])[C:5][C:6]([H:16])([H:17])[O:7]1)([H:8])([H:9])[H:10]"
C       -2.19627580       0.19620098       0.05518108
C       -0.70539859       0.20669325       0.30629969
C       -0.05162707      -1.15400765       0.09712598
C        1.45391772      -1.01108209       0.08961101
C        2.11707561       0.20831593      -0.02857427
C        1.24774601       1.37351000      -0.31921987
O       -0.12777211       1.14705443      -0.57863950
H       -2.69206060      -0.52285353       0.71022031
H       -2.39949648      -0.07928975      -0.98152168
H       -2.62082882       1.18377042       0.23672661
H       -0.51423482       0.53051691       1.34301715
H       -0.39789485      -1.58855970      -0.84565914
H       -0.35194917      -1.84657374       0.88827964
H        2.02593462      -1.79805242       0.58445915
H        2.21635767      -0.81227725      -0.95978997
H        1.36757422       2.02073289       0.56891161
H        1.62893247       1.94590131      -1.16642780
17
Frame=7 idx=009032 GeodesicLength=0.29829042880353446 rxn_smarts="[C:1]([C@@:2]1([H:11])[C:3]([H:12])([H:13])[C:4]([H:14])=[C:5]([H:15])[C:6]([H:16])([H:17])[O:7]1)([H:8])([H:9])[H:10]>>[C:1]([C@@:2]1([H:11])[C:3]([H:12])([H:13])[C:4]([H:14])([H:15])[C:5][C:6]([H:16])([H:17])[O:7]1)([H:8])([H:9])[H:10]"
C       -2.19762362       0.19676455       0.06077248
C       -0.70585849       0.20494745       0.30691126
C       -0.05306846      -1.15454743       0.08748313
C        1.45241339      -1.01362728       0.08583894
C        2.11188719       0.20667711      -0.03783384
C        1.24523467       1.37356676      -0.32427665
O       -0.13169029       1.15067909      -0.57505872
H       -2.69151828      -0.52522483       0.71398285
H       -2.40464317      -0.07345995      -0.97654736
H       -2.62086439       1.18367664       0.24890366
H       -0.51136542       0.52318308       1.34476508
H       -0.39707716      -1.57869116      -0.86092361
H       -0.35936679      -1.85404692       0.87022989
H        2.01877856      -1.77847264       0.62044511
H        2.24903895      -0.82719328      -0.95543058
H        1.37226747       2.02005441       0.56385183
H        1.62345584       1.94571439      -1.17311347
17
Frame=8 idx=009032 GeodesicLength=0.34097362021875555 rxn_smarts="[C:1]([C@@:2]1([H:11])[C:3]([H:12])([H:13])[C:4]([H:14])=[C:5]([H:15])[C:6]([H:16])([H:17])[O:7]1)([H:8])([H:9])[H:10]>>[C:1]([C@@:2]1([H:11])[C:3]([H:12])([H:13])[C:4]([H:14])([H:15])[C:5][C:6]([H:16])([H:17])[O:7]1)([H:8])([H:9])[H:10]"
C       -2.19893388       0.19724639       0.06646641
C       -0.70629177       0.20315438       0.30754419
C       -0.05451455      -1.15505195       0.07772582
C        1.45095062      -1.01633696       0.08214852
C        2.10666201       0.20482915      -0.04770326
C        1.24271004       1.37354313      -0.32946407
O       -0.13562053       1.15433198      -0.57134152
H       -2.69090333      -0.52772644       0.71779738
H       -2.40978870      -0.06764012      -0.97144105
H       -2.62085157       1.18344391       0.26126400
H       -0.50837864       0.51572166       1.34649948
H       -0.39621192      -1.56860255      -0.87624864
H       -0.36678961      -1.86146298       0.85188733
H        2.01046873      -1.75773959       0.65566821
H        2.28247388      -0.84234111      -0.94955380
H        1.37721743       2.01911458       0.55869532
H        1.61780181       1.94551652      -1.17994433
17
Frame=9 idx=009032 GeodesicLength=0.38357050580661356 rxn_smarts="[C:1]([C@@:2]1([H:11])[C:3]([H:12])([H:13])[C:4]([H:14])=[C:5]([H:15])[C:6]([H:16])([H:17])[O:7]1)([H:8])([H:9])[H:10]>>[C:1]([C@@:2]1([H:11])[C:3]([H:12])([H:13])[C:4]([H:14])([H:15])[C:5][C:6]([H:16])([H:17])[O:7]1)([H:8])([H:9])[H:10]"
C       -2.20021819       0.19765634       0.07226312
C       -0.70670920       0.20131903       0.30818428
C       -0.05598642      -1.15551191       0.06783223
C        1.44949548      -1.01917590       0.07842862
C        2.10136591       0.20279296      -0.05822320
C        1.24016520       1.37344580      -0.33479349
O       -0.13957009       1.15802680      -0.56748273
H       -2.69022570      -0.53034955       0.72165984
H       -2.41495033      -0.06180895      -0.96619951
H       -2.62079582       1.18307816       0.27381635
H       -0.50528039       0.50812624       1.34819945
H       -0.39535535      -1.55830022      -0.89162888
H       -0.37418655      -1.86879223       0.83326754
H        2.00120742      -1.73607141       0.69023435
H        2.31664493      -0.85764240      -0.94207350
H        1.38243272       2.01787587       0.55341849
H        1.61196637       1.94533138      -1.18690296
17
Frame=10 idx=009032 GeodesicLength=0.42618766843164285 rxn_smarts="[C:1]([C@@:2]1([H:11])[C:3]([H:12])([H:13])[C:4]([H:14])=[C:5]([H:15])[C:6]([H:16])([H:17])[O:7]1)([H:8])([H:9])[H:10]>>[C:1]([C@@:2]1([H:11])[C:3]([H:12])([H:13])[C:4]([H:14])([H:15])[C:5][C:6]([H:16])([H:17])[O:7]1)([H:8])([H:9])[H:10]"
C       -2.20146473       0.19798697       0.07815503
C       -0.70710218       0.19943894       0.30884350
C       -0.05747043      -1.15593688       0.05784565
C        1.44806742      -1.02217486       0.07480736
C        2.09601395       0.20051768      -0.06944146
C        1.23760791       1.37326056      -0.34025965
O       -0.14352323       1.16174923      -0.56347970
H       -2.68947971      -0.53309437       0.72556793
H       -2.42010505      -0.05599181      -0.96083101
H       -2.62068961       1.18257621       0.28653537
H       -0.50206785       0.50041491       1.34987861
H       -0.39446877      -1.54780161      -0.90702526
H       -0.38158016      -1.87603604       0.81440423
H        1.99086346      -1.71332048       0.72381738
H        2.35152183      -0.87307508      -0.93287741
H        1.38793792       2.01632189       0.54804690
H        1.60593923       1.94516473      -1.19398749
17
Frame=11 idx=009032 GeodesicLength=0.4688442871724865 rxn_smarts="[C:1]([C@@:2]1([H:11])[C:3]([H:12])([H:13])[C:4]([H:14])=[C:5]([H:15])[C:6]([H:16])([H:17])[O:7]1)([H:8])([H:9])[H:10]>>[C:1]([C@@:2]1([H:11])[C:3]([H:12])([H:13])[C:4]([H:14])([H:15])[C:5][C:6]([H:16])([H:17])[O:7]1)([H:8])([H:9])[H:10]"
C       -2.20267426       0.19824078       0.08413771
C       -0.70747323       0.19751412       0.30951871
C       -0.05897469      -1.15632799       0.04777579
C        1.44665457      -1.02533142       0.07127167
C        2.09059579       0.19798559      -0.08140340
C        1.23503995       1.37298085      -0.34586389
O       -0.14747367       1.16549685      -0.55932826
H       -2.68866990      -0.53595440       0.72951657
H       -2.42525064      -0.05018677      -0.95533791
H       -2.62052993       1.18193979       0.29941319
H       -0.49874467       0.49258946       1.35152962
H       -0.39357287      -1.53712463      -0.92241086
H       -0.38896241      -1.88317358       0.79532722
H        1.97949263      -1.68952664       0.75632709
H        2.38708004      -0.88857686      -0.92187347
H        1.39374618       2.01442052       0.54258412
H        1.59971713       1.94503431      -1.20118391
17
Frame=12 idx=009032 GeodesicLength=0.5115784976137993 rxn_smarts="[C:1]([C@@:2]1([H:11])[C:3]([H:12])([H:13])[C:4]([H:14])=[C:5]([H:15])[C:6]([H:16])([H:17])[O:7]1)([H:8])([H:9])[H:10]>>[C:1]([C@@:2]1([H:11])[C:3]([H:12])([H:13])[C:4]([H:14])([H:15])[C:5][C:6]([H:16])([H:17])[O:7]1)([H:8])([H:9])[H:10]"
C       -2.20384844       0.19842236       0.09020526
C       -0.70782538       0.19554546       0.31020569
C       -0.06050891      -1.15668791       0.03763458
C        1.44524200      -1.02864347       0.06780549
C        2.08509418       0.19517942      -0.09414899
C        1.23246197       1.37260061      -0.35160833
O       -0.15141540       1.16926667      -0.55502796
H       -2.68780250      -0.53891876       0.73350224
H       -2.43038640      -0.04439320      -0.94972402
H       -2.62031403       1.18117511       0.31243696
H       -0.49531472       0.48465496       1.35314410
H       -0.39269274      -1.52629232      -0.93775739
H       -0.39632795      -1.89018714       0.77607605
H        1.96717179      -1.66475574       0.78767154
H        2.42329641      -0.90406094      -0.90897225
H        1.39987226       2.01213771       0.53703125
H        1.59329785       1.94495716      -1.20847421
17
Frame=13 idx=009032 GeodesicLength=0.5542989883176103 rxn_smarts="[C:1]([C@@:2]1([H:11])[C:3]([H:12])([H:13])[C:4]([H:14])=[C:5]([H:15])[C:6]([H:16])([H:17])[O:7]1)([H:8])([H:9])[H:10]>>[C:1]([C@@:2]1([H:11])[C:3]([H:12])([H:13])[C:4]([H:14])([H:15])[C:5][C:6]([H:16])([H:17])[O:7]1)([H:8])([H:9])[H:10]"
C       -2.20498659       0.19853485       0.09635830
C       -0.70815829       0.19352922       0.31090162
C       -0.06208063      -1.15702504       0.02742615
C        1.44382388      -1.03212291       0.06439866
C        2.07949574       0.19206070      -0.10774993
C        1.22987862       1.37210255      -0.35750365
O       -0.15534014       1.17305298      -0.55057500
H       -2.68687933      -0.54198283       0.73752416
H       -2.43551366      -0.03860412      -0.94398835
H       -2.62003483       1.18028602       0.32561092
H       -0.49177222       0.47660744       1.35471940
H       -0.39184827      -1.51532683      -0.95304720
H       -0.40366888      -1.89706956       0.75667236
H        1.95391250      -1.63898291       0.81770327
H        2.46014992      -0.91942966      -0.89398513
H        1.40634396       2.00942427       0.53139434
H        1.58667821       1.94494583      -1.21585992
17
Frame=14 idx=009032 GeodesicLength=0.5970993642188099 rxn_smarts="[C:1]([C@@:2]1([H:11])[C:3]([H:12])([H:13])[C:4]([H:14])=[C:5]([H:15])[C:6]([H:16])([H:17])[O:7]1)([H:8])([H:9])[H:10]>>[C:1]([C@@:2]1([H:11])[C:3]([H:12])([H:13])[C:4]([H:14])([H:15])[C:5][C:6]([H:16])([H:17])[O:7]1)([H:8])([H:9])[H:10]"
C       -2.20609088       0.19858648       0.10259055
C       -0.70847538       0.19146488       0.31159974
C       -0.06370413      -1.15734565       0.01715930
C        1.44238016      -1.03577000       0.06100927
C        2.07377720       0.18861004      -0.12224005
C        1.22729185       1.37147746      -0.36355178
O       -0.15923945       1.17685031      -0.54597145
H       -2.68590906      -0.54513068       0.74157903
H       -2.44063398      -0.03281401      -0.93813451
H       -2.61968583       1.17928315       0.33892194
H       -0.48812054       0.46844893       1.35624397
H       -0.39107960      -1.50425835      -0.96825293
H       -0.41098350      -1.90380495       0.73715924
H        1.93982502      -1.61231196       0.84638722
H        2.49761358      -0.93454429      -0.87684934
H        1.41317383       2.00624482       0.52566921
H        1.57986072       1.94501384      -1.22331938
17
Frame=15 idx=009032 GeodesicLength=0.6399847119699772 rxn_smarts="[C:1]([C@@:2]1([H:11])[C:3]([H:12])([H:13])[C:4]([H:14])=[C:5]([H:15])[C:6]([H:16])([H:17])[O:7]1)([H:8])([H:9])[H:10]>>[C:1]([C@@:2]1([H:11])[C:3]([H:12])([H:13])[C:4]([H:14])([H:15])[C:5][C:6]([H:16])([H:17])[O:7]1)([H:8])([H:9])[H:10]"
C       -2.20716213       0.19858557       0.10889926
C       -0.70877819       0.18935009       0.31229437
C       -0.06539175      -1.15765914       0.00683896
C        1.44089773      -1.03959184       0.05760724
C        2.06791553       0.18479806      -0.13766735
C        1.22470619       1.37070961      -0.36976093
O       -0.16310400       1.18065140      -0.54121886
H       -2.68489751      -0.54834871       0.74566573
H       -2.44575028      -0.02701417      -0.93216392
H       -2.61925909       1.17817803       0.35236541
H       -0.48435711       0.46017754       1.35771036
H       -0.39042120      -1.49311515      -0.98335602
H       -0.41827302      -1.91038783       0.71756985
H        1.92499525      -1.58480779       0.87364659
H        2.53564766      -0.94924915      -0.85743818
H        1.42038357       2.00255423       0.51985088
H        1.57284834       1.94516926      -1.23084340
17
Frame=16 idx=009032 GeodesicLength=0.6829484340628229 rxn_smarts="[C:1]([C@@:2]1([H:11])[C:3]([H:12])([H:13])[C:4]([H:14])=[C:5]([H:15])[C:6]([H:16])([H:17])[O:7]1)([H:8])([H:9])[H:10]>>[C:1]([C@@:2]1([H:11])[C:3]([H:12])([H:13])[C:4]([H:14])([H:15])[C:5][C:6]([H:16])([H:17])[O:7]1)([H:8])([H:9])[H:10]"
C       -2.20820039       0.19854139       0.11528562
C       -0.70906681       0.18717987       0.31297926
C       -0.06715777      -1.15797803      -0.00353605
C        1.43936292      -1.04360106       0.05415173
C        2.06188474       0.18058798      -0.15408754
C        1.22212812       1.36977727      -0.37614476
O       -0.16692276       1.18444700      -0.53631859
H       -2.68384980      -0.55162364       0.74978559
H       -2.45086818      -0.02118995      -0.92607404
H       -2.61874255       1.17698275       0.36594635
H       -0.48047465       0.45178586       1.35911037
H       -0.38991214      -1.48192633      -0.99834452
H       -0.42554016      -1.91681773       0.69792921
H        1.90949584      -1.55652570       0.89941146
H        2.57421765      -0.96335429      -0.83559434
H        1.42800066       1.99830067       0.51392965
H        1.56564529       1.94541394      -1.23842940
