12
Frame=0 idx=002277 GeodesicLength=0.0 rxn_smarts="[O:1]=[C:2]1[C:3]([H:7])([H:8])[C:4]([H:9])([H:10])[C:5]([H:11])([H:12])[O:6]1>>[O:1]([C@@:2]12[C:3]([H:7])([H:8])[C@:4]1([H:9])[C:5]([H:11])([H:12])[O:6]2)[H:10]"
O        1.79033495       0.41398267       1.12672850
C        0.94287992       0.41150408       0.14101868
C        0.65771576      -0.70192629      -0.77311549
C       -0.47159541      -0.59453468       0.27694302
C       -1.11761827       0.73811663      -0.03214095
O        0.12921070       1.49201838      -0.10265076
H        0.41024107      -0.48453063      -1.81041825
H        1.31044253      -1.55388178      -0.62640979
H       -0.97401667      -1.48072764       0.64368924
H        0.69956815      -0.19764319       1.36008342
H       -1.72259504       1.14359744       0.77876398
H       -1.65456774       0.81402496      -0.98249159
12
Frame=1 idx=002277 GeodesicLength=0.07630490533286627 rxn_smarts="[O:1]=[C:2]1[C:3]([H:7])([H:8])[C:4]([H:9])([H:10])[C:5]([H:11])([H:12])[O:6]1>>[O:1]([C@@:2]12[C:3]([H:7])([H:8])[C@:4]1([H:9])[C:5]([H:11])([H:12])[O:6]2)[H:10]"
O        1.79447369       0.41946421       1.11966087
C        0.94918565       0.41683949       0.13376498
C        0.65687303      -0.70341338      -0.77197260
C       -0.46941436      -0.59396539       0.27971029
C       -1.11717483       0.73845788      -0.03029151
O        0.12761044       1.49361326      -0.10379754
H        0.41249272      -0.48886248      -1.81042404
H        1.31130995      -1.55422387      -0.62567471
H       -0.98102286      -1.48069069       0.63185764
H        0.69395120      -0.20326526       1.37563016
H       -1.72205620       1.14335357       0.78096757
H       -1.65622843       0.81269266      -0.97943112
12
Frame=2 idx=002277 GeodesicLength=0.15255606370878194 rxn_smarts="[O:1]=[C:2]1[C:3]([H:7])([H:8])[C:4]([H:9])([H:10])[C:5]([H:11])([H:12])[O:6]1>>[O:1]([C@@:2]12[C:3]([H:7])([H:8])[C@:4]1([H:9])[C:5]([H:11])([H:12])[O:6]2)[H:10]"
O        1.79835164       0.42493009       1.11256919
C        0.95558319       0.42231308       0.12614817
C        0.65607361      -0.70487004      -0.77086084
C       -0.46711452      -0.59337467       0.28252366
C       -1.11667922       0.73879305      -0.02841169
O        0.12601759       1.49523711      -0.10501356
H        0.41465458      -0.49334603      -1.81045328
H        1.31225367      -1.55450491      -0.62495754
H       -0.98787242      -1.48039800       0.61992998
H        0.68804989      -0.20920853       1.39158634
H       -1.72141268       1.14311403       0.78323576
H       -1.65790532       0.81131481      -0.97629618
12
Frame=3 idx=002277 GeodesicLength=0.22877368893391464 rxn_smarts="[O:1]=[C:2]1[C:3]([H:7])([H:8])[C:4]([H:9])([H:10])[C:5]([H:11])([H:12])[O:6]1>>[O:1]([C@@:2]12[C:3]([H:7])([H:8])[C@:4]1([H:9])[C:5]([H:11])([H:12])[O:6]2)[H:10]"
O        1.80194344       0.43037518       1.10545800
C        0.96207763       0.42793448       0.11814336
C        0.65532105      -0.70629193      -0.76978659
C       -0.46468711      -0.59275812       0.28538077
C       -1.11612682       0.73912435      -0.02650265
O        0.12443420       1.49689285      -0.10631040
H        0.41672148      -0.49798529      -1.81051174
H        1.31327894      -1.55471902      -0.62426468
H       -0.99454005      -1.47983849       0.60793045
H        0.68183109      -0.21550718       1.40797698
H       -1.72065451       1.14288268       0.78557050
H       -1.65959933       0.80989049      -0.97308402
12
Frame=4 idx=002277 GeodesicLength=0.3049824658068492 rxn_smarts="[O:1]=[C:2]1[C:3]([H:7])([H:8])[C:4]([H:9])([H:10])[C:5]([H:11])([H:12])[O:6]1>>[O:1]([C@@:2]12[C:3]([H:7])([H:8])[C@:4]1([H:9])[C:5]([H:11])([H:12])[O:6]2)[H:10]"
O        1.80522076       0.43579569       1.09833071
C        0.96867487       0.43371452       0.10972350
C        0.65461964      -0.70767392      -0.76875615
C       -0.46212211      -0.59211046       0.28827957
C       -1.11551224       0.73945446      -0.02456535
O        0.12286274       1.49858361      -0.10770186
H        0.41868797      -0.50278506      -1.81060457
H        1.31439170      -1.55485943      -0.62360291
H       -1.00100056      -1.47900260       0.59588375
H        0.67525850      -0.22219983       1.42482979
H       -1.71976963       1.14266478       0.78797405
H       -1.66131163       0.80841825      -0.96979051
12
Frame=5 idx=002277 GeodesicLength=0.3811875677423917 rxn_smarts="[O:1]=[C:2]1[C:3]([H:7])([H:8])[C:4]([H:9])([H:10])[C:5]([H:11])([H:12])[O:6]1>>[O:1]([C@@:2]12[C:3]([H:7])([H:8])[C@:4]1([H:9])[C:5]([H:11])([H:12])[O:6]2)[H:10]"
O        1.80815411       0.44118815       1.09118927
C        0.97538043       0.43966319       0.10086340
C        0.65397359      -0.70901035      -0.76777581
C       -0.45940993      -0.59142636       0.29121785
C       -1.11482989       0.73978617      -0.02260081
O        0.12130644       1.50031171      -0.10920242
H        0.42054942      -0.50774922      -1.81073658
H        1.31559737      -1.55491925      -0.62297952
H       -1.00722969      -1.47788333       0.58381552
H        0.66829687      -0.22932354       1.44217217
H       -1.71874571       1.14246619       0.79044890
H       -1.66304301       0.80689664      -0.96641197
12
Frame=6 idx=002277 GeodesicLength=0.4574117554477539 rxn_smarts="[O:1]=[C:2]1[C:3]([H:7])([H:8])[C:4]([H:9])([H:10])[C:5]([H:11])([H:12])[O:6]1>>[O:1]([C@@:2]12[C:3]([H:7])([H:8])[C@:4]1([H:9])[C:5]([H:11])([H:12])[O:6]2)[H:10]"
O        1.81071811       0.44655210       1.08403322
C        0.98219964       0.44579191       0.09153629
C        0.65338812      -0.71029475      -0.76685112
C       -0.45653963      -0.59069955       0.29419469
C       -1.11407375       0.74012278      -0.02060943
O        0.11976832       1.50208021      -0.11082875
H        0.42230056      -0.51288302      -1.81091182
H        1.31690296      -1.55489044      -0.62240033
H       -1.01320252      -1.47647368       0.57175065
H        0.66090155      -0.23692335       1.46003190
H       -1.71756827       1.14229428       0.79299834
H       -1.66479511       0.80532351      -0.96294364
12
Frame=7 idx=002277 GeodesicLength=0.5336463867572009 rxn_smarts="[O:1]=[C:2]1[C:3]([H:7])([H:8])[C:4]([H:9])([H:10])[C:5]([H:11])([H:12])[O:6]1>>[O:1]([C@@:2]12[C:3]([H:7])([H:8])[C@:4]1([H:9])[C:5]([H:11])([H:12])[O:6]2)[H:10]"
O        1.81288606       0.45188726       1.07685932
C        0.98913654       0.45211014       0.08171956
C        0.65286822      -0.71152057      -0.76598652
C       -0.45350187      -0.58992470       0.29720804
C       -1.11323789       0.74046763      -0.01859215
O        0.11825202       1.50389047      -0.11259805
H        0.42393879      -0.51818865      -1.81113377
H        1.31831450      -1.55476527      -0.62187154
H       -1.01889665      -1.47476894       0.55971579
H        0.65303296      -0.24504106       1.47843494
H       -1.71622349       1.14215674       0.79562488
H       -1.66656919       0.80369695      -0.95938050
12
Frame=8 idx=002277 GeodesicLength=0.6099135778410997 rxn_smarts="[O:1]=[C:2]1[C:3]([H:7])([H:8])[C:4]([H:9])([H:10])[C:5]([H:11])([H:12])[O:6]1>>[O:1]([C@@:2]12[C:3]([H:7])([H:8])[C@:4]1([H:9])[C:5]([H:11])([H:12])[O:6]2)[H:10]"
O        1.81463020       0.45719606       1.06966395
C        0.99619729       0.45863093       0.07138484
C        0.65242015      -0.71267981      -0.76518741
C       -0.45028348      -0.58909396       0.30025896
C       -1.11231485       0.74082466      -0.01654872
O        0.11676160       1.50574575      -0.11453187
H        0.42545869      -0.52367276      -1.81140522
H        1.31984033      -1.55453396      -0.62139901
H       -1.02428800      -1.47276474       0.54773494
H        0.64463881      -0.25372885       1.49741171
H       -1.71469318       1.14206362       0.79833348
H       -1.66836755       0.80201307      -0.95571564
12
Frame=9 idx=002277 GeodesicLength=0.6862050590715704 rxn_smarts="[O:1]=[C:2]1[C:3]([H:7])([H:8])[C:4]([H:9])([H:10])[C:5]([H:11])([H:12])[O:6]1>>[O:1]([C@@:2]12[C:3]([H:7])([H:8])[C@:4]1([H:9])[C:5]([H:11])([H:12])[O:6]2)[H:10]"
O        1.81591844       0.46248186       1.06243822
C        1.00338715       0.46536481       0.06050847
C        0.65205038      -0.71376401      -0.76445659
C       -0.44687244      -0.58820048       0.30334793
C       -1.11129698       0.74119780      -0.01447883
O        0.11530213       1.50764740      -0.11665354
H        0.42685768      -0.52933762      -1.81172770
H        1.32148752      -1.55418740      -0.62098836
H       -1.02935500      -1.47045859       0.53583238
H        0.63567224      -0.26303724       1.51699107
H       -1.71295875       1.14202608       0.80112858
H       -1.67019238       0.80026739      -0.95194162
12
Frame=10 idx=002277 GeodesicLength=0.7625301907084601 rxn_smarts="[O:1]=[C:2]1[C:3]([H:7])([H:8])[C:4]([H:9])([H:10])[C:5]([H:11])([H:12])[O:6]1>>[O:1]([C@@:2]12[C:3]([H:7])([H:8])[C@:4]1([H:9])[C:5]([H:11])([H:12])[O:6]2)[H:10]"
O        1.81673150       0.46775360       1.05517083
C        1.01070985       0.47232329       0.04906664
C        0.65176551      -0.71476454      -0.76379723
C       -0.44325628      -0.58723661       0.30647743
C       -1.11017644       0.74159122      -0.01238138
O        0.11387756       1.50959704      -0.11898717
H        0.42813319      -0.53518797      -1.81210178
H        1.32326502      -1.55371530      -0.62064284
H       -1.03407590      -1.46784816       0.52403121
H        0.62607222      -0.27302423       1.53719810
H       -1.71100041       1.14205632       0.80401526
H       -1.67204581       0.79845532      -0.94804907
12
Frame=11 idx=002277 GeodesicLength=0.8388720779563337 rxn_smarts="[O:1]=[C:2]1[C:3]([H:7])([H:8])[C:4]([H:9])([H:10])[C:5]([H:11])([H:12])[O:6]1>>[O:1]([C@@:2]12[C:3]([H:7])([H:8])[C@:4]1([H:9])[C:5]([H:11])([H:12])[O:6]2)[H:10]"
O        1.81704945       0.47301947       1.04784604
C        1.01816811       0.47951552       0.03704067
C        0.65157240      -0.71567246      -0.76321045
C       -0.43942334      -0.58619581       0.30964972
C       -1.10894552       0.74200889      -0.01025545
O        0.11249257       1.51159488      -0.12155782
H        0.42928477      -0.54122524      -1.81252679
H        1.32518061      -1.55310740      -0.62036702
H       -1.03843177      -1.46493366       0.51235489
H        0.61578145      -0.28374307       1.55805736
H       -1.70879835       1.14216693       0.80699832
H       -1.67393039       0.79657194      -0.94402948
12
Frame=12 idx=002277 GeodesicLength=0.915237319793591 rxn_smarts="[O:1]=[C:2]1[C:3]([H:7])([H:8])[C:4]([H:9])([H:10])[C:5]([H:11])([H:12])[O:6]1>>[O:1]([C@@:2]12[C:3]([H:7])([H:8])[C@:4]1([H:9])[C:5]([H:11])([H:12])[O:6]2)[H:10]"
O        1.81685325       0.47829393       1.04044543
C        1.02576559       0.48695295       0.02440840
C        0.65147938      -0.71647734      -0.76269715
C       -0.43535908      -0.58506964       0.31287007
C       -1.10759482       0.74245539      -0.00809883
O        0.11115193       1.51364218      -0.12439579
H        0.43031084      -0.54745408      -1.81300008
H        1.32724436      -1.55235171      -0.62016358
H       -1.04240259      -1.46171384       0.50082482
H        0.60472882      -0.29526108       1.57959249
H       -1.70632832       1.14237345       0.81008489
H       -1.67584934       0.79460979      -0.93987066
12
Frame=13 idx=002277 GeodesicLength=0.9915932965633893 rxn_smarts="[O:1]=[C:2]1[C:3]([H:7])([H:8])[C:4]([H:9])([H:10])[C:5]([H:11])([H:12])[O:6]1>>[O:1]([C@@:2]12[C:3]([H:7])([H:8])[C@:4]1([H:9])[C:5]([H:11])([H:12])[O:6]2)[H:10]"
O        1.81613097       0.48359190       1.03294569
C        1.03350274       0.49464232       0.01115715
C        0.65149338      -0.71716955      -0.76225663
C       -0.43105267      -0.58385166       0.31614288
C       -1.10611638       0.74293466      -0.00590951
O        0.10986073       1.51573801      -0.12752891
H        0.43121357      -0.55387452      -1.81351801
H        1.32946392      -1.55143805      -0.62003429
H       -1.04597234      -1.45819145       0.48946115
H        0.59285048      -0.30763479       1.60182129
H       -1.70356902       1.14269061       0.81328097
H       -1.67780537       0.79256253      -0.93556177
12
Frame=14 idx=002277 GeodesicLength=1.0679374304615918 rxn_smarts="[O:1]=[C:2]1[C:3]([H:7])([H:8])[C:4]([H:9])([H:10])[C:5]([H:11])([H:12])[O:6]1>>[O:1]([C@@:2]12[C:3]([H:7])([H:8])[C@:4]1([H:9])[C:5]([H:11])([H:12])[O:6]2)[H:10]"
O        1.81487788       0.48893484       1.02531752
C        1.04137996       0.50259195      -0.00272829
C        0.65162266      -0.71773859      -0.76188668
C       -0.42649051      -0.58253406       0.31947541
C       -1.10450074       0.74345129      -0.00368399
O        0.10862310       1.51788219      -0.13098914
H        0.43199486      -0.56048815      -1.81407497
H        1.33184954      -1.55035450      -0.61997879
H       -1.04912313      -1.45436719       0.47828392
H        0.58006396      -0.32093505       1.62475982
H       -1.70049543       1.14313553       0.81659386
H       -1.67980216       0.79042176      -0.93108868
12
Frame=15 idx=002277 GeodesicLength=1.1442445404487631 rxn_smarts="[O:1]=[C:2]1[C:3]([H:7])([H:8])[C:4]([H:9])([H:10])[C:5]([H:11])([H:12])[O:6]1>>[O:1]([C@@:2]12[C:3]([H:7])([H:8])[C@:4]1([H:9])[C:5]([H:11])([H:12])[O:6]2)[H:10]"
O        1.81309638       0.49434699       1.01752819
C        1.04939530       0.51080701      -0.01725691
C        0.65187522      -0.71817449      -0.76158359
C       -0.42166085      -0.58111022       0.32287517
C       -1.10273928       0.74400936      -0.00141885
O        0.10744323       1.52007332      -0.13480779
H        0.43265887      -0.56729451      -1.81466407
H        1.33441031      -1.54908985      -0.61999602
H       -1.05184061      -1.45024372       0.46731181
H        0.56628834      -0.33522823       1.64841806
H       -1.69708368       1.14372532       0.82003122
H       -1.68184323       0.78817903      -0.92643722
12
Frame=16 idx=002277 GeodesicLength=1.2204967872476404 rxn_smarts="[O:1]=[C:2]1[C:3]([H:7])([H:8])[C:4]([H:9])([H:10])[C:5]([H:11])([H:12])[O:6]1>>[O:1]([C@@:2]12[C:3]([H:7])([H:8])[C@:4]1([H:9])[C:5]([H:11])([H:12])[O:6]2)[H:10]"
O        1.81079872       0.49985783       1.00953821
C        1.05754555       0.51929191      -0.03243566
C        0.65225928      -0.71846699      -0.76134271
C       -0.41655141      -0.57957321       0.32635163
C       -1.10082289       0.74461299       0.00089078
O        0.10632454       1.52231013      -0.13901688
H        0.43321065      -0.57429348      -1.81527602
H        1.33715608      -1.54763254      -0.62008302
H       -1.05411039      -1.44582379       0.45656288
H        0.55143118      -0.35058575       1.67280131
H       -1.69330907       1.14447780       0.82360124
H       -1.68393224       0.78582510      -0.92159176
