14
Frame=0 idx=003296 GeodesicLength=0.0 rxn_smarts="[O:1]=[C:2]([C:3]1([H:8])[C:4]([H:9])([H:10])[C:5]([H:11])([H:12])[C:6]1([H:13])[H:14])[H:7]>>[O:1]=[C:2]([C@:3]([C:4][H:9])([C:6]([C:5]([H:10])([H:11])[H:12])([H:13])[H:14])[H:8])[H:7]"
O        1.90791050      -0.16480436      -1.42223060
C        1.69035716       0.38377202      -0.37705443
C        0.67956981      -0.07000004       0.65512271
C        0.09673111      -1.46165243       0.50107662
C       -1.36173113      -0.13959904      -0.49278767
C       -0.60919898       0.75556777       0.48227761
H        2.23119705       1.31938064      -0.11371030
H        1.12496226       0.07574346       1.64518251
H        0.49453970      -1.90592347      -0.42488300
H       -1.24414291      -1.20927582      -0.01322375
H       -0.96747619      -0.12056784      -1.50539879
H       -2.44758139      -0.03810420      -0.49939449
H       -0.45781852       1.77852576       0.13065934
H       -1.13731841       0.79693756       1.43436426
14
Frame=1 idx=003296 GeodesicLength=0.06349220031128096 rxn_smarts="[O:1]=[C:2]([C:3]1([H:8])[C:4]([H:9])([H:10])[C:5]([H:11])([H:12])[C:6]1([H:13])[H:14])[H:7]>>[O:1]=[C:2]([C@:3]([C:4][H:9])([C:6]([C:5]([H:10])([H:11])[H:12])([H:13])[H:14])[H:8])[H:7]"
O        1.92302830      -0.15370458      -1.41850219
C        1.70076305       0.38700561      -0.37026696
C        0.68172826      -0.06967936       0.65171196
C        0.09727878      -1.45708196       0.48662237
C       -1.36535979      -0.14799274      -0.48781237
C       -0.60820038       0.75575892       0.47649156
H        2.24308206       1.31886713      -0.09682386
H        1.11652051       0.07282566       1.64680997
H        0.49531509      -1.89921027      -0.43975166
H       -1.26140804      -1.23152660       0.00100175
H       -0.98671372      -0.12494990      -1.50655815
H       -2.45035815      -0.03692662      -0.48330779
H       -0.45386122       1.77298709       0.11021005
H       -1.13181476       0.81362764       1.43017532
14
Frame=2 idx=003296 GeodesicLength=0.12696819930736036 rxn_smarts="[O:1]=[C:2]([C:3]1([H:8])[C:4]([H:9])([H:10])[C:5]([H:11])([H:12])[C:6]1([H:13])[H:14])[H:7]>>[O:1]=[C:2]([C@:3]([C:4][H:9])([C:6]([C:5]([H:10])([H:11])[H:12])([H:13])[H:14])[H:8])[H:7]"
O        1.93842436      -0.14255895      -1.41444340
C        1.71133843       0.39012657      -0.36317950
C        0.68383786      -0.06938029       0.64824710
C        0.09758875      -1.45237252       0.47182662
C       -1.36911631      -0.15631493      -0.48272640
C       -0.60713620       0.75610500       0.47042398
H        2.25495500       1.31818302      -0.07951772
H        1.10779247       0.06967625       1.64836845
H        0.49596060      -1.89220116      -0.45498903
H       -1.27792485      -1.25391972       0.01529564
H       -1.00669559      -0.12896061      -1.50754408
H       -2.45315153      -0.03646263      -0.46643131
H       -0.44972143       1.76724339       0.08924404
H       -1.12615156       0.83083659       1.42542563
14
Frame=3 idx=003296 GeodesicLength=0.19042550952769077 rxn_smarts="[O:1]=[C:2]([C:3]1([H:8])[C:4]([H:9])([H:10])[C:5]([H:11])([H:12])[C:6]1([H:13])[H:14])[H:7]>>[O:1]=[C:2]([C@:3]([C:4][H:9])([C:6]([C:5]([H:10])([H:11])[H:12])([H:13])[H:14])[H:8])[H:7]"
O        1.95412409      -0.13138512      -1.41002732
C        1.72207529       0.39312916      -0.35578377
C        0.68589221      -0.06910538       0.64472325
C        0.09767409      -1.44752205       0.45668740
C       -1.37300432      -0.16453869      -0.47753462
C       -0.60600734       0.75660831       0.46406749
H        2.26679004       1.31733167      -0.06178914
H        1.09876535       0.06630218       1.64984492
H        0.49647161      -1.88487748      -0.47061162
H       -1.29366494      -1.27648871       0.02964064
H       -1.02744597      -0.13262519      -1.50833572
H       -2.45595662      -0.03667894      -0.44873492
H       -0.44539092       1.76128173       0.06776030
H       -1.12032258       0.84856851       1.42009311
14
Frame=4 idx=003296 GeodesicLength=0.25386191957731763 rxn_smarts="[O:1]=[C:2]([C:3]1([H:8])[C:4]([H:9])([H:10])[C:5]([H:11])([H:12])[C:6]1([H:13])[H:14])[H:7]>>[O:1]=[C:2]([C@:3]([C:4][H:9])([C:6]([C:5]([H:10])([H:11])[H:12])([H:13])[H:14])[H:8])[H:7]"
O        1.97015284      -0.12019787      -1.40522537
C        1.73296639       0.39600805      -0.34806897
C        0.68788477      -0.06885659       0.64113599
C        0.09754707      -1.44252799       0.44119889
C       -1.37702798      -0.17263999      -0.47223741
C       -0.60481461       0.75727132       0.45741284
H        2.27856076       1.31631437      -0.04363065
H        1.08942025       0.06270910       1.65122688
H        0.49684226      -1.87721607      -0.48664129
H       -1.30859998      -1.29926971       0.04402004
H       -1.04899318      -0.13596859      -1.50890819
H       -2.45876069      -0.03754164      -0.43018085
H       -0.44086199       1.75508339       0.04575044
H       -1.11431589       0.86683222       1.41414764
14
Frame=5 idx=003296 GeodesicLength=0.3172763668918088 rxn_smarts="[O:1]=[C:2]([C:3]1([H:8])[C:4]([H:9])([H:10])[C:5]([H:11])([H:12])[C:6]1([H:13])[H:14])[H:7]>>[O:1]=[C:2]([C@:3]([C:4][H:9])([C:6]([C:5]([H:10])([H:11])[H:12])([H:13])[H:14])[H:8])[H:7]"
O        1.98653231      -0.10901798      -1.40001101
C        1.74400280       0.39875829      -0.34002826
C        0.68981057      -0.06863505       0.63748157
C        0.09721788      -1.43738611       0.42535723
C       -1.38118886      -0.18059663      -0.46683645
C       -0.60355823       0.75809705       0.45045145
H        2.29024438       1.31513384      -0.02503970
H        1.07974510       0.05890448       1.65250114
H        0.49706486      -1.86919573      -0.50309624
H       -1.32269860      -1.32229930       0.05842129
H       -1.07136196      -0.13901340      -1.50923692
H       -2.46155471      -0.03901632      -0.41074874
H       -0.43612883       1.74863647       0.02321421
H       -1.10812672       0.88563039       1.40757044
14
Frame=6 idx=003296 GeodesicLength=0.380669341961868 rxn_smarts="[O:1]=[C:2]([C:3]1([H:8])[C:4]([H:9])([H:10])[C:5]([H:11])([H:12])[C:6]1([H:13])[H:14])[H:7]>>[O:1]=[C:2]([C@:3]([C:4][H:9])([C:6]([C:5]([H:10])([H:11])[H:12])([H:13])[H:14])[H:8])[H:7]"
O        2.00328814      -0.09786067      -1.39435099
C        1.75517704       0.40137379      -0.33164660
C        0.69166028      -0.06844208       0.63375496
C        0.09669441      -1.43209172       0.40915114
C       -1.38549292      -0.18838702      -0.46133021
C       -0.60223847       0.75908915       0.44316948
H        2.30181326       1.31378958      -0.00600300
H        1.06971761       0.05489445       1.65365528
H        0.49712858      -1.86078531      -0.52000589
H       -1.33593038      -1.34561664       0.07282578
H       -1.09458555      -0.14178302      -1.50929061
H       -2.46430957      -0.04107407      -0.39038632
H       -0.43118385       1.74191737       0.00013659
H       -1.10173857       0.90497619       1.40032039
14
Frame=7 idx=003296 GeodesicLength=0.4440406404632205 rxn_smarts="[O:1]=[C:2]([C:3]1([H:8])[C:4]([H:9])([H:10])[C:5]([H:11])([H:12])[C:6]1([H:13])[H:14])[H:7]>>[O:1]=[C:2]([C@:3]([C:4][H:9])([C:6]([C:5]([H:10])([H:11])[H:12])([H:13])[H:14])[H:8])[H:7]"
O        2.02043748      -0.08674596      -1.38821760
C        1.76647762       0.40384863      -0.32291460
C        0.69342840      -0.06827902       0.62995295
C        0.09598236      -1.42663823       0.39257415
C       -1.38994300      -0.19599158      -0.45571834
C       -0.60085673       0.76025249       0.43555817
H        2.31324240       1.31228222       0.01348621
H        1.05932607       0.05068488       1.65467631
H        0.49702140      -1.85195816      -0.53739177
H       -1.34825949      -1.36926003       0.08722127
H       -1.11869119      -0.14429605      -1.50903824
H       -2.46700048      -0.04368441      -0.36907066
H       -0.42602047       1.73491022      -0.02348975
H       -1.09514438       0.92487501       1.39237189
14
Frame=8 idx=003296 GeodesicLength=0.5073950807093551 rxn_smarts="[O:1]=[C:2]([C:3]1([H:8])[C:4]([H:9])([H:10])[C:5]([H:11])([H:12])[C:6]1([H:13])[H:14])[H:7]>>[O:1]=[C:2]([C@:3]([C:4][H:9])([C:6]([C:5]([H:10])([H:11])[H:12])([H:13])[H:14])[H:8])[H:7]"
O        2.03800165      -0.07569284      -1.38157613
C        1.77789511       0.40617558      -0.31381619
C        0.69510608      -0.06814677       0.62607132
C        0.09508610      -1.42101794       0.37561235
C       -1.39454341      -0.20339153      -0.44999590
C       -0.59941321       0.76159180       0.42760185
H        2.32450318       1.31061027       0.03344208
H        1.04854649       0.04628077       1.65555158
H        0.49672777      -1.84267730      -0.55528535
H       -1.35964609      -1.39327241       0.10159048
H       -1.14371513      -0.14657055      -1.50844165
H       -2.46958788      -0.04681890      -0.34675407
H       -0.42063225       1.72758876      -0.04768338
H       -1.08832841       0.94534105       1.38368301
14
Frame=9 idx=003296 GeodesicLength=0.5706678469697262 rxn_smarts="[O:1]=[C:2]([C:3]1([H:8])[C:4]([H:9])([H:10])[C:5]([H:11])([H:12])[C:6]1([H:13])[H:14])[H:7]>>[O:1]=[C:2]([C@:3]([C:4][H:9])([C:6]([C:5]([H:10])([H:11])[H:12])([H:13])[H:14])[H:8])[H:7]"
O        2.05601080      -0.06474312      -1.37438140
C        1.78940855       0.40836567      -0.30434841
C        0.69669225      -0.06804133       0.62210216
C        0.09402962      -1.41522924       0.35824891
C       -1.39930448      -0.21058543      -0.44414512
C       -0.59790696       0.76310222       0.41928892
H        2.33557495       1.30879819       0.05385831
H        1.03738528       0.04169660       1.65626807
H        0.49624110      -1.83289989      -0.57372687
H       -1.37012834      -1.41765753       0.11594218
H       -1.16968822      -0.14866962      -1.50743617
H       -2.47200146      -0.05039994      -0.32347561
H       -0.41503675       1.71992811      -0.07243730
H       -1.08127633       0.96633532       1.37424235
14
Frame=10 idx=003296 GeodesicLength=0.6339237527162482 rxn_smarts="[O:1]=[C:2]([C:3]1([H:8])[C:4]([H:9])([H:10])[C:5]([H:11])([H:12])[C:6]1([H:13])[H:14])[H:7]>>[O:1]=[C:2]([C@:3]([C:4][H:9])([C:6]([C:5]([H:10])([H:11])[H:12])([H:13])[H:14])[H:8])[H:7]"
O        2.07447282      -0.05390579      -1.36660539
C        1.80101476       0.41039353      -0.29448562
C        0.69817181      -0.06796835       0.61804715
C        0.09279621      -1.40925562       0.34047358
C       -1.40422342      -0.21754304      -0.43816897
C       -0.59633909       0.76479939       0.41059867
H        2.34642462       1.30682063       0.07476520
H        1.02579455       0.03693076       1.65681588
H        0.49553651      -1.82258963      -0.59273816
H       -1.37958497      -1.44249696       0.13022328
H       -1.19665233      -0.15055708      -1.50599363
H       -2.47423007      -0.05444898      -0.29911698
H       -0.40920608       1.71190167      -0.09779646
H       -1.07397532       0.98791949       1.36398145
14
Frame=11 idx=003296 GeodesicLength=0.6971643591505852 rxn_smarts="[O:1]=[C:2]([C:3]1([H:8])[C:4]([H:9])([H:10])[C:5]([H:11])([H:12])[C:6]1([H:13])[H:14])[H:7]>>[O:1]=[C:2]([C@:3]([C:4][H:9])([C:6]([C:5]([H:10])([H:11])[H:12])([H:13])[H:14])[H:8])[H:7]"
O        2.09340178      -0.04321619      -1.35821018
C        1.81269782       0.41225251      -0.28421777
C        0.69953653      -0.06792728       0.61390372
C        0.09138889      -1.40308619       0.32227591
C       -1.40930325      -0.22424823      -0.43206363
C       -0.59470987       0.76669001       0.40151701
H        2.35702679       1.30467649       0.09616623
H        1.01375330       0.03199278       1.65718126
H        0.49459945      -1.81170803      -0.61234494
H       -1.38797346      -1.46783340       0.14440994
H       -1.22463335      -0.15224082      -1.50407395
H       -2.47623272      -0.05894265      -0.27364475
H       -0.40313599       1.70349105      -0.12377057
H       -1.06641592       1.01009995       1.35287173
14
Frame=12 idx=003296 GeodesicLength=0.7603947271077502 rxn_smarts="[O:1]=[C:2]([C:3]1([H:8])[C:4]([H:9])([H:10])[C:5]([H:11])([H:12])[C:6]1([H:13])[H:14])[H:7]>>[O:1]=[C:2]([C@:3]([C:4][H:9])([C:6]([C:5]([H:10])([H:11])[H:12])([H:13])[H:14])[H:8])[H:7]"
O        2.11281664      -0.03270280      -1.34915046
C        1.82444361       0.41393285      -0.27352370
C        0.70077475      -0.06791901       0.60966948
C        0.08980769      -1.39670772       0.30363629
C       -1.41454839      -0.23068703      -0.42581262
C       -0.59301911       0.76878098       0.39202181
H        2.36735009       1.30236118       0.11807927
H        1.00123112       0.02688917       1.65735317
H        0.49340936      -1.80020105      -0.63258585
H       -1.39523818      -1.49371823       0.15846801
H       -1.25367720      -0.15372900      -1.50161684
H       -2.47795336      -0.06385442      -0.24700220
H       -0.39681965       1.69466020      -0.15039294
H       -1.05857737       1.03289488       1.34085659
14
Frame=13 idx=003296 GeodesicLength=0.8236134565563153 rxn_smarts="[O:1]=[C:2]([C:3]1([H:8])[C:4]([H:9])([H:10])[C:5]([H:11])([H:12])[C:6]1([H:13])[H:14])[H:7]>>[O:1]=[C:2]([C@:3]([C:4][H:9])([C:6]([C:5]([H:10])([H:11])[H:12])([H:13])[H:14])[H:8])[H:7]"
O        2.13272414      -0.02240845      -1.33938862
C        1.83623205       0.41542537      -0.26239328
C        0.70187694      -0.06794255       0.60534302
C        0.08805072      -1.39010563       0.28454553
C       -1.41996072      -0.23684405      -0.41940998
C       -0.59126725       0.77108311       0.38209726
H        2.37736959       1.29987154       0.14050667
H        0.98820932       0.02163097       1.65731826
H        0.49194904      -1.78802577      -0.65348295
H       -1.40132379      -1.52019516       0.17236362
H       -1.28380954      -0.15502479      -1.49857108
H       -2.47934098      -0.06916310      -0.21916095
H       -0.39025508       1.68538972      -0.17767143
H       -1.05045445       1.05630878       1.32790393
14
Frame=14 idx=003296 GeodesicLength=0.8868258379842083 rxn_smarts="[O:1]=[C:2]([C:3]1([H:8])[C:4]([H:9])([H:10])[C:5]([H:11])([H:12])[C:6]1([H:13])[H:14])[H:7]>>[O:1]=[C:2]([C@:3]([C:4][H:9])([C:6]([C:5]([H:10])([H:11])[H:12])([H:13])[H:14])[H:8])[H:7]"
O        2.15313785      -0.01237232      -1.32887429
C        1.84804358       0.41672038      -0.25080721
C        0.70282906      -0.06799760       0.60092295
C        0.08611386      -1.38326491       0.26498385
C       -1.42554466      -0.24270530      -0.41283704
C       -0.58945576       0.77360365       0.37172018
H        2.38704981       1.29720094       0.16346504
H        0.97465490       0.01622904       1.65706484
H        0.49019576      -1.77512048      -0.67507308
H       -1.40616563      -1.54731789       0.18604838
H       -1.31507629      -0.15612987      -1.49486040
H       -2.48031763      -0.07484153      -0.19006506
H       -0.38343937       1.67563636      -0.20564009
H       -1.04202548       1.08035953       1.31395193
14
Frame=15 idx=003296 GeodesicLength=0.9500304061844481 rxn_smarts="[O:1]=[C:2]([C:3]1([H:8])[C:4]([H:9])([H:10])[C:5]([H:11])([H:12])[C:6]1([H:13])[H:14])[H:7]>>[O:1]=[C:2]([C@:3]([C:4][H:9])([C:6]([C:5]([H:10])([H:11])[H:12])([H:13])[H:14])[H:8])[H:7]"
O        2.17405758      -0.00264549      -1.31756611
C        1.85985456       0.41780654      -0.23875361
C        0.70361901      -0.06808231       0.59640924
C        0.08399116      -1.37616891       0.24494274
C       -1.43130025      -0.24825715      -0.40608123
C       -0.58758576       0.77635331       0.36087136
H        2.39636321       1.29434366       0.18695563
H        0.96054590       0.01069889       1.65658182
H        0.48812910      -1.76143322      -0.69737648
H       -1.40969490      -1.57513512       0.19947069
H       -1.34750801      -0.15704109      -1.49041526
H       -2.48081321      -0.08086523      -0.15968794
H       -0.37637493       1.66537340      -0.23430792
H       -1.03328348       1.10505271       1.29895707
14
Frame=16 idx=003296 GeodesicLength=1.0132254514066645 rxn_smarts="[O:1]=[C:2]([C:3]1([H:8])[C:4]([H:9])([H:10])[C:5]([H:11])([H:12])[C:6]1([H:13])[H:14])[H:7]>>[O:1]=[C:2]([C@:3]([C:4][H:9])([C:6]([C:5]([H:10])([H:11])[H:12])([H:13])[H:14])[H:8])[H:7]"
O        2.19548477       0.00671890      -1.30541541
C        1.87163892       0.41867278      -0.22621703
C        0.70423112      -0.06819502       0.59180290
C        0.08167440      -1.36880078       0.22440784
C       -1.43722987      -0.25348495      -0.39912410
C       -0.58565984       0.77934217       0.34952744
H        2.40527877       1.29129193       0.21098764
H        0.94585312       0.00505822       1.65585931
H        0.48572555      -1.74690160      -0.72041992
H       -1.41183723      -1.60369696       0.21256422
H       -1.38114185      -0.15775451      -1.48514957
H       -2.48073716      -0.08720967      -0.12798511
H       -0.36906490       1.65455984      -0.26369983
H       -1.02421583       1.13039965       1.28286162
