14
Frame=0 idx=007122 GeodesicLength=0.0 rxn_smarts="[N:1](=[C:2]1\[O:3][C:4]([H:9])([H:10])[C@@:5]2([H:11])[C:6]([H:12])([H:13])[C@@:7]12[H:14])\[H:8]>>[N:1]1([H:8])[C:2](=[O:3])[C@:7]([C:5](=[C:4]([H:9])[H:10])[H:11])([H:14])[C:6]1([H:12])[H:13]"
N        1.19740090      -1.92127151      -0.21543150
C        1.20525969      -0.73831389       0.35903275
O        2.09391143       0.07430431       0.61371641
C       -0.06029418       1.82344951      -0.37193353
C       -0.75637538       1.00452375       0.43030270
C       -1.05775675      -0.76627178      -0.44913514
C       -0.27889870      -0.41821481       0.68633438
H        2.14554075      -2.18789021      -0.47770543
H        0.81069906       1.47306547      -0.91096418
H       -0.32841572       2.86920259      -0.46320256
H       -1.62193732       1.35466619       0.97850982
H       -0.63402036      -0.62543168      -1.43143176
H       -2.07485970      -1.14676658      -0.38721682
H       -0.64025366      -0.79505141       1.63912488
14
Frame=1 idx=007122 GeodesicLength=0.0814958069644541 rxn_smarts="[N:1](=[C:2]1\[O:3][C:4]([H:9])([H:10])[C@@:5]2([H:11])[C:6]([H:12])([H:13])[C@@:7]12[H:14])\[H:8]>>[N:1]1([H:8])[C:2](=[O:3])[C@:7]([C:5](=[C:4]([H:9])[H:10])[H:11])([H:14])[C:6]1([H:12])[H:13]"
N        1.18747255      -1.90950398      -0.20574352
C        1.19657272      -0.73204070       0.37871798
O        2.07411840       0.11006690       0.58439917
C       -0.02726973       1.81910363      -0.34999773
C       -0.76760945       0.99574570       0.41328666
C       -1.04822445      -0.78298422      -0.44598310
C       -0.28635703      -0.41670964       0.70182754
H        2.12845379      -2.16827867      -0.49818318
H        0.79911399       1.46341040      -0.95163772
H       -0.26696590       2.87438831      -0.40977602
H       -1.64034123       1.35295413       0.94535077
H       -0.64098299      -0.63283764      -1.43410584
H       -2.05767809      -1.18317208      -0.38258394
H       -0.65030258      -0.79014215       1.65442892
14
Frame=2 idx=007122 GeodesicLength=0.16291030106356555 rxn_smarts="[N:1](=[C:2]1\[O:3][C:4]([H:9])([H:10])[C@@:5]2([H:11])[C:6]([H:12])([H:13])[C@@:7]12[H:14])\[H:8]>>[N:1]1([H:8])[C:2](=[O:3])[C@:7]([C:5](=[C:4]([H:9])[H:10])[H:11])([H:14])[C:6]1([H:12])[H:13]"
N        1.17735629      -1.89847239      -0.19612251
C        1.18868864      -0.72521110       0.39572762
O        2.05451745       0.14277455       0.55502369
C        0.00410416       1.81395861      -0.32935309
C       -0.77733544       0.98736088       0.39549706
C       -1.03834950      -0.79900080      -0.44312708
C       -0.29286673      -0.41447159       0.71612298
H        2.11042515      -2.15200344      -0.51563683
H        0.78781334       1.46039209      -0.98660870
H       -0.21020833       2.87636856      -0.35756410
H       -1.65678273       1.35135334       0.91166485
H       -0.64859156      -0.64056210      -1.43725576
H       -2.03993287      -1.21815271      -0.37716595
H       -0.65883787      -0.78433390       1.66879783
14
Frame=3 idx=007122 GeodesicLength=0.24428668004903806 rxn_smarts="[N:1](=[C:2]1\[O:3][C:4]([H:9])([H:10])[C@@:5]2([H:11])[C:6]([H:12])([H:13])[C@@:7]12[H:14])\[H:8]>>[N:1]1([H:8])[C:2](=[O:3])[C@:7]([C:5](=[C:4]([H:9])[H:10])[H:11])([H:14])[C:6]1([H:12])[H:13]"
N        1.16712209      -1.88815740      -0.18664972
C        1.18145899      -0.71801378       0.41052828
O        2.03520831       0.17272817       0.52584334
C        0.03360862       1.80825510      -0.31021190
C       -0.78561420       0.97934327       0.37722041
C       -1.02822028      -0.81434505      -0.44050095
C       -0.29859418      -0.41160915       0.72940783
H        2.09173899      -2.13865359      -0.53070568
H        0.77734430       1.46306801      -1.01660006
H       -0.15790200       2.87574629      -0.30659336
H       -1.67145737       1.34981728       0.87763507
H       -0.65677386      -0.64865522      -1.44074870
H       -2.02177028      -1.25173100      -0.37099864
H       -0.66614912      -0.77779293       1.68237407
14
Frame=4 idx=007122 GeodesicLength=0.32570975907476707 rxn_smarts="[N:1](=[C:2]1\[O:3][C:4]([H:9])([H:10])[C@@:5]2([H:11])[C:6]([H:12])([H:13])[C@@:7]12[H:14])\[H:8]>>[N:1]1([H:8])[C:2](=[O:3])[C@:7]([C:5](=[C:4]([H:9])[H:10])[H:11])([H:14])[C:6]1([H:12])[H:13]"
N        1.15688238      -1.87838585      -0.17714703
C        1.17475615      -0.71045447       0.42358399
O        2.01620379       0.20034035       0.49671703
C        0.06114567       1.80210143      -0.29267708
C       -0.79260808       0.97160657       0.35860539
C       -1.01786205      -0.82902414      -0.43809486
C       -0.30367514      -0.40817396       0.74180578
H        2.07262474      -2.12772219      -0.54362243
H        0.76725441       1.47023793      -1.04288941
H       -0.10902546       2.87291937      -0.25601670
H       -1.68457657       1.34823426       0.84331191
H       -0.66539651      -0.65719742      -1.44448097
H       -2.00326160      -1.28383907      -0.36429242
H       -0.67246173      -0.77064281       1.69519680
14
Frame=5 idx=007122 GeodesicLength=0.4071468030111609 rxn_smarts="[N:1](=[C:2]1\[O:3][C:4]([H:9])([H:10])[C@@:5]2([H:11])[C:6]([H:12])([H:13])[C@@:7]12[H:14])\[H:8]>>[N:1]1([H:8])[C:2](=[O:3])[C@:7]([C:5](=[C:4]([H:9])[H:10])[H:11])([H:14])[C:6]1([H:12])[H:13]"
N        1.14660201      -1.86921886      -0.16775861
C        1.16851742      -0.70274848       0.43510635
O        1.99755583       0.22571473       0.46794949
C        0.08695324       1.79573907      -0.27649871
C       -0.79832459       0.96411451       0.33991818
C       -1.00734335      -0.84299132      -0.43589262
C       -0.30817489      -0.40428808       0.75343919
H        2.05314952      -2.11903498      -0.55485092
H        0.75824372       1.48156605      -1.06555006
H       -0.06418160       2.86809459      -0.20680094
H       -1.69614662       1.34659240       0.80902675
H       -0.67444043      -0.66599848      -1.44838000
H       -1.98450167      -1.31449888      -0.35707727
H       -0.67790858      -0.76304228       1.70736916
14
Frame=6 idx=007122 GeodesicLength=0.48864725018648103 rxn_smarts="[N:1](=[C:2]1\[O:3][C:4]([H:9])([H:10])[C@@:5]2([H:11])[C:6]([H:12])([H:13])[C@@:7]12[H:14])\[H:8]>>[N:1]1([H:8])[C:2](=[O:3])[C@:7]([C:5](=[C:4]([H:9])[H:10])[H:11])([H:14])[C:6]1([H:12])[H:13]"
N        1.13635581      -1.86055357      -0.15839531
C        1.16266221      -0.69487703       0.44534790
O        1.97925250       0.24917009       0.43940867
C        0.11111559       1.78927845      -0.26165239
C       -0.80295890       0.95681932       0.32116774
C       -0.99670802      -0.85633364      -0.43387333
C       -0.31219834      -0.39996978       0.76437872
H        2.03343331      -2.11225046      -0.56459842
H        0.75002176       1.49635092      -1.08532630
H       -0.02252633       2.86155810      -0.15831777
H       -1.70641744       1.34485536       0.77469926
H       -0.68387141      -0.67516653      -1.45238188
H       -1.96552478      -1.34387717      -0.34940289
H       -0.68263594      -0.75500406       1.71894601
14
Frame=7 idx=007122 GeodesicLength=0.5702155865839929 rxn_smarts="[N:1](=[C:2]1\[O:3][C:4]([H:9])([H:10])[C@@:5]2([H:11])[C:6]([H:12])([H:13])[C@@:7]12[H:14])\[H:8]>>[N:1]1([H:8])[C:2](=[O:3])[C@:7]([C:5](=[C:4]([H:9])[H:10])[H:11])([H:14])[C:6]1([H:12])[H:13]"
N        1.12616356      -1.85234258      -0.14905581
C        1.15713749      -0.68690094       0.45449420
O        1.96128487       0.27086891       0.41110939
C        0.13381813       1.78281840      -0.24797441
C       -0.80660256       0.94967604       0.30242310
C       -0.98598426      -0.86907614      -0.43202167
C       -0.31580132      -0.39527084       0.77469256
H        2.01351416      -2.10712485      -0.57310321
H        0.74261384       1.51417536      -1.10250396
H        0.01609910       2.85345639      -0.11068702
H       -1.71547861       1.34299766       0.74039370
H       -0.69366116      -0.68467009      -1.45642385
H       -1.94637032      -1.37201697      -0.34131954
H       -0.68673290      -0.74659036       1.72997652
14
Frame=8 idx=007122 GeodesicLength=0.6518474936716736 rxn_smarts="[N:1](=[C:2]1\[O:3][C:4]([H:9])([H:10])[C@@:5]2([H:11])[C:6]([H:12])([H:13])[C@@:7]12[H:14])\[H:8]>>[N:1]1([H:8])[C:2](=[O:3])[C@:7]([C:5](=[C:4]([H:9])[H:10])[H:11])([H:14])[C:6]1([H:12])[H:13]"
N        1.11605244      -1.84452565      -0.13975548
C        1.15189947      -0.67884672       0.46268321
O        1.94364008       0.29097402       0.38302191
C        0.15521468       1.77643388      -0.23533458
C       -0.80935747       0.94265125       0.28371630
C       -0.97520377      -0.88125936      -0.43032919
C       -0.31903704      -0.39022749       0.78442753
H        1.99345231      -2.10346639      -0.58050536
H        0.73596599       1.53467009      -1.11733524
H        0.05195098       2.84392980      -0.06390963
H       -1.72342576       1.34100615       0.70615411
H       -0.70379830      -0.69451066      -1.46046129
H       -1.92707984      -1.39898155      -0.33286786
H       -0.69027376      -0.73784738       1.74049558
14
Frame=9 idx=007122 GeodesicLength=0.7335406425903108 rxn_smarts="[N:1](=[C:2]1\[O:3][C:4]([H:9])([H:10])[C@@:5]2([H:11])[C:6]([H:12])([H:13])[C@@:7]12[H:14])\[H:8]>>[N:1]1([H:8])[C:2](=[O:3])[C@:7]([C:5](=[C:4]([H:9])[H:10])[H:11])([H:14])[C:6]1([H:12])[H:13]"
N        1.10603488      -1.83706809      -0.13051340
C        1.14691737      -0.67074185       0.47000261
O        1.92630365       0.30961955       0.35509824
C        0.17545588       1.77018862      -0.22359984
C       -0.81130606       0.93571555       0.26505462
C       -0.96439629      -0.89292646      -0.42879223
C       -0.32194186      -0.38486977       0.79361355
H        1.97329594      -2.10115247      -0.58689096
H        0.73005723       1.55758295      -1.12997908
H        0.08519504       2.83310453      -0.01800489
H       -1.73033431       1.33886770       0.67200971
H       -0.71428661      -0.70468594      -1.46445952
H       -1.90769066      -1.42483637      -0.32407172
H       -0.69330421      -0.72879795       1.75053291
14
Frame=10 idx=007122 GeodesicLength=0.8152894242481452 rxn_smarts="[N:1](=[C:2]1\[O:3][C:4]([H:9])([H:10])[C@@:5]2([H:11])[C:6]([H:12])([H:13])[C@@:7]12[H:14])\[H:8]>>[N:1]1([H:8])[C:2](=[O:3])[C@:7]([C:5](=[C:4]([H:9])[H:10])[H:11])([H:14])[C:6]1([H:12])[H:13]"
N        1.09613936      -1.82991187      -0.12132374
C        1.14216061      -0.66257766       0.47653719
O        1.90924668       0.32694705       0.32726733
C        0.19464237       1.76411907      -0.21269292
C       -0.81254093       0.92884450       0.24642565
C       -0.95358281      -0.90412793      -0.42740716
C       -0.32455669      -0.37921476       0.80227333
H        1.95309405      -2.10003449      -0.59233045
H        0.72477353       1.58264611      -1.14060575
H        0.11614144       2.82105840       0.02713001
H       -1.73628801       1.33657646       0.63796899
H       -0.72511713      -0.71522975      -1.46838687
H       -1.88823839      -1.44963548      -0.31496212
H       -0.69587407      -0.71945965       1.76010651
14
Frame=11 idx=007122 GeodesicLength=0.8971034236688413 rxn_smarts="[N:1](=[C:2]1\[O:3][C:4]([H:9])([H:10])[C@@:5]2([H:11])[C:6]([H:12])([H:13])[C@@:7]12[H:14])\[H:8]>>[N:1]1([H:8])[C:2](=[O:3])[C@:7]([C:5](=[C:4]([H:9])[H:10])[H:11])([H:14])[C:6]1([H:12])[H:13]"
N        1.08635195      -1.82304746      -0.11222333
C        1.13761363      -0.65437499       0.48228748
O        1.89244428       0.34304695       0.29940922
C        0.21289846       1.75827453      -0.20248912
C       -0.81311714       0.92201731       0.22779563
C       -0.94279337      -0.91489966      -0.42618042
C       -0.32689120      -0.37327699       0.81040253
H        1.93290936      -2.10012322      -0.59675884
H        0.72010071       1.60978417      -1.14926655
H        0.14486848       2.80787478       0.07153125
H       -1.74134023       1.33411590       0.60402070
H       -0.73632704      -0.72612762      -1.47222359
H       -1.86874278      -1.47344909      -0.30553384
H       -0.69797513      -0.70981463       1.76922887
14
Frame=12 idx=007122 GeodesicLength=0.9789727174277459 rxn_smarts="[N:1](=[C:2]1\[O:3][C:4]([H:9])([H:10])[C@@:5]2([H:11])[C:6]([H:12])([H:13])[C@@:7]12[H:14])\[H:8]>>[N:1]1([H:8])[C:2](=[O:3])[C@:7]([C:5](=[C:4]([H:9])[H:10])[H:11])([H:14])[C:6]1([H:12])[H:13]"
N        1.07670638      -1.81642118      -0.10318715
C        1.13325635      -0.64610928       0.48732656
O        1.87585908       0.35803844       0.27145685
C        0.23029128       1.75267039      -0.19294389
C       -0.81310976       0.91521884       0.20914691
C       -0.93203765      -0.92529224      -0.42510786
C       -0.32898208      -0.36706509       0.81802093
H        1.91277083      -2.10127064      -0.60026344
H        0.71592151       1.63877290      -1.15606015
H        0.17167884       2.79358227       0.11529363
H       -1.74556332       1.33149129       0.57016304
H       -0.74789409      -0.73742926      -1.47594115
H       -1.84923871      -1.49631390      -0.29581866
H       -0.69965866      -0.69987254       1.77791436
14
Frame=13 idx=007122 GeodesicLength=1.0609009538839866 rxn_smarts="[N:1](=[C:2]1\[O:3][C:4]([H:9])([H:10])[C@@:5]2([H:11])[C:6]([H:12])([H:13])[C@@:7]12[H:14])\[H:8]>>[N:1]1([H:8])[C:2](=[O:3])[C@:7]([C:5](=[C:4]([H:9])[H:10])[H:11])([H:14])[C:6]1([H:12])[H:13]"
N        1.06720571      -1.81001064      -0.09422421
C        1.12907856      -0.63778038       0.49167085
O        1.85945390       0.37199989       0.24331896
C        0.24690766       1.74732826      -0.18397561
C       -0.81256293       0.90843425       0.19044566
C       -0.92133206      -0.93534439      -0.42418883
C       -0.33084211      -0.36058625       0.82513002
H        1.89271165      -2.10342854      -0.60284848
H        0.71220076       1.66951628      -1.16099568
H        0.19669790       2.77821262       0.15845539
H       -1.74900634       1.32869659       0.53636750
H       -0.75983394      -0.74914725      -1.47951426
H       -1.82974827      -1.51827485      -0.28581541
H       -0.70093050      -0.68961559       1.78617410
14
Frame=14 idx=007122 GeodesicLength=1.1428897196550936 rxn_smarts="[N:1](=[C:2]1\[O:3][C:4]([H:9])([H:10])[C@@:5]2([H:11])[C:6]([H:12])([H:13])[C@@:7]12[H:14])\[H:8]>>[N:1]1([H:8])[C:2](=[O:3])[C@:7]([C:5](=[C:4]([H:9])[H:10])[H:11])([H:14])[C:6]1([H:12])[H:13]"
N        1.05786367      -1.80377632      -0.08533558
C        1.12506866      -0.62936767       0.49533906
O        1.84318129       0.38501738       0.21490883
C        0.26280371       1.74225857      -0.17553765
C       -0.81152672       0.90165248       0.17166023
C       -0.91068842      -0.94509373      -0.42342486
C       -0.33249022      -0.35384349       0.83172977
H        1.87277226      -2.10652816      -0.60451288
H        0.70886062       1.70189210      -1.16409510
H        0.22012713       2.76175879       0.20109434
H       -1.75171975       1.32573351       0.50261448
H       -0.77215158      -0.76130599      -1.48291996
H       -1.81029542      -1.53936540      -0.27553359
H       -0.70180523      -0.67903208       1.79401291
14
Frame=15 idx=007122 GeodesicLength=1.2249558172050632 rxn_smarts="[N:1](=[C:2]1\[O:3][C:4]([H:9])([H:10])[C@@:5]2([H:11])[C:6]([H:12])([H:13])[C@@:7]12[H:14])\[H:8]>>[N:1]1([H:8])[C:2](=[O:3])[C@:7]([C:5](=[C:4]([H:9])[H:10])[H:11])([H:14])[C:6]1([H:12])[H:13]"
N        1.04867761      -1.79769990      -0.07653009
C        1.12122272      -0.62086569       0.49832781
O        1.82699119       0.39714922       0.18611804
C        0.27805121       1.73747177      -0.16755987
C       -0.81002840       0.89486467       0.15275626
C       -0.90011852      -0.95456915      -0.42282067
C       -0.33393218      -0.34683985       0.83781345
H        1.85299085      -2.11055007      -0.60521949
H        0.70585737       1.73584778      -1.16532807
H        0.24206467       2.74422087       0.24324331
H       -1.75373592       1.32260040       0.46887467
H       -0.78486766      -0.77390857      -1.48613704
H       -1.79089218      -1.55962255      -0.26497161
H       -0.70228076      -0.66809893       1.80143330
14
Frame=16 idx=007122 GeodesicLength=1.3070661778526729 rxn_smarts="[N:1](=[C:2]1\[O:3][C:4]([H:9])([H:10])[C@@:5]2([H:11])[C:6]([H:12])([H:13])[C@@:7]12[H:14])\[H:8]>>[N:1]1([H:8])[C:2](=[O:3])[C@:7]([C:5](=[C:4]([H:9])[H:10])[H:11])([H:14])[C:6]1([H:12])[H:13]"
N        1.03967362      -1.79171457      -0.06785455
C        1.11752790      -0.61225893       0.50067652
O        1.81083018       0.40848435       0.15700366
C        0.29268588       1.73294612      -0.16003434
C       -0.80810890       0.88806584       0.13375778
C       -0.88962939      -0.96378691      -0.42238572
C       -0.33519399      -0.33959897       0.84339296
H        1.83343631      -2.11537096      -0.60499885
H        0.70314012       1.77113828      -1.16469828
H        0.26266425       2.72560627       0.28477982
H       -1.75506790       1.31931902       0.43525550
H       -0.79798067      -0.78693841      -1.48914455
H       -1.77158959      -1.57901944      -0.25418240
H       -0.70238781      -0.65687170       1.80843245
