17
Frame=0 idx=008493 GeodesicLength=0.0 rxn_smarts="[C:1]([C@@:2]1([H:11])[C:3]([H:12])([H:13])[C@@:4]2([H:14])[O:5][C:6]([H:15])([H:16])[C@@:7]12[H:17])([H:8])([H:9])[H:10]>>[C:1]([C@@:2]1([H:11])[C:3]([H:12])([H:13])[C:6]([H:15])([H:16])[O:5][C:4]([H:14])=[C:7]1[H:17])([H:8])([H:9])[H:10]"
C        1.79659376      -0.72617881       0.07614457
C        0.82678383       0.37294907       0.45989976
C        0.10908897       1.05193666      -0.67622995
C       -1.60204351       0.59822736       0.51835269
O       -2.29785191      -0.11147913      -0.36500184
C       -1.20753067      -0.88093400      -0.82415770
C       -0.43632824       0.01643448       1.15714388
H        2.13474470      -1.28490872       0.95125424
H        2.67626493      -0.31493090      -0.42456162
H        1.30754293      -1.43038657      -0.60265377
H        1.37333222       1.11379120       1.06857768
H       -0.06032002       2.11607445      -0.52475316
H        0.38928011       0.85078104      -1.70691365
H       -2.25949169       1.30843680       1.03850877
H       -1.04943649      -0.76603649      -1.89056198
H       -1.26735423      -1.92132780      -0.51297023
H       -0.43327470       0.00755142       2.25792238
17
Frame=1 idx=008493 GeodesicLength=0.0518882470101506 rxn_smarts="[C:1]([C@@:2]1([H:11])[C:3]([H:12])([H:13])[C@@:4]2([H:14])[O:5][C:6]([H:15])([H:16])[C@@:7]12[H:17])([H:8])([H:9])[H:10]>>[C:1]([C@@:2]1([H:11])[C:3]([H:12])([H:13])[C:6]([H:15])([H:16])[O:5][C:4]([H:14])=[C:7]1[H:17])([H:8])([H:9])[H:10]"
C        1.79922192      -0.72209419       0.07759220
C        0.82163686       0.37157287       0.45805359
C        0.10064023       1.04549067      -0.68175184
C       -1.59787601       0.61298923       0.52255484
O       -2.29345232      -0.09485178      -0.36833909
C       -1.20385921      -0.87254143      -0.81818216
C       -0.44276732       0.00383585       1.15218090
H        2.13856452      -1.27763347       0.95430121
H        2.67725897      -0.30521363      -0.42138676
H        1.32075657      -1.43177807      -0.60282232
H        1.36228448       1.11506331       1.06755765
H       -0.05609863       2.11327471      -0.54110076
H        0.39495461       0.84608351      -1.70908235
H       -2.25586689       1.31373772       1.05273292
H       -1.05299266      -0.77985235      -1.88819697
H       -1.27446066      -1.91234168      -0.50565882
H       -0.43794445      -0.02574127       2.25154777
17
Frame=2 idx=008493 GeodesicLength=0.10376392722043215 rxn_smarts="[C:1]([C@@:2]1([H:11])[C:3]([H:12])([H:13])[C@@:4]2([H:14])[O:5][C:6]([H:15])([H:16])[C@@:7]12[H:17])([H:8])([H:9])[H:10]>>[C:1]([C@@:2]1([H:11])[C:3]([H:12])([H:13])[C:6]([H:15])([H:16])[O:5][C:4]([H:14])=[C:7]1[H:17])([H:8])([H:9])[H:10]"
C        1.80177760      -0.71800220       0.07910893
C        0.81653276       0.37022546       0.45623505
C        0.09229252       1.03914802      -0.68723608
C       -1.59335532       0.62740505       0.52694790
O       -2.28891819      -0.07851029      -0.37137826
C       -1.20028500      -0.86426936      -0.81245228
C       -0.44919054      -0.00860913       1.14713766
H        2.14214801      -1.27039657       0.95743579
H        2.67819803      -0.29553780      -0.41807851
H        1.33396511      -1.43298788      -0.60293859
H        1.35132515       1.11628980       1.06655031
H       -0.05198309       2.11028671      -0.55740029
H        0.40053662       0.84142678      -1.71106320
H       -2.25185065       1.31882763       1.06671460
H       -1.05691305      -0.79340101      -1.88557536
H       -1.28156214      -1.90342023      -0.49872386
H       -0.44271782      -0.05847501       2.24471619
17
Frame=3 idx=008493 GeodesicLength=0.1556189157150239 rxn_smarts="[C:1]([C@@:2]1([H:11])[C:3]([H:12])([H:13])[C@@:4]2([H:14])[O:5][C:6]([H:15])([H:16])[C@@:7]12[H:17])([H:8])([H:9])[H:10]>>[C:1]([C@@:2]1([H:11])[C:3]([H:12])([H:13])[C:6]([H:15])([H:16])[O:5][C:4]([H:14])=[C:7]1[H:17])([H:8])([H:9])[H:10]"
C        1.80425232      -0.71391648       0.08068644
C        0.81147312       0.36890235       0.45444110
C        0.08403776       1.03291530      -0.69267386
C       -1.58849671       0.64146797       0.53151801
O       -2.28425654      -0.06247080      -0.37413396
C       -1.19678639      -0.85612586      -0.80696334
C       -0.45559892      -0.02089128       1.14202008
H        2.14548901      -1.26321305       0.96064901
H        2.67907341      -0.28592522      -0.41465377
H        1.34715862      -1.43403513      -0.60300451
H        1.34047332       1.11746296       1.06554528
H       -0.04798901       2.10712260      -0.57361200
H        0.40601950       0.83683285      -1.71285622
H       -2.24747088       1.32370691       1.08044501
H       -1.06116885      -0.80667252      -1.88271323
H       -1.28862779      -1.89457235      -0.49215260
H       -0.44758196      -0.09058823       2.23745855
17
Frame=4 idx=008493 GeodesicLength=0.20746844130763437 rxn_smarts="[C:1]([C@@:2]1([H:11])[C:3]([H:12])([H:13])[C@@:4]2([H:14])[O:5][C:6]([H:15])([H:16])[C@@:7]12[H:17])([H:8])([H:9])[H:10]>>[C:1]([C@@:2]1([H:11])[C:3]([H:12])([H:13])[C:6]([H:15])([H:16])[O:5][C:4]([H:14])=[C:7]1[H:17])([H:8])([H:9])[H:10]"
C        1.80665527      -0.70983092       0.08232516
C        0.80645831       0.36760471       0.45266878
C        0.07587239       1.02678540      -0.69807231
C       -1.58331014       0.65519219       0.53625220
O       -2.27948160      -0.04671473      -0.37662188
C       -1.19336572      -0.84811410      -0.80170368
C       -0.46199443      -0.03300764       1.13682460
H        2.14860131      -1.25607381       0.96394224
H        2.67989353      -0.27635903      -0.41110640
H        1.36035033      -1.43491675      -0.60301975
H        1.32972481       1.11859056       1.06453796
H       -0.04411658       2.10378662      -0.58974209
H        0.41140673       0.83228863      -1.71447157
H       -2.24272473       1.32840520       1.09393300
H       -1.06575455      -0.81967940      -1.87962041
H       -1.29567774      -1.88579821      -0.48591362
H       -0.45253720      -0.12215872       2.22978779
17
Frame=5 idx=008493 GeodesicLength=0.2593033100699279 rxn_smarts="[C:1]([C@@:2]1([H:11])[C:3]([H:12])([H:13])[C@@:4]2([H:14])[O:5][C:6]([H:15])([H:16])[C@@:7]12[H:17])([H:8])([H:9])[H:10]>>[C:1]([C@@:2]1([H:11])[C:3]([H:12])([H:13])[C:6]([H:15])([H:16])[O:5][C:4]([H:14])=[C:7]1[H:17])([H:8])([H:9])[H:10]"
C        1.80897528      -0.70575963       0.08401540
C        0.80148977       0.36632929       0.45091609
C        0.06778791       1.02076564      -0.70342241
C       -1.57781156       0.66857144       0.54113540
O       -2.27460037      -0.03126614      -0.37885091
C       -1.19000024      -0.84024235      -0.79666575
C       -0.46837851      -0.04494687       1.13155958
H        2.15146540      -1.24900974       0.96729936
H        2.68065217      -0.26686114      -0.40744468
H        1.37353215      -1.43564045      -0.60300164
H        1.31909879       1.11966527       1.06351993
H       -0.04038134       2.10029275      -0.60575430
H        0.41669295       0.82781714      -1.71590795
H       -2.23763970       1.33292514       1.10716319
H       -1.07064081      -0.83241291      -1.87630812
H       -1.30267074      -1.87710765      -0.47998958
H       -0.45757115      -0.15311978       2.22173640
17
Frame=6 idx=008493 GeodesicLength=0.31113831990174945 rxn_smarts="[C:1]([C@@:2]1([H:11])[C:3]([H:12])([H:13])[C@@:4]2([H:14])[O:5][C:6]([H:15])([H:16])[C@@:7]12[H:17])([H:8])([H:9])[H:10]>>[C:1]([C@@:2]1([H:11])[C:3]([H:12])([H:13])[C:6]([H:15])([H:16])[O:5][C:4]([H:14])=[C:7]1[H:17])([H:8])([H:9])[H:10]"
C        1.81122086      -0.70169911       0.08575833
C        0.79656795       0.36507579       0.44917862
C        0.05978070       1.01484901      -0.70873069
C       -1.57200995       0.68161690       0.54615807
O       -2.26962548      -0.01610815      -0.38083500
C       -1.18669145      -0.83251073      -0.79184226
C       -0.47475215      -0.05670719       1.12622127
H        2.15409847      -1.24200691       0.97072562
H        2.68135664      -0.25742010      -0.40366471
H        1.38671407      -1.43621074      -0.60294193
H        1.30859154       1.12069234       1.06248601
H       -0.03678408       2.09664498      -0.62165453
H        0.42188264       0.82340697      -1.71717350
H       -2.23221763       1.33728580       1.12014916
H       -1.07582807      -0.84487943      -1.87278898
H       -1.30962236      -1.86849758      -0.47435814
H       -0.46268172      -0.18353184       2.21331266
17
Frame=7 idx=008493 GeodesicLength=0.3629869382168936 rxn_smarts="[C:1]([C@@:2]1([H:11])[C:3]([H:12])([H:13])[C@@:4]2([H:14])[O:5][C:6]([H:15])([H:16])[C@@:7]12[H:17])([H:8])([H:9])[H:10]>>[C:1]([C@@:2]1([H:11])[C:3]([H:12])([H:13])[C:6]([H:15])([H:16])[O:5][C:4]([H:14])=[C:7]1[H:17])([H:8])([H:9])[H:10]"
C        1.81340406      -0.69764544       0.08755369
C        0.79169517       0.36384418       0.44745262
C        0.05184801       1.00902802      -0.71400373
C       -1.56591134       0.69433834       0.55130917
O       -2.26456696      -0.00122113      -0.38258926
C       -1.18344536      -0.82491808      -0.78722383
C       -0.48111694      -0.06828805       1.12080623
H        2.15651494      -1.23505690       0.97422356
H        2.68201856      -0.24802196      -0.39975921
H        1.39991179      -1.43662868      -0.60283771
H        1.29820319       1.12167793       1.06143199
H       -0.03333167       2.09284581      -0.63745187
H        0.42697877       0.81904773      -1.71827776
H       -2.22645799       1.34150150       1.13290639
H       -1.08130982      -0.85708778      -1.86906752
H       -1.31655938      -1.85996375      -0.46899592
H       -0.46787505      -0.21345175       2.20452317
17
Frame=8 idx=008493 GeodesicLength=0.4148663456742929 rxn_smarts="[C:1]([C@@:2]1([H:11])[C:3]([H:12])([H:13])[C@@:4]2([H:14])[O:5][C:6]([H:15])([H:16])[C@@:7]12[H:17])([H:8])([H:9])[H:10]>>[C:1]([C@@:2]1([H:11])[C:3]([H:12])([H:13])[C:6]([H:15])([H:16])[O:5][C:4]([H:14])=[C:7]1[H:17])([H:8])([H:9])[H:10]"
C        1.81552874      -0.69359095       0.08940738
C        0.78687057       0.36263829       0.44573644
C        0.04398607       1.00329643      -0.71924681
C       -1.55952404       0.70675561       0.55657594
O       -2.25943490       0.01340886      -0.38412554
C       -1.18026044      -0.81746513      -0.78280013
C       -0.48747095      -0.07968570       1.11531375
H        2.15872478      -1.22814360       0.97780188
H        2.68263788      -0.23865450      -0.39572527
H        1.41312820      -1.43689430      -0.60267253
H        1.28792794       1.12263154       1.06035195
H       -0.03001812       2.08890127      -0.65315618
H        0.43198139       0.81472353      -1.71923044
H       -2.22035495       1.34559473       1.14545002
H       -1.08708923      -0.86904826      -1.86516410
H       -1.32349338      -1.85150438      -0.46388310
H       -0.47313956      -0.24296345       2.19536673
17
Frame=9 idx=008493 GeodesicLength=0.4667654064175311 rxn_smarts="[C:1]([C@@:2]1([H:11])[C:3]([H:12])([H:13])[C@@:4]2([H:14])[O:5][C:6]([H:15])([H:16])[C@@:7]12[H:17])([H:8])([H:9])[H:10]>>[C:1]([C@@:2]1([H:11])[C:3]([H:12])([H:13])[C:6]([H:15])([H:16])[O:5][C:4]([H:14])=[C:7]1[H:17])([H:8])([H:9])[H:10]"
C        1.81758824      -0.68955290       0.09130750
C        0.78209796       0.36145077       0.44402900
C        0.03618904       0.99765922      -0.72444943
C       -1.55286059       0.71884729       0.56195121
O       -2.25423160       0.02776442      -0.38545709
C       -1.17711832      -0.81015658      -0.77856923
C       -0.49381838      -0.09089607       1.10974983
H        2.16072737      -1.22128319       0.98144742
H        2.68320282      -0.22934430      -0.39159231
H        1.42635484      -1.43702473      -0.60245542
H        1.27778689       1.12354151       1.05924249
H       -0.02686195       2.08481971      -0.66872689
H        0.43688429       0.81046324      -1.72002578
H       -2.21393579       1.34956065       1.15776310
H       -1.09312674      -0.88074727      -1.86107581
H       -1.33039487      -1.84312370      -0.45900936
H       -0.47848321      -0.27197808       2.18587077
17
Frame=10 idx=008493 GeodesicLength=0.5186955001420944 rxn_smarts="[C:1]([C@@:2]1([H:11])[C:3]([H:12])([H:13])[C@@:4]2([H:14])[O:5][C:6]([H:15])([H:16])[C@@:7]12[H:17])([H:8])([H:9])[H:10]>>[C:1]([C@@:2]1([H:11])[C:3]([H:12])([H:13])[C:6]([H:15])([H:16])[O:5][C:4]([H:14])=[C:7]1[H:17])([H:8])([H:9])[H:10]"
C        1.81958940      -0.68552608       0.09325539
C        0.77737694       0.36028349       0.44232865
C        0.02845380       0.99211188      -0.72961627
C       -1.54592988       0.73062733       0.56742546
O       -2.24896902       0.04185915      -0.38659810
C       -1.17402151      -0.80299324      -0.77452456
C       -0.50016013      -0.10191633       1.10411431
H        2.16253087      -1.21447067       0.98516144
H        2.68372245      -0.22007637      -0.38734935
H        1.43960261      -1.43701807      -0.60218435
H        1.26777740       1.12441700       1.05809806
H       -0.02386018       2.08061032      -0.68417411
H        0.44168927       0.80625737      -1.72067327
H       -2.20719549       1.35341988       1.16986113
H       -1.09941830      -0.89220413      -1.85680861
H       -1.33728403      -1.83481846      -0.45435222
H       -0.48390420      -0.30056307       2.17603641
17
Frame=11 idx=008493 GeodesicLength=0.57066655658479 rxn_smarts="[C:1]([C@@:2]1([H:11])[C:3]([H:12])([H:13])[C@@:4]2([H:14])[O:5][C:6]([H:15])([H:16])[C@@:7]12[H:17])([H:8])([H:9])[H:10]>>[C:1]([C@@:2]1([H:11])[C:3]([H:12])([H:13])[C:6]([H:15])([H:16])[O:5][C:4]([H:14])=[C:7]1[H:17])([H:8])([H:9])[H:10]"
C        1.82154021      -0.68150336       0.09525342
C        0.77270766       0.35913794       0.44063430
C        0.02077597       0.98664649      -0.73475103
C       -1.53874274       0.74212113       0.57297645
O       -2.24364932       0.05571287      -0.38756007
C       -1.17098178      -0.79597508      -0.77064167
C       -0.50649571      -0.11274707       1.09841020
H        2.16415584      -1.20768637       0.98894908
H        2.68419792      -0.21083855      -0.38299949
H        1.45287754      -1.43687284      -0.60184995
H        1.25789612       1.12526451       1.05691509
H       -0.02101015       2.07627487      -0.69950386
H        0.44639705       0.80209034      -1.72117775
H       -2.20013612       1.35719457       1.18174865
H       -1.10594907      -0.90342589      -1.85237687
H       -1.34418832      -1.82658806      -0.44988735
H       -0.48939510      -0.32880549       2.16586085
17
Frame=12 idx=008493 GeodesicLength=0.622670027586128 rxn_smarts="[C:1]([C@@:2]1([H:11])[C:3]([H:12])([H:13])[C@@:4]2([H:14])[O:5][C:6]([H:15])([H:16])[C@@:7]12[H:17])([H:8])([H:9])[H:10]>>[C:1]([C@@:2]1([H:11])[C:3]([H:12])([H:13])[C:6]([H:15])([H:16])[O:5][C:4]([H:14])=[C:7]1[H:17])([H:8])([H:9])[H:10]"
C        1.82342775      -0.67750313       0.09729029
C        0.76809222       0.35800932       0.43894452
C        0.01315026       0.98127087      -0.73984358
C       -1.53131227       0.75330380       0.57860640
O       -2.23828310       0.06929645      -0.38835231
C       -1.16796898      -0.78910433      -0.76693106
C       -0.51282674      -0.12337716       1.09264364
H        2.16557588      -1.20096823       0.99279109
H        2.68462426      -0.20165647      -0.37854744
H        1.46617161      -1.43660060      -0.60146836
H        1.24816265       1.12607475       1.05568799
H       -0.01832705       2.07182878      -0.71468676
H        0.45100147       0.79799097      -1.72153712
H       -2.19278334       1.36087330       1.19342013
H       -1.11269698      -0.91440704      -1.84777976
H       -1.35105533      -1.81843270      -0.44561015
H       -0.49495230      -0.35659856       2.15537248
17
Frame=13 idx=008493 GeodesicLength=0.6746948990442256 rxn_smarts="[C:1]([C@@:2]1([H:11])[C:3]([H:12])([H:13])[C@@:4]2([H:14])[O:5][C:6]([H:15])([H:16])[C@@:7]12[H:17])([H:8])([H:9])[H:10]>>[C:1]([C@@:2]1([H:11])[C:3]([H:12])([H:13])[C:6]([H:15])([H:16])[O:5][C:4]([H:14])=[C:7]1[H:17])([H:8])([H:9])[H:10]"
C        1.82523999      -0.67353781       0.09935527
C        0.76353228       0.35689804       0.43725797
C        0.00556927       0.97599390      -0.74488688
C       -1.52365476       0.76417831       0.58429918
O       -2.23287262       0.08259140      -0.38898348
C       -1.16496630      -0.78239070      -0.76337916
C       -0.51915498      -0.13379631       1.08682541
H        2.16677286      -1.19434636       0.99667119
H        2.68499557      -0.19255076      -0.37400265
H        1.47947193      -1.43620603      -0.60105820
H        1.23859565       1.12684381       1.05441097
H       -0.01581834       2.06728935      -0.72969259
H        0.45549766       0.79398418      -1.72174968
H       -2.18516651       1.36445717       1.20486045
H       -1.11962667      -0.92514698      -1.84302449
H       -1.35784819      -1.81036799      -0.44150372
H       -0.50056686      -0.38389320       2.14460039
17
Frame=14 idx=008493 GeodesicLength=0.726729020372399 rxn_smarts="[C:1]([C@@:2]1([H:11])[C:3]([H:12])([H:13])[C@@:4]2([H:14])[O:5][C:6]([H:15])([H:16])[C@@:7]12[H:17])([H:8])([H:9])[H:10]>>[C:1]([C@@:2]1([H:11])[C:3]([H:12])([H:13])[C:6]([H:15])([H:16])[O:5][C:4]([H:14])=[C:7]1[H:17])([H:8])([H:9])[H:10]"
C        1.82696371      -0.66962041       0.10143568
C        0.75902843       0.35580344       0.43557523
C       -0.00197346       0.97082359      -0.74987148
C       -1.51578941       0.77474352       0.59004114
O       -2.22742282       0.09557697      -0.38946466
C       -1.16195390      -0.77583957      -0.75997687
C       -0.52548131      -0.14399432       1.08096706
H        2.16772843      -1.18784983       1.00056885
H        2.68530407      -0.18354239      -0.36937578
H        1.49276403      -1.43569691      -0.60063503
H        1.22921081       1.12756704       1.05308063
H       -0.01348830       2.06267479      -0.74449367
H        0.45987996       0.79009347      -1.72181274
H       -2.17731611       1.36794567       1.21605391
H       -1.12670053      -0.93564691      -1.83811659
H       -1.36452911      -1.80240314      -0.43755408
H       -0.50622450      -0.41063502       2.13357841
17
Frame=15 idx=008493 GeodesicLength=0.7787825250162405 rxn_smarts="[C:1]([C@@:2]1([H:11])[C:3]([H:12])([H:13])[C@@:4]2([H:14])[O:5][C:6]([H:15])([H:16])[C@@:7]12[H:17])([H:8])([H:9])[H:10]>>[C:1]([C@@:2]1([H:11])[C:3]([H:12])([H:13])[C:6]([H:15])([H:16])[O:5][C:4]([H:14])=[C:7]1[H:17])([H:8])([H:9])[H:10]"
C        1.82860787      -0.66574755       0.10353402
C        0.75458177       0.35472556       0.43389401
C       -0.00948007       0.96575242      -0.75480244
C       -1.50772351       0.78500971       0.59582228
O       -2.22194048       0.10827038      -0.38980784
C       -1.15893935      -0.76944527      -0.75671584
C       -0.53180608      -0.15397251       1.07506857
H        2.16846006      -1.18146534       1.00448918
H        2.68555462      -0.17462218      -0.36466653
H        1.50605729      -1.43507552      -0.60018862
H        1.22000607       1.12824991       1.05169414
H       -0.01134022       2.05798767      -0.75910281
H        0.46414959       0.78630784      -1.72173344
H       -2.16923169       1.37135229       1.22701594
H       -1.13390906      -0.94591434      -1.83305927
H       -1.37111967      -1.79452968      -0.43374649
H       -0.51192716      -0.43688339       2.12230512
17
Frame=16 idx=008493 GeodesicLength=0.8308435370750856 rxn_smarts="[C:1]([C@@:2]1([H:11])[C:3]([H:12])([H:13])[C@@:4]2([H:14])[O:5][C:6]([H:15])([H:16])[C@@:7]12[H:17])([H:8])([H:9])[H:10]>>[C:1]([C@@:2]1([H:11])[C:3]([H:12])([H:13])[C:6]([H:15])([H:16])[O:5][C:4]([H:14])=[C:7]1[H:17])([H:8])([H:9])[H:10]"
C        1.83016002      -0.66193343       0.10563781
C        0.75019318       0.35366421       0.43221504
C       -0.01695681       0.96078955      -0.75967038
C       -1.49947575       0.79497584       0.60163191
O       -2.21643113       0.12065094      -0.39002340
C       -1.15590225      -0.76321446      -0.75358837
C       -0.53813134      -0.16372143       1.06914139
H        2.16895144      -1.17522544       1.00841109
H        2.68574100      -0.16581273      -0.35988639
H        1.51933742      -1.43434920      -0.59973658
H        1.21099801       1.12888801       1.05024981
H       -0.00938084       2.05324678      -0.77349165
H        0.46830138       0.78265302      -1.72150879
H       -2.16094426       1.37467882       1.23773010
H       -1.14121641      -0.95595217      -1.82785800
H       -1.37757880      -1.78675998      -0.43006932
H       -0.51766486      -0.46257833       2.11081574
