14
Frame=0 idx=006255 GeodesicLength=0.0 rxn_smarts="[C:1]([C@@:2]1([H:10])[C:3]([H:11])([H:12])[C@:4]1([C:5](=[O:6])[H:14])[H:13])([H:7])([H:8])[H:9]>>[C:1]([C@@:2]1([H:10])[C:3]([H:11])([H:12])[C:4]1=[C:5]=[O:6])([H:7])([H:8])[H:9].[H:13][H:14]"
C       -1.47201983      -1.05475068      -0.35406259
C       -0.72410454       0.23582990      -0.57775730
C       -0.33610299       1.11760697       0.60866185
C        0.67293570       0.37174815      -0.16291332
C        1.79810982      -0.38157933       0.08337467
O        2.43584109      -1.29883584      -0.33900454
H       -1.14729839      -1.53302098       0.57199517
H       -2.54689278      -0.87418688      -0.28848533
H       -1.29131334      -1.75616344      -1.16984270
H       -1.00053860       0.78074818      -1.47596332
H       -0.60074887       0.75832059       1.59722425
H       -0.40577212       2.19154673       0.48110686
H        2.15348069       0.99735569       0.12731092
H        2.46442412       0.44538096       0.89835544
14
Frame=1 idx=006255 GeodesicLength=0.0956843088350857 rxn_smarts="[C:1]([C@@:2]1([H:10])[C:3]([H:11])([H:12])[C@:4]1([C:5](=[O:6])[H:14])[H:13])([H:7])([H:8])[H:9]>>[C:1]([C@@:2]1([H:10])[C:3]([H:11])([H:12])[C:4]1=[C:5]=[O:6])([H:7])([H:8])[H:9].[H:13][H:14]"
C       -1.47513286      -1.05367970      -0.35741880
C       -0.72329857       0.23546688      -0.57542465
C       -0.33530358       1.10970443       0.61338607
C        0.67533664       0.36386332      -0.15979391
C        1.79637556      -0.39324882       0.09362128
O        2.43171427      -1.31410610      -0.32285870
H       -1.15691818      -1.53518250       0.56917374
H       -2.54968108      -0.86932026      -0.29622418
H       -1.29470457      -1.75391703      -1.17427661
H       -0.99201799       0.78341592      -1.47399694
H       -0.59983010       0.74780314       1.60097902
H       -0.39909492       2.18461262       0.49148575
H        2.14326039       1.01811310       0.10081484
H        2.47929499       0.47647500       0.89053307
14
Frame=2 idx=006255 GeodesicLength=0.19136152826563776 rxn_smarts="[C:1]([C@@:2]1([H:10])[C:3]([H:11])([H:12])[C@:4]1([C:5](=[O:6])[H:14])[H:13])([H:7])([H:8])[H:9]>>[C:1]([C@@:2]1([H:10])[C:3]([H:11])([H:12])[C:4]1=[C:5]=[O:6])([H:7])([H:8])[H:9].[H:13][H:14]"
C       -1.47814716      -1.05252237      -0.36078916
C       -0.72227227       0.23509918      -0.57301307
C       -0.33442723       1.10177314       0.61821795
C        0.67789999       0.35590976      -0.15642947
C        1.79451449      -0.40525461       0.10432220
O        2.42774066      -1.32927636      -0.30667917
H       -1.16658306      -1.53725793       0.56632949
H       -2.55232631      -0.86426553      -0.30407944
H       -1.29794753      -1.75158904      -1.17870654
H       -0.98316750       0.78606859      -1.47191493
H       -0.59901807       0.73726563       1.60478799
H       -0.39235816       2.17758816       0.50198494
H        2.13218090       1.03878810       0.07393458
H        2.49391125       0.50767327       0.88203464
14
Frame=3 idx=006255 GeodesicLength=0.28703079010497945 rxn_smarts="[C:1]([C@@:2]1([H:10])[C:3]([H:11])([H:12])[C@:4]1([C:5](=[O:6])[H:14])[H:13])([H:7])([H:8])[H:9]>>[C:1]([C@@:2]1([H:10])[C:3]([H:11])([H:12])[C:4]1=[C:5]=[O:6])([H:7])([H:8])[H:9].[H:13][H:14]"
C       -1.48105103      -1.05127393      -0.36417654
C       -0.72100905       0.23472681      -0.57052023
C       -0.33346923       1.09381362       0.62316194
C        0.68064140       0.34789342      -0.15280896
C        1.79249913      -0.41763776       0.11550452
O        2.42390537      -1.34437327      -0.29048518
H       -1.17628179      -1.53924393       0.56345591
H       -2.55481353      -0.85901442      -0.31205338
H       -1.30102943      -1.74917344      -1.18313633
H       -0.97397110       0.78870615      -1.46971209
H       -0.59831607       0.72670979       1.60865367
H       -0.38556417       2.17047394       0.51261072
H        2.12019113       1.05940982       0.04664699
H        2.50826836       0.53898320       0.87285896
14
Frame=4 idx=006255 GeodesicLength=0.38269113329158955 rxn_smarts="[C:1]([C@@:2]1([H:10])[C:3]([H:11])([H:12])[C@:4]1([C:5](=[O:6])[H:14])[H:13])([H:7])([H:8])[H:9]>>[C:1]([C@@:2]1([H:10])[C:3]([H:11])([H:12])[C:4]1=[C:5]=[O:6])([H:7])([H:8])[H:9].[H:13][H:14]"
C       -1.48383089      -1.04992946      -0.36758352
C       -0.71949057       0.23435003      -0.56794376
C       -0.33242420       1.08582735       0.62822246
C        0.68357877       0.33982315      -0.14892132
C        1.79029785      -0.43044257       0.12719549
O        2.42019056      -1.35942508      -0.27429670
H       -1.18600087      -1.54113631       0.56054704
H       -2.55712594      -0.85355907      -0.32014845
H       -1.30393454      -1.74666443      -1.18756903
H       -0.96441199       0.79132853      -1.46738327
H       -0.59772699       0.71613843       1.61257854
H       -0.37871633       2.16327160       0.52336931
H        2.10723339       1.08000881       0.01892977
H        2.52236174       0.57040901       0.86300343
14
Frame=5 idx=006255 GeodesicLength=0.47834165544967294 rxn_smarts="[C:1]([C@@:2]1([H:10])[C:3]([H:11])([H:12])[C@:4]1([C:5](=[O:6])[H:14])[H:13])([H:7])([H:8])[H:9]>>[C:1]([C@@:2]1([H:10])[C:3]([H:11])([H:12])[C:4]1=[C:5]=[O:6])([H:7])([H:8])[H:9].[H:13][H:14]"
C       -1.48647085      -1.04848365      -0.37101170
C       -0.71769666       0.23396916      -0.56528166
C       -0.33128611       1.07781721       0.63340265
C        0.68673234       0.33171094      -0.14475630
C        1.78787369      -0.44371782       0.13942141
O        2.41657659      -1.37445999      -0.25813910
H       -1.19572359      -1.54292933       0.55759805
H       -2.55924432      -0.84789162      -0.32836600
H       -1.30664416      -1.74405687      -1.19200550
H       -0.95447275       0.79393470      -1.46492383
H       -0.59725315       0.70555671       1.61656384
H       -0.37181986       2.15598416       0.53426501
H        2.09324260       1.10061748      -0.00923433
H        2.53618623       0.60194889       0.85246746
14
Frame=6 idx=006255 GeodesicLength=0.5739816408369527 rxn_smarts="[C:1]([C@@:2]1([H:10])[C:3]([H:11])([H:12])[C@:4]1([C:5](=[O:6])[H:14])[H:13])([H:7])([H:8])[H:9]>>[C:1]([C@@:2]1([H:10])[C:3]([H:11])([H:12])[C:4]1=[C:5]=[O:6])([H:7])([H:8])[H:9].[H:13][H:14]"
C       -1.48895314      -1.04693064      -0.37446490
C       -0.71560529       0.23358538      -0.56253082
C       -0.33004797       1.06978487       0.63870859
C        0.69012493       0.32357081      -0.14030223
C        1.78518458      -0.45751546       0.15221278
O        2.41303746      -1.38951425      -0.24202062
H       -1.20543056      -1.54461888       0.55460059
H       -2.56114756      -0.84200400      -0.33670901
H       -1.30913715      -1.74134285      -1.19645072
H       -0.94413529       0.79652654      -1.46232669
H       -0.59689699       0.69496667       1.62061269
H       -0.36488067       2.14861372       0.54530758
H        2.07814524       1.12127101      -0.03787535
H        2.54974241       0.63360709       0.84123812
14
Frame=7 idx=006255 GeodesicLength=0.6696102475580552 rxn_smarts="[C:1]([C@@:2]1([H:10])[C:3]([H:11])([H:12])[C@:4]1([C:5](=[O:6])[H:14])[H:13])([H:7])([H:8])[H:9]>>[C:1]([C@@:2]1([H:10])[C:3]([H:11])([H:12])[C:4]1=[C:5]=[O:6])([H:7])([H:8])[H:9].[H:13][H:14]"
C       -1.49125759      -1.04526414      -0.37794645
C       -0.71319205       0.23319984      -0.55968842
C       -0.32870170       1.06173293       0.64414539
C        0.69378236       0.31542034      -0.13554834
C        1.78218131      -0.47189261       0.16559952
O        2.40954517      -1.40462480      -0.22595016
H       -1.21509852      -1.54620006       0.55154628
H       -2.56281187      -0.83588783      -0.34517906
H       -1.31138998      -1.73851439      -1.20090867
H       -0.93338088       0.79910553      -1.45958474
H       -0.59665996       0.68437173       1.62472700
H       -0.35790649       2.14116347       0.55650586
H        2.06185806       1.14200722      -0.06702010
H        2.56303215       0.66538277       0.82930192
14
Frame=8 idx=006255 GeodesicLength=0.7652266373503236 rxn_smarts="[C:1]([C@@:2]1([H:10])[C:3]([H:11])([H:12])[C@:4]1([C:5](=[O:6])[H:14])[H:13])([H:7])([H:8])[H:9]>>[C:1]([C@@:2]1([H:10])[C:3]([H:11])([H:12])[C:4]1=[C:5]=[O:6])([H:7])([H:8])[H:9].[H:13][H:14]"
C       -1.49336160      -1.04347721      -0.38146121
C       -0.71043003       0.23281436      -0.55675084
C       -0.32723780       1.05366349       0.64972010
C        0.69773420       0.30728025      -0.13048312
C        1.77880715      -0.48691127       0.17961367
O        2.40606671      -1.41983368      -0.20992402
H       -1.22470070      -1.54766876       0.54842438
H       -2.56421108      -0.82953429      -0.35377878
H       -1.31337588      -1.73556146      -1.20538590
H       -0.92219029       0.80167528      -1.45668906
H       -0.59654317       0.67377362       1.62890979
H       -0.35090632       2.13363631       0.56787236
H        2.04428636       1.16286655      -0.09670274
H        2.57606244       0.69727682       0.81663538
14
Frame=9 idx=006255 GeodesicLength=0.8608287671734709 rxn_smarts="[C:1]([C@@:2]1([H:10])[C:3]([H:11])([H:12])[C@:4]1([C:5](=[O:6])[H:14])[H:13])([H:7])([H:8])[H:9]>>[C:1]([C@@:2]1([H:10])[C:3]([H:11])([H:12])[C:4]1=[C:5]=[O:6])([H:7])([H:8])[H:9].[H:13][H:14]"
C       -1.49523955      -1.04156226      -0.38501419
C       -0.70728920       0.23243095      -0.55371427
C       -0.32564513       1.04557905       0.65543981
C        0.70201444       0.29917537      -0.12509560
C        1.77499581      -0.50263977       0.19428664
O        2.40256521      -1.43518473      -0.19393350
H       -1.23420582      -1.54902058       0.54522340
H       -2.56531581      -0.82293396      -0.36251046
H       -1.31506423      -1.73247323      -1.20988908
H       -0.91054371       0.80424019      -1.45362985
H       -0.59654663       0.66317433       1.63316360
H       -0.34389107       2.12603595       0.57942028
H        2.02532227       1.18389200      -0.12695685
H        2.58884341       0.72928668       0.80321006
14
Frame=10 idx=006255 GeodesicLength=0.9564190941510751 rxn_smarts="[C:1]([C@@:2]1([H:10])[C:3]([H:11])([H:12])[C@:4]1([C:5](=[O:6])[H:14])[H:13])([H:7])([H:8])[H:9]>>[C:1]([C@@:2]1([H:10])[C:3]([H:11])([H:12])[C:4]1=[C:5]=[O:6])([H:7])([H:8])[H:9].[H:13][H:14]"
C       -1.49686351      -1.03951070      -0.38861450
C       -0.70373707       0.23205298      -0.55057262
C       -0.32391053       1.03747958       0.66131647
C        0.70666079       0.29113283      -0.11937237
C        1.77067048      -0.51915096       0.20965566
O        2.39899962      -1.45072992      -0.17794040
H       -1.24358027      -1.55025343       0.54192592
H       -2.56609430      -0.81607639      -0.37138085
H       -1.31641988      -1.72923424      -1.21443143
H       -0.89842185       0.80681018      -1.45039194
H       -0.59667054       0.65257038       1.63749372
H       -0.33687084       2.11836390       0.59117247
H        2.00484066       1.20512832      -0.15783507
H        2.60139726       0.76141748       0.78897495
14
Frame=11 idx=006255 GeodesicLength=1.051998809070079 rxn_smarts="[C:1]([C@@:2]1([H:10])[C:3]([H:11])([H:12])[C@:4]1([C:5](=[O:6])[H:14])[H:13])([H:7])([H:8])[H:9]>>[C:1]([C@@:2]1([H:10])[C:3]([H:11])([H:12])[C:4]1=[C:5]=[O:6])([H:7])([H:8])[H:9].[H:13][H:14]"
C       -1.49820185      -1.03731320      -0.39227122
C       -0.69973721       0.23168380      -0.54732007
C       -0.32201837       1.02936594       0.66736097
C        0.71171707       0.28318560      -0.11330195
C        1.76574082      -0.53652494       0.22575420
O        2.39532592      -1.46652128      -0.16190088
H       -1.25278310      -1.55136529       0.53851318
H       -2.56651074      -0.80895032      -0.38039390
H       -1.31740428      -1.72582768      -1.21902658
H       -0.88580598       0.80939580      -1.44695946
H       -0.59691307       0.64195932       1.64190380
H       -0.32985791       2.11062277       0.60315114
H        1.98269910       1.22662166      -0.18938468
H        2.61374960       0.79366782       0.77387545
14
Frame=12 idx=006255 GeodesicLength=1.1475701686382036 rxn_smarts="[C:1]([C@@:2]1([H:10])[C:3]([H:11])([H:12])[C@:4]1([C:5](=[O:6])[H:14])[H:13])([H:7])([H:8])[H:9]>>[C:1]([C@@:2]1([H:10])[C:3]([H:11])([H:12])[C:4]1=[C:5]=[O:6])([H:7])([H:8])[H:9].[H:13][H:14]"
C       -1.49921957      -1.03495942      -0.39599463
C       -0.69524908       0.23132699      -0.54395050
C       -0.31994970       1.02123849       0.67358470
C        0.71723434       0.27537219      -0.10687440
C        1.76010158      -0.55484865       0.24261191
O        2.39149722      -1.48261305      -0.14575573
H       -1.26176633      -1.55235537       0.53496347
H       -2.56652605      -0.80154317      -0.38955207
H       -1.31797563      -1.72223380      -1.22369101
H       -0.87267899       0.81200995      -1.44331468
H       -0.59727007       0.63133735       1.64639715
H       -0.32286593       2.10281510       0.61538073
H        1.95873589       1.24841851      -0.22165395
H        2.62593232       0.82603488       0.75784901
14
Frame=13 idx=006255 GeodesicLength=1.243136366436275 rxn_smarts="[C:1]([C@@:2]1([H:10])[C:3]([H:11])([H:12])[C@:4]1([C:5](=[O:6])[H:14])[H:13])([H:7])([H:8])[H:9]>>[C:1]([C@@:2]1([H:10])[C:3]([H:11])([H:12])[C:4]1=[C:5]=[O:6])([H:7])([H:8])[H:9].[H:13][H:14]"
C       -1.49987850      -1.03243825      -0.39979459
C       -0.69022771       0.23098531      -0.54045868
C       -0.31768162       1.01309837       0.67999647
C        0.72327138       0.26773813      -0.10008374
C        1.75362891      -0.57421718       0.26024820
O        2.38746687      -1.49905748      -0.12943982
H       -1.27047391      -1.55322269       0.53125399
H       -2.56609749      -0.79384099      -0.39885347
H       -1.31809012      -1.71843181      -1.22844097
H       -0.85902646       0.81466523      -1.43943953
H       -0.59773329       0.62070225       1.65097407
H       -0.31591005       2.09494427       0.62788326
H        1.93276999       1.27056443      -0.25468193
H        2.63798200       0.85851042       0.74083675
14
Frame=14 idx=006255 GeodesicLength=1.3387034621399903 rxn_smarts="[C:1]([C@@:2]1([H:10])[C:3]([H:11])([H:12])[C@:4]1([C:5](=[O:6])[H:14])[H:13])([H:7])([H:8])[H:9]>>[C:1]([C@@:2]1([H:10])[C:3]([H:11])([H:12])[C:4]1=[C:5]=[O:6])([H:7])([H:8])[H:9].[H:13][H:14]"
C       -1.50013872      -1.02973743      -0.40368178
C       -0.68462375       0.23066056      -0.53684036
C       -0.31518575       1.00494545       0.68660365
C        0.72989685       0.26033446      -0.09292900
C        1.74617994      -0.59473254       0.27866992
O        2.38319040      -1.51590650      -0.11286971
H       -1.27884141      -1.55396847       0.52735888
H       -2.56518091      -0.78582702      -0.40829109
H       -1.31770466      -1.71439731      -1.23329632
H       -0.84483908       0.81737634      -1.43531517
H       -0.59828909       0.61004996       1.65563329
H       -0.30900508       2.08701283       0.64068065
H        1.90460055       1.29309986      -0.28850535
H        2.64994069       0.89108981       0.72278240
14
Frame=15 idx=006255 GeodesicLength=1.4342877057461216 rxn_smarts="[C:1]([C@@:2]1([H:10])[C:3]([H:11])([H:12])[C@:4]1([C:5](=[O:6])[H:14])[H:13])([H:7])([H:8])[H:9]>>[C:1]([C@@:2]1([H:10])[C:3]([H:11])([H:12])[C:4]1=[C:5]=[O:6])([H:7])([H:8])[H:9].[H:13][H:14]"
C       -1.49995848      -1.02684482      -0.40766485
C       -0.67838297       0.23035315      -0.53309350
C       -0.31242945       0.99678132       0.69340821
C        0.73718943       0.25321749      -0.08541927
C        1.73758731      -0.61650726       0.29786169
O        2.37863181      -1.53321208      -0.09595631
H       -1.28679601      -1.55459812       0.52325196
H       -2.56373003      -0.77748006      -0.41784716
H       -1.31677677      -1.71010707      -1.23827632
H       -0.83011274       0.82016036      -1.43092327
H       -0.59891969       0.59937867       1.66036874
H       -0.30216769       2.07902844       0.65378924
H        1.87401029       1.31605929      -0.32314798
H        2.66185500       0.92377068       0.70364882
14
Frame=16 idx=006255 GeodesicLength=1.529864397387037 rxn_smarts="[C:1]([C@@:2]1([H:10])[C:3]([H:11])([H:12])[C@:4]1([C:5](=[O:6])[H:14])[H:13])([H:7])([H:8])[H:9]>>[C:1]([C@@:2]1([H:10])[C:3]([H:11])([H:12])[C:4]1=[C:5]=[O:6])([H:7])([H:8])[H:9].[H:13][H:14]"
C       -1.49929701      -1.02374689      -0.41173057
C       -0.67144966       0.23004838      -0.52923252
C       -0.30936023       0.98861798       0.70037206
C        0.74523496       0.24646219      -0.07759114
C        1.72764066      -0.63966868       0.31771986
O        2.37376831      -1.55095876      -0.07872125
H       -1.29423675      -1.55508547       0.51893066
H       -2.56169370      -0.76878715      -0.42746934
H       -1.31528736      -1.70555157      -1.24336093
H       -0.81486655       0.82298684      -1.42626915
H       -0.59956209       0.58872683       1.66514280
H       -0.29541072       2.07099500       0.66715696
H        1.84079534       1.33945129      -0.35852068
H        2.67372479       0.95651001       0.68357325
