11
Frame=0 idx=001338 GeodesicLength=0.0 rxn_smarts="[C:1]([C:2](=[O:3])[O:4]/[C:5](=[N:6]/[H:11])[H:10])([H:7])([H:8])[H:9]>>[C:1]([O+:3]=[C-:2][O:4]/[C:5](=[N:6]/[H:11])[H:10])([H:7])([H:8])[H:9]"
C       -1.86125128      -0.06708868      -0.61307834
C       -0.75359823       0.26193892       0.83991680
O       -0.79399806      -0.96520433       0.50016812
O        0.46482648       0.85834884       0.72267974
C        1.59475684       0.12079523       0.46976593
N        2.57467775       0.69922359      -0.05111272
H       -2.83142039      -0.04038327      -0.14167378
H       -1.56498423       0.87749684      -1.06453966
H       -1.72111046      -0.88260623      -1.32002701
H        1.53655779      -0.91772627       0.78952277
H        3.35554381       0.05520536      -0.13162190
11
Frame=1 idx=001338 GeodesicLength=0.036355557826212366 rxn_smarts="[C:1]([C:2](=[O:3])[O:4]/[C:5](=[N:6]/[H:11])[H:10])([H:7])([H:8])[H:9]>>[C:1]([O+:3]=[C-:2][O:4]/[C:5](=[N:6]/[H:11])[H:10])([H:7])([H:8])[H:9]"
C       -1.87628320      -0.06794052      -0.60781107
C       -0.74358408       0.24561521       0.82517547
O       -0.77950005      -0.97558442       0.47064565
O        0.46945498       0.85014871       0.70799244
C        1.60509011       0.11944944       0.45939660
N        2.59373024       0.71269867      -0.02688981
H       -2.83397802       0.00546809      -0.11474252
H       -1.56813201       0.85434560      -1.09608410
H       -1.80144082      -0.90171452      -1.30324054
H        1.54761751      -0.92356690       0.76441602
H        3.38702536       0.08108064      -0.07885813
11
Frame=2 idx=001338 GeodesicLength=0.07183541403014598 rxn_smarts="[C:1]([C:2](=[O:3])[O:4]/[C:5](=[N:6]/[H:11])[H:10])([H:7])([H:8])[H:9]>>[C:1]([O+:3]=[C-:2][O:4]/[C:5](=[N:6]/[H:11])[H:10])([H:7])([H:8])[H:9]"
C       -1.89055715      -0.06883388      -0.60281957
C       -0.73344886       0.22852798       0.81006711
O       -0.76433526      -0.98598737       0.43890400
O        0.47380414       0.84195669       0.69327992
C        1.61571100       0.11867282       0.45034196
N        2.61167453       0.72593960      -0.00221935
H       -2.83349160       0.05147664      -0.08937557
H       -1.57284866       0.82979938      -1.12786899
H       -1.88091037      -0.91850083      -1.28276013
H        1.55911754      -0.92889894       0.73963016
H        3.41528467       0.10584792      -0.02717954
11
Frame=3 idx=001338 GeodesicLength=0.10587414270569974 rxn_smarts="[C:1]([C:2](=[O:3])[O:4]/[C:5](=[N:6]/[H:11])[H:10])([H:7])([H:8])[H:9]>>[C:1]([O+:3]=[C-:2][O:4]/[C:5](=[N:6]/[H:11])[H:10])([H:7])([H:8])[H:9]"
C       -1.90311074      -0.06985362      -0.59813738
C       -0.72382079       0.21084877       0.79590557
O       -0.74958180      -0.99644509       0.40714305
O        0.47758516       0.83339793       0.68085568
C        1.62550891       0.11812250       0.44102583
N        2.62774652       0.73971414       0.02342924
H       -2.82959368       0.09883301      -0.06712686
H       -1.57679700       0.80307568      -1.16020329
H       -1.95799649      -0.93353053      -1.25800000
H        1.57043545      -0.93416652       0.71320249
H        3.43962445       0.13000371       0.02190567
11
Frame=4 idx=001338 GeodesicLength=0.138385587487517 rxn_smarts="[C:1]([C:2](=[O:3])[O:4]/[C:5](=[N:6]/[H:11])[H:10])([H:7])([H:8])[H:9]>>[C:1]([O+:3]=[C-:2][O:4]/[C:5](=[N:6]/[H:11])[H:10])([H:7])([H:8])[H:9]"
C       -1.91434201      -0.07072603      -0.59371640
C       -0.71455773       0.19294595       0.78227503
O       -0.73495294      -1.00645490       0.37493438
O        0.48096463       0.82473141       0.66988310
C        1.63492465       0.11778641       0.43279453
N        2.64147982       0.75247459       0.04684452
H       -2.82287120       0.14544913      -0.04764124
H       -1.58198259       0.77552977      -1.19205442
H       -2.03116089      -0.94591773      -1.22989812
H        1.58156108      -0.93929080       0.68623281
H        3.46093718       0.15347219       0.07034581
11
Frame=5 idx=001338 GeodesicLength=0.17060180985903634 rxn_smarts="[C:1]([C:2](=[O:3])[O:4]/[C:5](=[N:6]/[H:11])[H:10])([H:7])([H:8])[H:9]>>[C:1]([O+:3]=[C-:2][O:4]/[C:5](=[N:6]/[H:11])[H:10])([H:7])([H:8])[H:9]"
C       -1.92492765      -0.07190801      -0.58936769
C       -0.70535741       0.17417422       0.76864387
O       -0.72034312      -1.01654483       0.34148611
O        0.48390238       0.81576872       0.65923278
C        1.64393145       0.11785286       0.42340852
N        2.65494788       0.76639845       0.07428246
H       -2.81305357       0.19378152      -0.03027074
H       -1.58787025       0.74522294      -1.22463495
H       -2.10383963      -0.95670253      -1.19716210
H        1.59287954      -0.94391888       0.65704955
H        3.47973039       0.17587554       0.11733219
11
Frame=6 idx=001338 GeodesicLength=0.201996331769616 rxn_smarts="[C:1]([C:2](=[O:3])[O:4]/[C:5](=[N:6]/[H:11])[H:10])([H:7])([H:8])[H:9]>>[C:1]([O+:3]=[C-:2][O:4]/[C:5](=[N:6]/[H:11])[H:10])([H:7])([H:8])[H:9]"
C       -1.93416127      -0.07292945      -0.58585271
C       -0.69664818       0.15476031       0.75539234
O       -0.70504021      -1.02611381       0.30622300
O        0.48594012       0.80706416       0.65064022
C        1.65285877       0.11872028       0.41907995
N        2.66596853       0.77950799       0.10077925
H       -2.80054853       0.24035437      -0.01595409
H       -1.59551609       0.71495978      -1.25646765
H       -2.17192679      -0.96452412      -1.16276928
H        1.60430809      -0.94758281       0.63188547
H        3.49476557       0.19578329       0.15704351
11
Frame=7 idx=001338 GeodesicLength=0.23230619747438147 rxn_smarts="[C:1]([C:2](=[O:3])[O:4]/[C:5](=[N:6]/[H:11])[H:10])([H:7])([H:8])[H:9]>>[C:1]([O+:3]=[C-:2][O:4]/[C:5](=[N:6]/[H:11])[H:10])([H:7])([H:8])[H:9]"
C       -1.94201578      -0.07387803      -0.58271136
C       -0.68860347       0.13518085       0.74312121
O       -0.69026869      -1.03512051       0.27143560
O        0.48733042       0.79814934       0.64436629
C        1.66086545       0.11972844       0.41531822
N        2.67508554       0.79241464       0.12742901
H       -2.78555902       0.28640583      -0.00496410
H       -1.60380193       0.68367670      -1.28784104
H       -2.23554895      -0.97016753      -1.12568378
H        1.61529804      -0.95090799       0.60603442
H        3.50721839       0.21451828       0.19349554
11
Frame=8 idx=001338 GeodesicLength=0.2621946006317887 rxn_smarts="[C:1]([C:2](=[O:3])[O:4]/[C:5](=[N:6]/[H:11])[H:10])([H:7])([H:8])[H:9]>>[C:1]([O+:3]=[C-:2][O:4]/[C:5](=[N:6]/[H:11])[H:10])([H:7])([H:8])[H:9]"
C       -1.94907105      -0.07498065      -0.57957133
C       -0.68085082       0.11505659       0.73143490
O       -0.67611410      -1.04395141       0.23680844
O        0.48826192       0.78875844       0.63917333
C        1.66802487       0.12085626       0.40946685
N        2.68318508       0.80573370       0.15623511
H       -2.76769480       0.33356881       0.00329383
H       -1.61287596       0.64999840      -1.31931035
H       -2.29703984      -0.97398293      -1.08458042
H        1.62610297      -0.95386603       0.57687263
H        3.51807173       0.23280882       0.23017700
11
Frame=9 idx=001338 GeodesicLength=0.29127965444212145 rxn_smarts="[C:1]([C:2](=[O:3])[O:4]/[C:5](=[N:6]/[H:11])[H:10])([H:7])([H:8])[H:9]>>[C:1]([O+:3]=[C-:2][O:4]/[C:5](=[N:6]/[H:11])[H:10])([H:7])([H:8])[H:9]"
C       -1.95445718      -0.07580989      -0.57770130
C       -0.67417377       0.09487249       0.72070213
O       -0.66164452      -1.05167907       0.20180569
O        0.48795103       0.77970965       0.63754498
C        1.67452191       0.12258811       0.41012988
N        2.68883183       0.81843002       0.18569569
H       -2.74817138       0.37758782       0.00785265
H       -1.62317397       0.61744418      -1.34961108
H       -2.35188461      -0.97520779      -1.04406611
H        1.63644316      -0.95574090       0.55379491
H        3.52575749       0.24780537       0.25385255
11
Frame=10 idx=001338 GeodesicLength=0.3198003517750409 rxn_smarts="[C:1]([C:2](=[O:3])[O:4]/[C:5](=[N:6]/[H:11])[H:10])([H:7])([H:8])[H:9]>>[C:1]([O+:3]=[C-:2][O:4]/[C:5](=[N:6]/[H:11])[H:10])([H:7])([H:8])[H:9]"
C       -1.95780974      -0.07649554      -0.57675768
C       -0.66877968       0.07375888       0.71206939
O       -0.64780143      -1.05924365       0.16811466
O        0.48628833       0.76980648       0.64097760
C        1.67954689       0.12435669       0.41349987
N        2.69159194       0.83115078       0.21543717
H       -2.72586440       0.42173730       0.00798206
H       -1.63194252       0.58388971      -1.37942254
H       -2.40209418      -0.97400776      -1.00271985
H        1.64612702      -0.95719120       0.53213770
H        3.53073778       0.26223830       0.26868162
11
Frame=11 idx=001338 GeodesicLength=0.34815101222942557 rxn_smarts="[C:1]([C:2](=[O:3])[O:4]/[C:5](=[N:6]/[H:11])[H:10])([H:7])([H:8])[H:9]>>[C:1]([O+:3]=[C-:2][O:4]/[C:5](=[N:6]/[H:11])[H:10])([H:7])([H:8])[H:9]"
C       -1.96070909      -0.07699110      -0.57639685
C       -0.66363976       0.05270850       0.70321477
O       -0.63377549      -1.06568147       0.13356731
O        0.48420608       0.75991194       0.64502731
C        1.68428915       0.12594043       0.41951652
N        2.69340804       0.84284682       0.24527103
H       -2.70217739       0.46377402       0.00629938
H       -1.64346334       0.55067254      -1.40847812
H       -2.44852545      -0.97078630      -0.96051839
H        1.65557775      -0.95824177       0.51290244
H        3.53480951       0.27584638       0.27959460
11
Frame=12 idx=001338 GeodesicLength=0.3759690865230002 rxn_smarts="[C:1]([C:2](=[O:3])[O:4]/[C:5](=[N:6]/[H:11])[H:10])([H:7])([H:8])[H:9]>>[C:1]([O+:3]=[C-:2][O:4]/[C:5](=[N:6]/[H:11])[H:10])([H:7])([H:8])[H:9]"
C       -1.96265696      -0.07729525      -0.57624401
C       -0.65904013       0.03152673       0.69537428
O       -0.62055340      -1.07164071       0.10042771
O        0.48172053       0.74926554       0.65118017
C        1.68805378       0.12706640       0.42454554
N        2.69370123       0.85374610       0.27333546
H       -2.67658540       0.50517301       0.00205538
H       -1.65571903       0.51673334      -1.43665205
H       -2.49126695      -0.96544135      -0.91711335
H        1.66452819      -0.95918485       0.49220692
H        3.53781814       0.29005104       0.29088393
11
Frame=13 idx=001338 GeodesicLength=0.40429120311984307 rxn_smarts="[C:1]([C:2](=[O:3])[O:4]/[C:5](=[N:6]/[H:11])[H:10])([H:7])([H:8])[H:9]>>[C:1]([O+:3]=[C-:2][O:4]/[C:5](=[N:6]/[H:11])[H:10])([H:7])([H:8])[H:9]"
C       -1.96452976      -0.07764597      -0.57666199
C       -0.65440436       0.01017331       0.68662772
O       -0.60692471      -1.07644117       0.06559399
O        0.47888646       0.73862157       0.65690693
C        1.69178255       0.12806265       0.43202471
N        2.69375559       0.86396070       0.30412188
H       -2.64919333       0.54527393      -0.00375174
H       -1.67130684       0.48226197      -1.46451802
H       -2.53175907      -0.95829416      -0.87186771
H        1.67343223      -0.95962258       0.47323100
H        3.54026123       0.30364974       0.29829323
11
Frame=14 idx=001338 GeodesicLength=0.43263479449066317 rxn_smarts="[C:1]([C:2](=[O:3])[O:4]/[C:5](=[N:6]/[H:11])[H:10])([H:7])([H:8])[H:9]>>[C:1]([O+:3]=[C-:2][O:4]/[C:5](=[N:6]/[H:11])[H:10])([H:7])([H:8])[H:9]"
C       -1.96612062      -0.07802861      -0.57720024
C       -0.64986692      -0.01114688       0.67785858
O       -0.59378788      -1.08057309       0.03116539
O        0.47591670       0.72756043       0.66284279
C        1.69500629       0.12879680       0.43802163
N        2.69330552       0.87340811       0.33587182
H       -2.61990011       0.58475562      -0.01154980
H       -1.68920590       0.44654616      -1.49171054
H       -2.56973081      -0.94920342      -0.82454912
H        1.68211880      -0.95968327       0.45230709
H        3.54226493       0.31756815       0.30694239
11
Frame=15 idx=001338 GeodesicLength=0.4613465907611799 rxn_smarts="[C:1]([C:2](=[O:3])[O:4]/[C:5](=[N:6]/[H:11])[H:10])([H:7])([H:8])[H:9]>>[C:1]([O+:3]=[C-:2][O:4]/[C:5](=[N:6]/[H:11])[H:10])([H:7])([H:8])[H:9]"
C       -1.96849050      -0.07854537      -0.57774348
C       -0.64469540      -0.03150245       0.66714814
O       -0.58039845      -1.08297661      -0.00497610
O        0.47344930       0.71719001       0.66577626
C        1.69864641       0.12940568       0.44339771
N        2.69369083       0.88144436       0.36971627
H       -2.58997641       0.62207327      -0.01988028
H       -1.71270007       0.41022904      -1.51810737
H       -2.60535893      -0.93886888      -0.77463079
H        1.69091740      -0.95917232       0.43069239
H        3.54491581       0.33072327       0.31860725
11
Frame=16 idx=001338 GeodesicLength=0.4904623946942908 rxn_smarts="[C:1]([C:2](=[O:3])[O:4]/[C:5](=[N:6]/[H:11])[H:10])([H:7])([H:8])[H:9]>>[C:1]([O+:3]=[C-:2][O:4]/[C:5](=[N:6]/[H:11])[H:10])([H:7])([H:8])[H:9]"
C       -1.97118800      -0.07942792      -0.57797238
C       -0.63916369      -0.05161793       0.65568417
O       -0.56767657      -1.08475959      -0.04108563
O        0.47123558       0.70675180       0.66700574
C        1.70208977       0.13029783       0.44434825
N        2.69424330       0.88855095       0.40631665
H       -2.55788068       0.65926393      -0.03017715
H       -1.74001403       0.37130003      -1.54360636
H       -2.63942436      -0.92655216      -0.72084677
H        1.69980140      -0.95767114       0.40402345
H        3.54797729       0.34386421       0.33631004
