13
Frame=0 idx=004822 GeodesicLength=0.0 rxn_smarts="[C:1]([O:2][C@@:3]([C:4]([H:11])([H:12])[H:13])([C:5]#[N:6])[H:10])([H:7])([H:8])[H:9]>>[C:1]([O:2][C:3]([C:4]([H:11])([H:12])[H:13])=[C:5]=[N:6][H:10])([H:7])([H:8])[H:9]"
C        1.88299357       0.29524526       0.38500633
O        0.84211620      -0.55259035      -0.09692374
C       -0.38841420       0.00101853      -0.23628437
C       -1.53306525      -0.77742563       0.35071917
C       -0.50605890       1.49879142      -0.35462851
N       -0.66277329       1.07322662      -1.54083400
H        1.65352443       0.66390361       1.38592035
H        2.04101742       1.14344866      -0.28339554
H        2.77614274      -0.32444223       0.41149149
H       -0.66473040      -0.13589662      -1.55916520
H       -1.43834203      -1.84165314       0.13411802
H       -1.51945758      -0.63636532       1.43405349
H       -2.48295267      -0.40726075      -0.03007755
13
Frame=1 idx=004822 GeodesicLength=0.10455926701303704 rxn_smarts="[C:1]([O:2][C@@:3]([C:4]([H:11])([H:12])[H:13])([C:5]#[N:6])[H:10])([H:7])([H:8])[H:9]>>[C:1]([O:2][C:3]([C:4]([H:11])([H:12])[H:13])=[C:5]=[N:6][H:10])([H:7])([H:8])[H:9]"
C        1.88596228       0.29578457       0.38163298
O        0.83795447      -0.55869998      -0.06718996
C       -0.39068656      -0.00405061      -0.22853437
C       -1.53700685      -0.78637658       0.35104453
C       -0.51347043       1.48672790      -0.33946799
N       -0.66487325       1.11100118      -1.53783496
H        1.66090206       0.71001513       1.36580105
H        2.05625382       1.11160145      -0.32347940
H        2.77235523      -0.33165820       0.43824026
H       -0.65171604      -0.11539686      -1.57335237
H       -1.44223108      -1.84896541       0.12639026
H       -1.52669970      -0.65526033       1.43558258
H       -2.48674396      -0.41472225      -0.02883260
13
Frame=2 idx=004822 GeodesicLength=0.2091112466833274 rxn_smarts="[C:1]([O:2][C@@:3]([C:4]([H:11])([H:12])[H:13])([C:5]#[N:6])[H:10])([H:7])([H:8])[H:9]>>[C:1]([O:2][C:3]([C:4]([H:11])([H:12])[H:13])=[C:5]=[N:6][H:10])([H:7])([H:8])[H:9]"
C        1.88883470       0.29608093       0.37799339
O        0.83361295      -0.56444477      -0.03604247
C       -0.39291742      -0.00943013      -0.22049828
C       -1.54103720      -0.79554968       0.35136458
C       -0.52094709       1.47436373      -0.32481631
N       -0.66706684       1.15009020      -1.53367763
H        1.66891704       0.75600535       1.34306731
H        2.07047584       1.07709661      -0.36317396
H        2.76856534      -0.33731357       0.46525374
H       -0.63752662      -0.09371950      -1.58720307
H       -1.44573082      -1.85647969       0.11904691
H       -1.53468901      -0.67393534       1.43695751
H       -2.49049088      -0.42276414      -0.02827173
13
Frame=3 idx=004822 GeodesicLength=0.31364353203164536 rxn_smarts="[C:1]([O:2][C@@:3]([C:4]([H:11])([H:12])[H:13])([C:5]#[N:6])[H:10])([H:7])([H:8])[H:9]>>[C:1]([O:2][C:3]([C:4]([H:11])([H:12])[H:13])=[C:5]=[N:6][H:10])([H:7])([H:8])[H:9]"
C        1.89158138       0.29610193       0.37407791
O        0.82907498      -0.56972114      -0.00340962
C       -0.39509826      -0.01513249      -0.21220958
C       -1.54512479      -0.80495992       0.35167178
C       -0.52852561       1.46169566      -0.31071385
N       -0.66931218       1.19056278      -1.52826896
H        1.67749613       0.80178073       1.31755991
H        2.08362190       1.03982249      -0.40237911
H        2.76478670      -0.34136182       0.49249511
H       -0.62216741      -0.07077438      -1.60068024
H       -1.44875954      -1.86422519       0.11213708
H       -1.54341676      -0.69235543       1.43816988
H       -2.49415655      -0.43143322      -0.02845031
13
Frame=4 idx=004822 GeodesicLength=0.418155805952882 rxn_smarts="[C:1]([O:2][C@@:3]([C:4]([H:11])([H:12])[H:13])([C:5]#[N:6])[H:10])([H:7])([H:8])[H:9]>>[C:1]([O:2][C:3]([C:4]([H:11])([H:12])[H:13])=[C:5]=[N:6][H:10])([H:7])([H:8])[H:9]"
C        1.89417636       0.29581404       0.36987657
O        0.82432155      -0.57440747       0.03078755
C       -0.39722004      -0.02116813      -0.20370773
C       -1.54923749      -0.81462910       0.35195475
C       -0.53624112       1.44872618      -0.29720088
N       -0.67155845       1.23250337      -1.52149489
H        1.68657172       0.84725984       1.28909069
H        2.09563455       0.99964339      -0.44099540
H        2.76103009      -0.34375831       0.51995050
H       -0.60566736      -0.04646217      -1.61374686
H       -1.45123182      -1.87224096       0.10570825
H       -1.55287291      -0.71049422       1.43920759
H       -2.49770509      -0.44078646      -0.02943014
13
Frame=5 idx=004822 GeodesicLength=0.522638356213366 rxn_smarts="[C:1]([O:2][C@@:3]([C:4]([H:11])([H:12])[H:13])([C:5]#[N:6])[H:10])([H:7])([H:8])[H:9]>>[C:1]([O:2][C:3]([C:4]([H:11])([H:12])[H:13])=[C:5]=[N:6][H:10])([H:7])([H:8])[H:9]"
C        1.89657049       0.29517588       0.36538016
O        0.81932435      -0.57835191       0.06659325
C       -0.39926945      -0.02754113      -0.19504789
C       -1.55332512      -0.82457113       0.35221132
C       -0.54413610       1.43545909      -0.28434322
N       -0.67372306       1.27599202      -1.51323919
H        1.69604027       0.89229120       1.25747872
H        2.10645035       0.95645364      -0.47886040
H        2.75727186      -0.34446158       0.54756202
H       -0.58806054      -0.02070081      -1.62637323
H       -1.45302880      -1.88056018       0.09983242
H       -1.56303605      -0.72829698       1.44006452
H       -2.50107822      -0.45088812      -0.03125849
13
Frame=6 idx=004822 GeodesicLength=0.6270874185114435 rxn_smarts="[C:1]([O:2][C@@:3]([C:4]([H:11])([H:12])[H:13])([C:5]#[N:6])[H:10])([H:7])([H:8])[H:9]>>[C:1]([O:2][C:3]([C:4]([H:11])([H:12])[H:13])=[C:5]=[N:6][H:10])([H:7])([H:8])[H:9]"
C        1.89872986       0.29414051       0.36059665
O        0.81406223      -0.58139631       0.10404556
C       -0.40123017      -0.03426135      -0.18630571
C       -1.55733267      -0.83480087       0.35243087
C       -0.55224124       1.42189183      -0.27222142
N       -0.67572271       1.32111808      -1.50337151
H        1.70580033       0.93671116       1.22253701
H        2.11598688       0.91013631      -0.51578771
H        2.75352643      -0.34341373       0.57530469
H       -0.56946610       0.00660317      -1.63854594
H       -1.45404578      -1.88921912       0.09459264
H       -1.57384834      -0.74570899       1.44072504
H       -2.50421871      -0.46180069      -0.03400018
13
Frame=7 idx=004822 GeodesicLength=0.7314975747789542 rxn_smarts="[C:1]([O:2][C@@:3]([C:4]([H:11])([H:12])[H:13])([C:5]#[N:6])[H:10])([H:7])([H:8])[H:9]>>[C:1]([O:2][C:3]([C:4]([H:11])([H:12])[H:13])=[C:5]=[N:6][H:10])([H:7])([H:8])[H:9]"
C        1.90060105       0.29265955       0.35553115
O        0.80850501      -0.58334965       0.14313642
C       -0.40308138      -0.04132914      -0.17757110
C       -1.56119534      -0.84532920       0.35261392
C       -0.56058848       1.40802949      -0.26094627
N       -0.67744628       1.36796667      -1.49174921
H        1.71572576       0.98028356       1.18409781
H        2.12417359       0.86062850      -0.55153459
H        2.74976627      -0.34056994       0.60310952
H       -0.54999552       0.03551611      -1.65026605
H       -1.45415446      -1.89825463       0.09009558
H       -1.58525340      -0.76265172       1.44118166
H       -2.50705682      -0.47359960      -0.03769882
13
Frame=8 idx=004822 GeodesicLength=0.8358679120442487 rxn_smarts="[C:1]([O:2][C@@:3]([C:4]([H:11])([H:12])[H:13])([C:5]#[N:6])[H:10])([H:7])([H:8])[H:9]>>[C:1]([O:2][C:3]([C:4]([H:11])([H:12])[H:13])=[C:5]=[N:6][H:10])([H:7])([H:8])[H:9]"
C        1.90213424       0.29067973       0.35020267
O        0.80261723      -0.58400387       0.18384310
C       -0.40480058      -0.04874294      -0.16894593
C       -1.56483721      -0.85616784       0.35275235
C       -0.56920571       1.39387447      -0.25063585
N       -0.67878127       1.41663228      -1.47819466
H        1.72568931       1.02278021       1.14197487
H        2.13093810       0.80783595      -0.58584851
H        2.74596673      -0.33588121       0.63094835
H       -0.52982011       0.06611104      -1.66155290
H       -1.45322777      -1.90770031       0.08644224
H       -1.59715979      -0.77905626       1.44141881
H       -2.50951318      -0.48636125      -0.04240451
13
Frame=9 idx=004822 GeodesicLength=0.9402282048142989 rxn_smarts="[C:1]([O:2][C@@:3]([C:4]([H:11])([H:12])[H:13])([C:5]#[N:6])[H:10])([H:7])([H:8])[H:9]>>[C:1]([O:2][C:3]([C:4]([H:11])([H:12])[H:13])=[C:5]=[N:6][H:10])([H:7])([H:8])[H:9]"
C        1.90325019       0.28814186       0.34463254
O        0.79635384      -0.58313087       0.22604197
C       -0.40636503      -0.05648715      -0.16054953
C       -1.56816773      -0.86731738       0.35287125
C       -0.57815476       1.37944833      -0.24147448
N       -0.67957035       1.46719901      -1.46255773
H        1.73548879       1.06383561       1.09607888
H        2.13624583       0.75180498      -0.61839822
H        2.74205796      -0.32934318       0.65869843
H       -0.50907532       0.09841796      -1.67247308
H       -1.45109993      -1.91759011       0.08378541
H       -1.60947061      -0.79481715       1.44145671
H       -2.51149288      -0.50016190      -0.04811214
13
Frame=10 idx=004822 GeodesicLength=1.044557187366983 rxn_smarts="[C:1]([O:2][C@@:3]([C:4]([H:11])([H:12])[H:13])([C:5]#[N:6])[H:10])([H:7])([H:8])[H:9]>>[C:1]([O:2][C:3]([C:4]([H:11])([H:12])[H:13])=[C:5]=[N:6][H:10])([H:7])([H:8])[H:9]"
C        1.90389594       0.28499581       0.33887102
O        0.78968592      -0.58051456       0.26955734
C       -0.40774468      -0.06455621      -0.15252634
C       -1.57109755      -0.87877054       0.35297076
C       -0.58742459       1.36474237      -0.23367042
N       -0.67971675       1.51971787      -1.44462162
H        1.74496573       1.10309487       1.04632981
H        2.14002962       0.69256912      -0.64882634
H        2.73800844      -0.32090814       0.68631805
H       -0.48799513       0.13246171      -1.68311244
H       -1.44767739      -1.92793509       0.08225761
H       -1.62201694      -0.80983113       1.44128241
H       -2.51291262      -0.51506607      -0.05482984
13
Frame=11 idx=004822 GeodesicLength=1.1488621362688092 rxn_smarts="[C:1]([O:2][C@@:3]([C:4]([H:11])([H:12])[H:13])([C:5]#[N:6])[H:10])([H:7])([H:8])[H:9]>>[C:1]([O:2][C:3]([C:4]([H:11])([H:12])[H:13])=[C:5]=[N:6][H:10])([H:7])([H:8])[H:9]"
C        1.90399446       0.28119534       0.33296314
O        0.78257327      -0.57594569       0.31409798
C       -0.40891465      -0.07293157      -0.14502549
C       -1.57353619      -0.89050864       0.35308558
C       -0.59702942       1.34976316      -0.22750025
N       -0.67910324       1.57420722      -1.42418080
H        1.75390311       1.14009082       0.99277577
H        2.14227773       0.63032687      -0.67673725
H        2.73373570      -0.31058008       0.71367360
H       -0.46672444       0.16822516      -1.69360223
H       -1.44285310      -1.93874078       0.08203279
H       -1.63463790      -0.82396924       1.44091868
H       -2.51368536      -0.53113256      -0.06250152
13
Frame=12 idx=004822 GeodesicLength=1.253168951143658 rxn_smarts="[C:1]([O:2][C@@:3]([C:4]([H:11])([H:12])[H:13])([C:5]#[N:6])[H:10])([H:7])([H:8])[H:9]>>[C:1]([O:2][C:3]([C:4]([H:11])([H:12])[H:13])=[C:5]=[N:6][H:10])([H:7])([H:8])[H:9]"
C        1.90349238       0.27670772       0.32696233
O        0.77497046      -0.56922490       0.35936987
C       -0.40985916      -0.08159475      -0.13818286
C       -1.57540916      -0.90252180       0.35322700
C       -0.60696433       1.33451455      -0.22322701
N       -0.67766084       1.63067835      -1.40092249
H        1.76215477       1.17445603       0.93540811
H        2.14298460       0.56517915      -0.70178679
H        2.72916771      -0.29833301       0.74071475
H       -0.44539768       0.20571160      -1.70407469
H       -1.43656655      -1.95001230       0.08324013
H       -1.64716824      -0.83713404       1.44036248
H       -2.51374398      -0.54842660      -0.07109083
13
Frame=13 idx=004822 GeodesicLength=1.3575423267579454 rxn_smarts="[C:1]([O:2][C@@:3]([C:4]([H:11])([H:12])[H:13])([C:5]#[N:6])[H:10])([H:7])([H:8])[H:9]>>[C:1]([O:2][C:3]([C:4]([H:11])([H:12])[H:13])=[C:5]=[N:6][H:10])([H:7])([H:8])[H:9]"
C        1.90228232       0.27150330       0.32093915
O        0.76687012      -0.56028978       0.40473370
C       -0.41057316      -0.09051989      -0.13218995
C       -1.57662742      -0.91473591       0.35352152
C       -0.61728623       1.31900495      -0.22133147
N       -0.67530701       1.68900559      -1.37475041
H        1.76930680       1.20549649       0.87476816
H        2.14227785       0.49780667      -0.72355137
H        2.72419196      -0.28433096       0.76716066
H       -0.42399531       0.24481431      -1.71485957
H       -1.42875394      -1.96169685       0.08612751
H       -1.65935717      -0.84914643       1.43977339
H       -2.51302879      -0.56691149      -0.08034132
13
Frame=14 idx=004822 GeodesicLength=1.4619187859240492 rxn_smarts="[C:1]([O:2][C@@:3]([C:4]([H:11])([H:12])[H:13])([C:5]#[N:6])[H:10])([H:7])([H:8])[H:9]>>[C:1]([O:2][C:3]([C:4]([H:11])([H:12])[H:13])=[C:5]=[N:6][H:10])([H:7])([H:8])[H:9]"
C        1.90033380       0.26560959       0.31496706
O        0.75824871      -0.54909456       0.44967080
C       -0.41105311      -0.09972432      -0.12721536
C       -1.57715885      -0.92710361       0.35397562
C       -0.62785055       1.30317669      -0.22217910
N       -0.67213678       1.74899968      -1.34521381
H        1.77528323       1.23288502       0.81106849
H        2.14017311       0.42850495      -0.74169806
H        2.71872314      -0.26851931       0.79295914
H       -0.40251237       0.28546452      -1.72611189
H       -1.41956063      -1.97374779       0.09079192
H       -1.67096391      -0.85986086       1.43911337
H       -2.51152579      -0.58659002      -0.09012818
13
Frame=15 idx=004822 GeodesicLength=1.5663295213346007 rxn_smarts="[C:1]([O:2][C@@:3]([C:4]([H:11])([H:12])[H:13])([C:5]#[N:6])[H:10])([H:7])([H:8])[H:9]>>[C:1]([O:2][C:3]([C:4]([H:11])([H:12])[H:13])=[C:5]=[N:6][H:10])([H:7])([H:8])[H:9]"
C        1.89761916       0.25906721       0.30910219
O        0.74912761      -0.53576089       0.49344920
C       -0.41132213      -0.10922518      -0.12345275
C       -1.57701395      -0.93953225       0.35470578
C       -0.63861067       1.28697661      -0.22631138
N       -0.66829234       1.81033463      -1.31205020
H        1.77982192       1.25610148       0.74504142
H        2.13689314       0.35810013      -0.75596919
H        2.71270234      -0.25105802       0.81785464
H       -0.38069766       0.32754553      -1.73817063
H       -1.40913868      -1.98607998       0.09745419
H       -1.68179617      -0.86908187       1.43851165
H       -2.50929256      -0.60738740      -0.10016492
13
Frame=16 idx=004822 GeodesicLength=1.6707980656092547 rxn_smarts="[C:1]([O:2][C@@:3]([C:4]([H:11])([H:12])[H:13])([C:5]#[N:6])[H:10])([H:7])([H:8])[H:9]>>[C:1]([O:2][C:3]([C:4]([H:11])([H:12])[H:13])=[C:5]=[N:6][H:10])([H:7])([H:8])[H:9]"
C        1.89411949       0.25193416       0.30337238
O        0.73949264      -0.52040523       0.53552710
C       -0.41140484      -0.11905687      -0.12105304
C       -1.57620943      -0.95193793       0.35575601
C       -0.64946041       1.27032789      -0.23415625
N       -0.66405065       1.87262554      -1.27470655
H        1.78283720       1.27494503       0.67714335
H        2.13258499       0.28704764      -0.76628858
H        2.70602810      -0.23202091       0.84174083
H       -0.35819038       0.37102100      -1.75128817
H       -1.39766688      -1.99861001       0.10622902
H       -1.69171876      -0.87661461       1.43800622
H       -2.50636107      -0.62925571      -0.11028232
