15
Frame=0 idx=011187 GeodesicLength=0.0 rxn_smarts="[C:1]([C@@:2]1([H:11])[O:3][C@@:4]2([H:12])[C:5]([H:13])([H:14])[C@@:6]12[O:7][H:15])([H:8])([H:9])[H:10]>>[C:1]([C@@:2]1([H:11])[O+:3]=[C-:4][C:5]([H:13])([H:14])[C@:6]1([O:7][H:15])[H:12])([H:8])([H:9])[H:10]"
C       -1.81446335      -0.19820285      -0.17939352
C       -0.63955034       0.62715890       0.28749327
O       -0.20983517       0.40708120       1.63970202
C        1.16157554       0.15809456       1.49665823
C        1.22595508      -0.87824235       0.34740562
C        0.71869963       0.33136126      -0.32463105
O        1.01215529       0.74201890      -1.59419922
H       -1.61192804      -1.26728832      -0.11532976
H       -2.68991606       0.02196172       0.43210954
H       -2.04812468       0.05558766      -1.21554800
H       -0.87314148       1.69361490       0.20107646
H        1.39330135       1.10446626       0.51395616
H        2.25021768      -1.14271857       0.09513210
H        0.56893793      -1.73624387       0.44333007
H        1.55611656       0.08135055      -2.02776199
15
Frame=1 idx=011187 GeodesicLength=0.06714263660892984 rxn_smarts="[C:1]([C@@:2]1([H:11])[O:3][C@@:4]2([H:12])[C:5]([H:13])([H:14])[C@@:6]12[O:7][H:15])([H:8])([H:9])[H:10]>>[C:1]([C@@:2]1([H:11])[O+:3]=[C-:4][C:5]([H:13])([H:14])[C@:6]1([O:7][H:15])[H:12])([H:8])([H:9])[H:10]"
C       -1.81525211      -0.18952318      -0.18887396
C       -0.63889918       0.62647656       0.28915924
O       -0.22024952       0.38849072       1.64360941
C        1.15048869       0.15305674       1.50524397
C        1.24117239      -0.87299407       0.35417999
C        0.72344934       0.33568237      -0.31641869
O        1.00865367       0.73074936      -1.59390699
H       -1.61465765      -1.25964176      -0.13724241
H       -2.69148348       0.02589107       0.42323882
H       -2.04618889       0.07628545      -1.22261889
H       -0.86912461       1.69462026       0.21550828
H        1.40585923       1.11803857       0.52266706
H        2.27470684      -1.11651462       0.11795365
H        0.60127516      -1.74539548       0.43311019
H        1.49025012       0.03477802      -2.04560967
15
Frame=2 idx=011187 GeodesicLength=0.1344133190456418 rxn_smarts="[C:1]([C@@:2]1([H:11])[O:3][C@@:4]2([H:12])[C:5]([H:13])([H:14])[C@@:6]12[O:7][H:15])([H:8])([H:9])[H:10]>>[C:1]([C@@:2]1([H:11])[O+:3]=[C-:4][C:5]([H:13])([H:14])[C@:6]1([O:7][H:15])[H:12])([H:8])([H:9])[H:10]"
C       -1.81625759      -0.18071810      -0.19827791
C       -0.63824908       0.62559695       0.29048898
O       -0.23041378       0.36957277       1.64676494
C        1.13957318       0.14788057       1.51301450
C        1.25642555      -0.86787786       0.36074876
C        0.72800981       0.33953451      -0.30874061
O        1.00511946       0.71754198      -1.59428944
H       -1.61781704      -1.25175785      -0.15898082
H       -2.69312333       0.03020180       0.41452329
H       -2.04457877       0.09699265      -1.22946452
H       -0.86494063       1.69529514       0.22953611
H        1.41862060       1.13144880       0.53048265
H        2.29850413      -1.09028882       0.14049662
H        0.63453876      -1.75437783       0.42326400
H        1.42458873      -0.00904471      -2.05956654
15
Frame=3 idx=011187 GeodesicLength=0.20179720461697348 rxn_smarts="[C:1]([C@@:2]1([H:11])[O:3][C@@:4]2([H:12])[C:5]([H:13])([H:14])[C@@:6]12[O:7][H:15])([H:8])([H:9])[H:10]>>[C:1]([C@@:2]1([H:11])[O+:3]=[C-:4][C:5]([H:13])([H:14])[C@:6]1([O:7][H:15])[H:12])([H:8])([H:9])[H:10]"
C       -1.81747782      -0.17178456      -0.20759034
C       -0.63761917       0.62451319       0.29150801
O       -0.24036197       0.35028175       1.64917937
C        1.12878447       0.14255425       1.51999354
C        1.27169180      -0.86285712       0.36710154
C        0.73236264       0.34295577      -0.30159010
O        1.00148893       0.70256774      -1.59523827
H       -1.62143140      -1.24361314      -0.18055397
H       -2.69483353       0.03486366       0.40597484
H       -2.04325545       0.11773941      -1.23605503
H       -0.86060972       1.69561447       0.24323388
H        1.43153113       1.14472156       0.53739229
H        2.32159992      -1.06400800       0.16280491
H        0.66873186      -1.76317330       0.41376937
H        1.35939830      -0.05037569      -2.06993002
15
Frame=4 idx=011187 GeodesicLength=0.26932661423542215 rxn_smarts="[C:1]([C@@:2]1([H:11])[O:3][C@@:4]2([H:12])[C:5]([H:13])([H:14])[C@@:6]12[O:7][H:15])([H:8])([H:9])[H:10]>>[C:1]([C@@:2]1([H:11])[O+:3]=[C-:4][C:5]([H:13])([H:14])[C@:6]1([O:7][H:15])[H:12])([H:8])([H:9])[H:10]"
C       -1.81895773      -0.16271254      -0.21678642
C       -0.63705045       0.62323346       0.29224888
O       -0.25011329       0.33059405       1.65088663
C        1.11810556       0.13706425       1.52621258
C        1.28696386      -0.85792910       0.37321707
C        0.73647655       0.34597074      -0.29497386
O        0.99763868       0.68593670      -1.59672465
H       -1.62555250      -1.23520699      -0.20196274
H       -2.69665633       0.03987850       0.39764080
H       -2.04225719       0.13855552      -1.24236909
H       -0.85618870       1.69559516       0.25667973
H        1.44455099       1.15789394       0.54338404
H        2.34400383      -1.03766572       0.18489554
H        0.70388115      -1.77179652       0.40459673
H        1.29515557      -0.08941144      -2.07694525
15
Frame=5 idx=011187 GeodesicLength=0.3369135598785185 rxn_smarts="[C:1]([C@@:2]1([H:11])[O:3][C@@:4]2([H:12])[C:5]([H:13])([H:14])[C@@:6]12[O:7][H:15])([H:8])([H:9])[H:10]>>[C:1]([C@@:2]1([H:11])[O+:3]=[C-:4][C:5]([H:13])([H:14])[C@:6]1([O:7][H:15])[H:12])([H:8])([H:9])[H:10]"
C       -1.82078026      -0.15346462      -0.22588197
C       -0.63658409       0.62174325       0.29276420
O       -0.25964205       0.31045398       1.65194754
C        1.10758687       0.13140081       1.53170758
C        1.30227259      -0.85303716       0.37910284
C        0.74031241       0.34857791      -0.28885166
O        0.99333627       0.66770919      -1.59872368
H       -1.63019280      -1.22655954      -0.22333895
H       -2.69865978       0.04525365       0.38956385
H       -2.04172487       0.15956051      -1.24845131
H       -0.85177364       1.69525455       0.27001541
H        1.45772419       1.17091576       0.54853686
H        2.36577336      -1.01116294       0.20678065
H        0.74001972      -1.78009821       0.39572559
H        1.23233207      -0.12654710      -2.08089693
15
Frame=6 idx=011187 GeodesicLength=0.4046267977943039 rxn_smarts="[C:1]([C@@:2]1([H:11])[O:3][C@@:4]2([H:12])[C:5]([H:13])([H:14])[C@@:6]12[O:7][H:15])([H:8])([H:9])[H:10]>>[C:1]([C@@:2]1([H:11])[O+:3]=[C-:4][C:5]([H:13])([H:14])[C@:6]1([O:7][H:15])[H:12])([H:8])([H:9])[H:10]"
C       -1.82288363      -0.14405054      -0.23486490
C       -0.63620967       0.62005121       0.29306094
O       -0.26902297       0.28982243       1.65233670
C        1.09712384       0.12552498       1.53652191
C        1.31759583      -0.84817865       0.38475063
C        0.74390306       0.35083333      -0.28321407
O        0.98873494       0.64807528      -1.60106476
H       -1.63539488      -1.21762148      -0.24457985
H       -2.70081544       0.05099452       0.38168042
H       -2.04145829       0.18069270      -1.25426177
H       -0.84731473       1.69455815       0.28325553
H        1.47096416       1.18388124       0.55283190
H        2.38688328      -0.98449447       0.22850309
H        0.77717370      -1.78814180       0.38711733
H        1.17072082      -0.16194692      -2.08207311
15
Frame=7 idx=011187 GeodesicLength=0.4724358954627046 rxn_smarts="[C:1]([C@@:2]1([H:11])[O:3][C@@:4]2([H:12])[C:5]([H:13])([H:14])[C@@:6]12[O:7][H:15])([H:8])([H:9])[H:10]>>[C:1]([C@@:2]1([H:11])[O+:3]=[C-:4][C:5]([H:13])([H:14])[C@:6]1([O:7][H:15])[H:12])([H:8])([H:9])[H:10]"
C       -1.82530121      -0.13445835      -0.24372980
C       -0.63594647       0.61815344       0.29316633
O       -0.27824889       0.26867273       1.65207199
C        1.08671979       0.11941414       1.54067992
C        1.33293279      -0.84333198       0.39016130
C        0.74723813       0.35274325      -0.27805008
O        0.98376589       0.62709495      -1.60368387
H       -1.64119021      -1.20839073      -0.26570139
H       -2.70315915       0.05712067       0.37400248
H       -2.04148240       0.20196740      -1.25981235
H       -0.84284585       1.69349999       0.29646880
H        1.48427856       1.19679574       0.55629108
H        2.40732858      -0.95762882       0.25007082
H        0.81534612      -1.79586890       0.37876351
H        1.11056432      -0.19578353      -2.08069874
15
Frame=8 idx=011187 GeodesicLength=0.5403506416893636 rxn_smarts="[C:1]([C@@:2]1([H:11])[O:3][C@@:4]2([H:12])[C:5]([H:13])([H:14])[C@@:6]12[O:7][H:15])([H:8])([H:9])[H:10]>>[C:1]([C@@:2]1([H:11])[O+:3]=[C-:4][C:5]([H:13])([H:14])[C@:6]1([O:7][H:15])[H:12])([H:8])([H:9])[H:10]"
C       -1.82804149      -0.12466954      -0.25247097
C       -0.63581008       0.61605239       0.29310339
O       -0.28734274       0.24696918       1.65116024
C        1.07634694       0.11303545       1.54421916
C        1.34828848      -0.83848739       0.39533371
C        0.75031145       0.35432587      -0.27334385
O        0.97839277       0.60484891      -1.60651545
H       -1.64761178      -1.19884534      -0.28669819
H       -2.70570285       0.06365480       0.36652900
H       -2.04176258       0.22340616      -1.26509789
H       -0.83838369       1.69207467       0.30971348
H        1.49763572       1.20969649       0.55892923
H        2.42711151      -0.93053632       0.27149937
H        0.85457645      -1.80325959       0.37063443
H        1.05199189      -0.22826574      -2.07699566
15
Frame=9 idx=011187 GeodesicLength=0.6083351518817208 rxn_smarts="[C:1]([C@@:2]1([H:11])[O:3][C@@:4]2([H:12])[C:5]([H:13])([H:14])[C@@:6]12[O:7][H:15])([H:8])([H:9])[H:10]>>[C:1]([C@@:2]1([H:11])[O+:3]=[C-:4][C:5]([H:13])([H:14])[C@:6]1([O:7][H:15])[H:12])([H:8])([H:9])[H:10]"
C       -1.83115391      -0.11463946      -0.26110043
C       -0.63581668       0.61372367       0.29291552
O       -0.29630233       0.22462687       1.64962705
C        1.06600984       0.10635244       1.54716816
C        1.36369775      -0.83358608       0.40028761
C        0.75311166       0.35556159      -0.26904464
O        0.97248490       0.58135471      -1.60951259
H       -1.65468371      -1.18900193      -0.30764689
H       -2.70849495       0.07064561       0.35927349
H       -2.04235862       0.24511211      -1.27017231
H       -0.83396676       1.69028595       0.32310748
H        1.51107803       1.22255339       0.56079202
H        2.44628473      -0.90309742       0.29278534
H        0.89489588      -1.81012595       0.36264942
H        0.99521416      -0.25976551      -2.07112922
15
Frame=10 idx=011187 GeodesicLength=0.6764094698575989 rxn_smarts="[C:1]([C@@:2]1([H:11])[O:3][C@@:4]2([H:12])[C:5]([H:13])([H:14])[C@@:6]12[O:7][H:15])([H:8])([H:9])[H:10]>>[C:1]([C@@:2]1([H:11])[O+:3]=[C-:4][C:5]([H:13])([H:14])[C@:6]1([O:7][H:15])[H:12])([H:8])([H:9])[H:10]"
C       -1.83458655      -0.10437984      -0.26960805
C       -0.63596284       0.61118672       0.29259655
O       -0.30515396       0.20165419       1.64743987
C        1.05565720       0.09932202       1.54955560
C        1.37913001      -0.82865014       0.40501509
C        0.75565294       0.35649558      -0.26516621
O        0.96616490       0.55671921      -1.61257275
H       -1.66243037      -1.17881058      -0.32845418
H       -2.71150037       0.07810293       0.35219285
H       -2.04311340       0.26700268      -1.27500243
H       -0.82956927       1.68810005       0.33663309
H        1.52452668       1.23544080       0.56186902
H        2.46477016      -0.87537114       0.31395562
H        0.93634666      -1.81653960       0.35484070
H        0.94006820      -0.29027289      -2.06329477
15
Frame=11 idx=011187 GeodesicLength=0.7445485251765185 rxn_smarts="[C:1]([C@@:2]1([H:11])[O:3][C@@:4]2([H:12])[C:5]([H:13])([H:14])[C@@:6]12[O:7][H:15])([H:8])([H:9])[H:10]>>[C:1]([C@@:2]1([H:11])[O+:3]=[C-:4][C:5]([H:13])([H:14])[C@:6]1([O:7][H:15])[H:12])([H:8])([H:9])[H:10]"
C       -1.83833824      -0.09387437      -0.27800442
C       -0.63624969       0.60843304       0.29216586
O       -0.31389876       0.17800897       1.64459646
C        1.04528223       0.09190493       1.55140871
C        1.39459747      -0.82365347       0.40952896
C        0.75794360       0.35713084      -0.26168203
O        0.95942645       0.53098919      -1.61562292
H       -1.67086285      -1.16825988      -0.34913930
H       -2.71472776       0.08605959       0.34526741
H       -2.04399063       0.28909404      -1.27961561
H       -0.82520145       1.68550069       0.35034436
H        1.53799054       1.24836101       0.56219174
H        2.48257418      -0.84730919       0.33501906
H        0.97893513      -1.82241422       0.34720609
H        0.88651978      -0.31997116      -2.05366437
15
Frame=12 idx=011187 GeodesicLength=0.8127365010678802 rxn_smarts="[C:1]([C@@:2]1([H:11])[O:3][C@@:4]2([H:12])[C:5]([H:13])([H:14])[C@@:6]12[O:7][H:15])([H:8])([H:9])[H:10]>>[C:1]([C@@:2]1([H:11])[O+:3]=[C-:4][C:5]([H:13])([H:14])[C@:6]1([O:7][H:15])[H:12])([H:8])([H:9])[H:10]"
C       -1.84240722      -0.08310420      -0.28629150
C       -0.63668021       0.60545865       0.29163929
O       -0.32254323       0.15365562       1.64108467
C        1.03486829       0.08405519       1.55274904
C        1.41010468      -0.81858155       0.41383569
C        0.75998717       0.35747315      -0.25857435
O        0.95226318       0.50421674      -1.61860023
H       -1.68000070      -1.15733915      -0.36969528
H       -2.71818076       0.09455266       0.33848684
H       -2.04494920       0.31139550      -1.28402877
H       -0.82086881       1.68247410       0.36428900
H        1.55145891       1.26133211       0.56177734
H        2.49968709      -0.81888670       0.35597811
H        1.02268109      -1.82767403       0.33973133
H        0.83457973      -0.34902808      -2.04238118
15
Frame=13 idx=011187 GeodesicLength=0.8809822361208853 rxn_smarts="[C:1]([C@@:2]1([H:11])[O:3][C@@:4]2([H:12])[C:5]([H:13])([H:14])[C@@:6]12[O:7][H:15])([H:8])([H:9])[H:10]>>[C:1]([C@@:2]1([H:11])[O+:3]=[C-:4][C:5]([H:13])([H:14])[C@:6]1([O:7][H:15])[H:12])([H:8])([H:9])[H:10]"
C       -1.84678819      -0.07204635      -0.29447376
C       -0.63725817       0.60226015       0.29102864
O       -0.33109726       0.12855572       1.63688390
C        1.02439240       0.07571781       1.55359207
C        1.42565692      -0.81342266       0.41793929
C        0.76178672       0.35752555      -0.25582426
O        0.94467192       0.47642794      -1.62145613
H       -1.68986551      -1.14602850      -0.39012117
H       -2.72185664       0.10362188       0.33184045
H       -2.04593001       0.33391604      -1.28825277
H       -0.81657106       1.67900163       0.37850808
H        1.56492108       1.27437462       0.56064142
H        2.51610135      -0.79006914       0.37684032
H        1.06761832      -1.83224505       0.33240296
H        0.78421811      -0.37758966      -2.02954903
15
Frame=14 idx=011187 GeodesicLength=0.9492847312064137 rxn_smarts="[C:1]([C@@:2]1([H:11])[O:3][C@@:4]2([H:12])[C:5]([H:13])([H:14])[C@@:6]12[O:7][H:15])([H:8])([H:9])[H:10]>>[C:1]([C@@:2]1([H:11])[O+:3]=[C-:4][C:5]([H:13])([H:14])[C@:6]1([O:7][H:15])[H:12])([H:8])([H:9])[H:10]"
C       -1.85147398      -0.06068222      -0.30254650
C       -0.63798462       0.59883516       0.29034872
O       -0.33956791       0.10267751       1.63197251
C        1.01383559       0.06684058       1.55395753
C        1.44125876      -0.80816224       0.42184447
C        0.76334627       0.35729135      -0.25341940
O        0.93664791       0.44764881      -1.62413104
H       -1.70047481      -1.13430775      -0.41039794
H       -2.72575141       0.11330777       0.32532535
H       -2.04688636       0.35665911      -1.29230415
H       -0.81230701       1.67506141       0.39304117
H        1.57836226       1.28751943       0.55877764
H        2.53179658      -0.76083097       0.39762851
H        1.11375499      -1.83606320       0.32517483
H        0.73544374      -0.40579474      -2.01527171
15
Frame=15 idx=011187 GeodesicLength=1.0176344319754436 rxn_smarts="[C:1]([C@@:2]1([H:11])[O:3][C@@:4]2([H:12])[C:5]([H:13])([H:14])[C@@:6]12[O:7][H:15])([H:8])([H:9])[H:10]>>[C:1]([C@@:2]1([H:11])[O+:3]=[C-:4][C:5]([H:13])([H:14])[C@:6]1([O:7][H:15])[H:12])([H:8])([H:9])[H:10]"
C       -1.85645497      -0.04899331      -0.31050689
C       -0.63886052       0.59517984       0.28961122
O       -0.34795929       0.07599152       1.62632330
C        1.00318350       0.05737016       1.55385590
C        1.45691044      -0.80278924       0.42555627
C        0.76466849       0.35677005      -0.25134851
O        0.92819011       0.41790058      -1.62657117
H       -1.71184293      -1.12216171      -0.43051490
H       -2.72985505       0.12364735       0.31894079
H       -2.04776675       0.37962813      -1.29619850
H       -0.80807415       1.67063099       0.40792161
H        1.59177083       1.30079214       0.55618232
H        2.54674176      -0.73116016       0.41835914
H        1.16110202      -1.83904371       0.31801911
H        0.68824652      -0.43376264      -1.99962969
15
Frame=16 idx=011187 GeodesicLength=1.086042412332151 rxn_smarts="[C:1]([C@@:2]1([H:11])[O:3][C@@:4]2([H:12])[C:5]([H:13])([H:14])[C@@:6]12[O:7][H:15])([H:8])([H:9])[H:10]>>[C:1]([C@@:2]1([H:11])[O+:3]=[C-:4][C:5]([H:13])([H:14])[C@:6]1([O:7][H:15])[H:12])([H:8])([H:9])[H:10]"
C       -1.86172020      -0.03695713      -0.31835267
C       -0.63988533       0.59129096       0.28882794
O       -0.35627803       0.04846572       1.61990332
C        0.99241806       0.04724332       1.55329623
C        1.47261491      -0.79729096       0.42908014
C        0.76575696       0.35595917      -0.24960076
O        0.91929522       0.38718742      -1.62872748
H       -1.72398377      -1.10956961      -0.45046195
H       -2.73415686       0.13468072       0.31268555
H       -2.04851799       0.40283041      -1.29995414
H       -0.80386799       1.66568676       0.42318469
H        1.60513799       1.31422181       0.55284456
H        2.56090689      -0.70103861       0.43906542
H        1.20968186      -1.84109411       0.31088709
H        0.64259828      -0.46161587      -1.98267794
