16
Frame=0 idx=004638 GeodesicLength=0.0 rxn_smarts="[C:1]1([H:7])([H:8])[C:2]([H:9])([H:10])[C:3]([H:11])([H:12])[C:4]([H:13])=[C:5]([H:14])[C:6]1([H:15])[H:16]>>[C:1]1([H:7])([H:8])[C:2]([H:9])([H:10])[C+:3]([H:12])[C:4]([H:13])=[C-:5][C:6]1([H:15])[H:16].[H:11][H:14]"
C       -0.04053652      -1.41770866      -0.36515474
C       -1.08696251      -0.70188683       0.48969745
C       -0.85256582       0.78796085       0.29720591
C       -0.49711075       1.36422501      -0.95711932
C        0.64259897       0.88336489      -0.33076824
C        1.20098170      -0.51018447      -0.32681809
H       -0.39046989      -1.49951585      -1.39427301
H        0.17363898      -2.42487388      -0.00397314
H       -0.94668723      -0.94076189       1.54787085
H       -2.10620211      -0.98641306       0.21936507
H        0.79799414       1.36134155       1.22642181
H       -1.11382181       1.44060518       1.14378116
H       -0.71167145       2.34366921      -1.35409220
H        1.29306638       1.64395501       0.40070124
H        1.77735140      -0.67133785       0.58815514
H        1.86039657      -0.67243924      -1.18099991
16
Frame=1 idx=004638 GeodesicLength=0.12877964245010032 rxn_smarts="[C:1]1([H:7])([H:8])[C:2]([H:9])([H:10])[C:3]([H:11])([H:12])[C:4]([H:13])=[C:5]([H:14])[C:6]1([H:15])[H:16]>>[C:1]1([H:7])([H:8])[C:2]([H:9])([H:10])[C+:3]([H:12])[C:4]([H:13])=[C-:5][C:6]1([H:15])[H:16].[H:11][H:14]"
C       -0.04216161      -1.41667251      -0.36771074
C       -1.07899194      -0.69867960       0.49652367
C       -0.85667866       0.79129173       0.29832898
C       -0.48391211       1.36008297      -0.95514104
C        0.66637553       0.88420084      -0.34606804
C        1.20473003      -0.51663433      -0.34034292
H       -0.40310229      -1.49807058      -1.39327176
H        0.17083811      -2.42505000      -0.00918781
H       -0.92121160      -0.93402913       1.55328323
H       -2.10083579      -0.99015852       0.24429649
H        0.76250963       1.36839053       1.24953865
H       -1.17113201       1.45188422       1.11852537
H       -0.69376000       2.34309733      -1.34704299
H        1.30048158       1.64839482       0.42513072
H        1.78776006      -0.68063231       0.57013589
H        1.85909106      -0.68741546      -1.19699772
16
Frame=2 idx=004638 GeodesicLength=0.25752993569027827 rxn_smarts="[C:1]1([H:7])([H:8])[C:2]([H:9])([H:10])[C:3]([H:11])([H:12])[C:4]([H:13])=[C:5]([H:14])[C:6]1([H:15])[H:16]>>[C:1]1([H:7])([H:8])[C:2]([H:9])([H:10])[C+:3]([H:12])[C:4]([H:13])=[C-:5][C:6]1([H:15])[H:16].[H:11][H:14]"
C       -0.04388045      -1.41534269      -0.37017177
C       -1.07074420      -0.69522736       0.50368857
C       -0.86104365       0.79491370       0.30009736
C       -0.47009147       1.35621869      -0.95203044
C        0.69095120       0.88499985      -0.36131270
C        1.20846565      -0.52316512      -0.35400327
H       -0.41601800      -1.49599102      -1.39200479
H        0.16774783      -2.42504243      -0.01452620
H       -0.89518195      -0.92691784       1.55871483
H       -2.09487627      -0.99383205       0.26999791
H        0.72641912       1.37649817       1.27199405
H       -1.23032014       1.46111749       1.09070935
H       -0.67534442       2.34254343      -1.33930246
H        1.30823509       1.65216516       0.44958119
H        1.79823077      -0.69034165       0.55179936
H        1.85745088      -0.70259634      -1.21323100
16
Frame=3 idx=004638 GeodesicLength=0.38624015591309346 rxn_smarts="[C:1]1([H:7])([H:8])[C:2]([H:9])([H:10])[C:3]([H:11])([H:12])[C:4]([H:13])=[C:5]([H:14])[C:6]1([H:15])[H:16]>>[C:1]1([H:7])([H:8])[C:2]([H:9])([H:10])[C+:3]([H:12])[C:4]([H:13])=[C-:5][C:6]1([H:15])[H:16].[H:11][H:14]"
C       -0.04570818      -1.41369476      -0.37251739
C       -1.06221099      -0.69150205       0.51121718
C       -0.86571268       0.79885807       0.30252581
C       -0.45563933       1.35266138      -0.94772325
C        0.71632289       0.88575056      -0.37655526
C        1.21216475      -0.52975878      -0.36781932
H       -0.42924454      -1.49325030      -1.39043806
H        0.16434939      -2.42482099      -0.01995913
H       -0.86856807      -0.91937312       1.56417463
H       -2.08828526      -0.99744615       0.29652411
H        0.68973221       1.38571648       1.29387515
H       -1.29131194       1.46805429       1.05999655
H       -0.65641671       2.34205373      -1.33078869
H        1.31635094       1.65519193       0.47411652
H        1.80875447      -0.70047479       0.53310169
H        1.85542304      -0.71796550      -1.22973055
16
Frame=4 idx=004638 GeodesicLength=0.514905891079269 rxn_smarts="[C:1]1([H:7])([H:8])[C:2]([H:9])([H:10])[C:3]([H:11])([H:12])[C:4]([H:13])=[C:5]([H:14])[C:6]1([H:15])[H:16]>>[C:1]1([H:7])([H:8])[C:2]([H:9])([H:10])[C+:3]([H:12])[C:4]([H:13])=[C-:5][C:6]1([H:15])[H:16].[H:11][H:14]"
C       -0.04766185      -1.41170099      -0.37472615
C       -1.05338281      -0.68746943       0.51913751
C       -0.87074748       0.80316329       0.30562680
C       -0.44054577       1.34944325      -0.94215091
C        0.74248514       0.88644615      -0.39185419
C        1.21580073      -0.53639365      -0.38181490
H       -0.44281472      -1.48981859      -1.38853520
H        0.16062319      -2.42435270      -0.02545561
H       -0.84133283      -0.91132956       1.56967298
H       -2.08102015      -1.00101194       0.32394062
H        0.65243748       1.39608632       1.31528632
H       -1.35397802       1.47241881       1.02601804
H       -0.63697126       2.34167430      -1.32142248
H        1.32483979       1.65738425       0.49881526
H        1.81932053      -0.71103456       0.51399461
H        1.85294803      -0.73350496      -1.24653271
16
Frame=5 idx=004638 GeodesicLength=0.6435087668394944 rxn_smarts="[C:1]1([H:7])([H:8])[C:2]([H:9])([H:10])[C:3]([H:11])([H:12])[C:4]([H:13])=[C:5]([H:14])[C:6]1([H:15])[H:16]>>[C:1]1([H:7])([H:8])[C:2]([H:9])([H:10])[C+:3]([H:12])[C:4]([H:13])=[C-:5][C:6]1([H:15])[H:16].[H:11][H:14]"
C       -0.04976043      -1.40932581      -0.37677394
C       -1.04424762      -0.68309003       0.52747929
C       -0.87622325       0.80786829       0.30940677
C       -0.42479879       1.34659533      -0.93523963
C        0.76942529       0.88708207      -0.40727348
C        1.21933981      -0.54304063      -0.39601609
H       -0.45676395      -1.48565633      -1.38625364
H        0.15654876      -2.42359476      -0.03098141
H       -0.81343115      -0.90271320       1.57521707
H       -2.07302924      -1.00453682       0.35232461
H        0.61449537       1.40762795       1.33634522
H       -1.41810535       1.47391704       0.98837624
H       -0.61700245       2.34144258      -1.31112852
H        1.33368745       1.65862564       0.52376809
H        1.82991067      -0.72201412       0.49442506
H        1.84995488      -0.74918720      -1.26367565
16
Frame=6 idx=004638 GeodesicLength=0.7720489607673531 rxn_smarts="[C:1]1([H:7])([H:8])[C:2]([H:9])([H:10])[C:3]([H:11])([H:12])[C:4]([H:13])=[C:5]([H:14])[C:6]1([H:15])[H:16]>>[C:1]1([H:7])([H:8])[C:2]([H:9])([H:10])[C+:3]([H:12])[C:4]([H:13])=[C-:5][C:6]1([H:15])[H:16].[H:11][H:14]"
C       -0.05202514      -1.40653271      -0.37863484
C       -1.03479869      -0.67831804       0.53627105
C       -0.88223312       0.81301852       0.31386218
C       -0.40838645       1.34415157      -0.92691003
C        0.79712785       0.88765903      -0.42288514
C        1.22274613      -0.54966679      -0.41045234
H       -0.47113033      -1.48072816      -1.38354768
H        0.15210412      -2.42250198      -0.03649541
H       -0.78482312      -0.89343314       1.58081124
H       -2.06426094      -1.00802951       0.38175651
H        0.57583356       1.42035997       1.35717662
H       -1.48338265       1.47221820       0.94666876
H       -0.59651106       2.34139860      -1.29982693
H        1.34286739       1.65878627       0.54907124
H        1.84050329      -0.73339737       0.47433651
H        1.84636915      -0.76498447      -1.28120174
16
Frame=7 idx=004638 GeodesicLength=0.9005165936173181 rxn_smarts="[C:1]1([H:7])([H:8])[C:2]([H:9])([H:10])[C:3]([H:11])([H:12])[C:4]([H:13])=[C:5]([H:14])[C:6]1([H:15])[H:16]>>[C:1]1([H:7])([H:8])[C:2]([H:9])([H:10])[C+:3]([H:12])[C:4]([H:13])=[C-:5][C:6]1([H:15])[H:16].[H:11][H:14]"
C       -0.05447765      -1.40328135      -0.38028114
C       -1.02503130      -0.67310412       0.54553773
C       -0.88889478       0.81865518       0.31897170
C       -0.39129760       1.34214351      -0.91708083
C        0.82556566       0.88818002      -0.43876852
C        1.22597588      -0.55623199      -0.42515381
H       -0.48595006      -1.47499684      -1.38036916
H        0.14727022      -2.42102360      -0.04195104
H       -0.75546807      -0.88338650       1.58645247
H       -2.05465726      -1.01149455       0.41232027
H        0.53633687       1.43427951       1.37791146
H       -1.54935823       1.46698966       0.90050977
H       -0.57550603       2.34157404      -1.28744873
H        1.35231858       1.65771320       0.57482997
H        1.85106717      -0.74515680       0.45367147
H        1.84210663      -0.78085938      -1.29915161
16
Frame=8 idx=004638 GeodesicLength=1.0289087992056218 rxn_smarts="[C:1]1([H:7])([H:8])[C:2]([H:9])([H:10])[C:3]([H:11])([H:12])[C:4]([H:13])=[C:5]([H:14])[C:6]1([H:15])[H:16]>>[C:1]1([H:7])([H:8])[C:2]([H:9])([H:10])[C+:3]([H:12])[C:4]([H:13])=[C-:5][C:6]1([H:15])[H:16].[H:11][H:14]"
C       -0.05713994      -1.39953160      -0.38168454
C       -1.01494750      -0.66739767       0.55529646
C       -0.89635366       0.82481395       0.32468701
C       -0.37351954       1.34060077      -0.90566642
C        0.85470240       0.88865160      -0.45501162
C        1.22898033      -0.56269081      -0.44015214
H       -0.50125564      -1.46843099      -1.37666860
H        0.14203036      -2.41910626      -0.04729481
H       -0.72533223      -0.87245618       1.59212697
H       -2.04415919      -1.01493514       0.44409741
H        0.49583668       1.44937787       1.39867765
H       -1.61543238       1.45790068       0.84956915
H       -0.55400369       2.34199191      -1.27393283
H        1.36195252       1.65523539       0.60114954
H        1.86156308      -0.75725366       0.43237188
H        1.83707840      -0.79676982      -1.31756511
16
Frame=9 idx=004638 GeodesicLength=1.1572191373196816 rxn_smarts="[C:1]1([H:7])([H:8])[C:2]([H:9])([H:10])[C:3]([H:11])([H:12])[C:4]([H:13])=[C:5]([H:14])[C:6]1([H:15])[H:16]>>[C:1]1([H:7])([H:8])[C:2]([H:9])([H:10])[C+:3]([H:12])[C:4]([H:13])=[C-:5][C:6]1([H:15])[H:16].[H:11][H:14]"
C       -0.06003054      -1.39524564      -0.38281649
C       -1.00455487      -0.66115049       0.56555191
C       -0.90478377       0.83151539       0.33092298
C       -0.35503749       1.33954821      -0.89257858
C        0.88448848       0.88908114      -0.47171281
C        1.23170503      -0.56899322      -0.45547971
H       -0.51706927      -1.46100762      -1.37239733
H        0.13637604      -2.41669560      -0.05246426
H       -0.69438849      -0.86051385       1.59780556
H       -2.03270438      -1.01834733       0.47716016
H        0.45410071       1.46563267       1.41959248
H       -1.68084847       1.44466237       0.79361738
H       -0.53202891       2.34266014      -1.25923456
H        1.37164275       1.65116005       0.62813173
H        1.87194323      -0.76963878       0.41038080
H        1.83118996      -0.81266742      -1.33647926
16
Frame=10 idx=004638 GeodesicLength=1.285457690279268 rxn_smarts="[C:1]1([H:7])([H:8])[C:2]([H:9])([H:10])[C:3]([H:11])([H:12])[C:4]([H:13])=[C:5]([H:14])[C:6]1([H:15])[H:16]>>[C:1]1([H:7])([H:8])[C:2]([H:9])([H:10])[C+:3]([H:12])[C:4]([H:13])=[C-:5][C:6]1([H:15])[H:16].[H:11][H:14]"
C       -0.06316248      -1.39039443      -0.38364762
C       -0.99387490      -0.65431971       0.57629179
C       -0.91438187       0.83876145       0.33755357
C       -0.33583258       1.33900355      -0.87772037
C        0.91486729       0.88947899      -0.48898427
C        1.23409626      -0.57508676      -0.47117186
H       -0.53339713      -1.45272705      -1.36750776
H        0.13030884      -2.41374038      -0.05738249
H       -0.66263686      -0.84741763       1.60344151
H       -2.02023911      -1.02171934       0.51155196
H        0.41083117       1.48302271       1.44074963
H       -1.74470876       1.42703965       0.73257313
H       -0.50962025       2.34357052      -1.24331570
H        1.38124408       1.64528189       0.65585954
H        1.88215603      -0.78225132       0.38764016
H        1.82435026      -0.82850214      -1.35593121
16
Frame=11 idx=004638 GeodesicLength=1.4136297066293948 rxn_smarts="[C:1]1([H:7])([H:8])[C:2]([H:9])([H:10])[C:3]([H:11])([H:12])[C:4]([H:13])=[C:5]([H:14])[C:6]1([H:15])[H:16]>>[C:1]1([H:7])([H:8])[C:2]([H:9])([H:10])[C+:3]([H:12])[C:4]([H:13])=[C-:5][C:6]1([H:15])[H:16].[H:11][H:14]"
C       -0.06653674      -1.38495813      -0.38414871
C       -0.98293653      -0.64686985       0.58748581
C       -0.92535442       0.84652485       0.34441711
C       -0.31588415       1.33897115      -0.86098488
C        0.94576761       0.88985189      -0.50695288
C        1.23609974      -0.58091733      -0.48726419
H       -0.55022335      -1.44360950      -1.36195826
H        0.12385169      -2.41019515      -0.06196112
H       -0.63009579      -0.83302199       1.60896962
H       -2.00671480      -1.02501310       0.54728216
H        0.36567527       1.50149708       1.46221916
H       -1.80601348       1.40491129       0.66652358
H       -0.48683592       2.34468622      -1.22616459
H        1.39058302       1.63738328       0.68439689
H        1.89214891      -0.79502128       0.36409342
H        1.81646894      -0.84421943      -1.37595313
16
Frame=12 idx=004638 GeodesicLength=1.5417597979341364 rxn_smarts="[C:1]1([H:7])([H:8])[C:2]([H:9])([H:10])[C:3]([H:11])([H:12])[C:4]([H:13])=[C:5]([H:14])[C:6]1([H:15])[H:16]>>[C:1]1([H:7])([H:8])[C:2]([H:9])([H:10])[C+:3]([H:12])[C:4]([H:13])=[C-:5][C:6]1([H:15])[H:16].[H:11][H:14]"
C       -0.07014223      -1.37893059      -0.38428955
C       -0.97178119      -0.63877365       0.59908647
C       -0.93789870       0.85475475       0.35132747
C       -0.29516544       1.33944336      -0.84223905
C        0.97710967       0.89020745      -0.52576086
C        1.23766825      -0.58643189      -0.50379434
H       -0.56751124      -1.43370395      -1.35571119
H        0.11704668      -2.40602450      -0.06609903
H       -0.59681853      -0.81718207       1.61430930
H       -1.99210108      -1.02816349       0.58430893
H        0.31824026       1.52099280       1.48404641
H       -1.86373401       1.37825961       0.59572868
H       -0.46375444       2.34593866      -1.20778665
H        1.39950178       1.62725016       0.71376766
H        1.90187650      -0.80787039       0.33968304
H        1.80746372      -0.85976626      -1.39657729
16
Frame=13 idx=004638 GeodesicLength=1.6698882138481266 rxn_smarts="[C:1]1([H:7])([H:8])[C:2]([H:9])([H:10])[C:3]([H:11])([H:12])[C:4]([H:13])=[C:5]([H:14])[C:6]1([H:15])[H:16]>>[C:1]1([H:7])([H:8])[C:2]([H:9])([H:10])[C+:3]([H:12])[C:4]([H:13])=[C-:5][C:6]1([H:15])[H:16].[H:11][H:14]"
C       -0.07394753      -1.37232040      -0.38403921
C       -0.96046426      -0.63000922       0.61102662
C       -0.95218706       0.86337658       0.35808912
C       -0.27365259       1.34039554      -0.82132007
C        1.00879298       0.89054822      -0.54557398
C        1.23876488      -0.59158072      -0.52079818
H       -0.58519453      -1.42309064      -1.34873850
H        0.10997053      -2.40120445      -0.06968092
H       -0.56290437      -0.79976282       1.61936705
H       -1.97639637      -1.03105648       0.62251344
H        0.26811389       1.54140142       1.50626107
H       -1.91685460       1.34720760       0.52064155
H       -0.44049614       2.34721611      -1.18822233
H        1.40787856       1.61468635       0.74394527
H        1.91130728      -0.82071053       0.31435725
H        1.79726930      -0.87509658      -1.41782818
16
Frame=14 idx=004638 GeodesicLength=1.7980243250946115 rxn_smarts="[C:1]1([H:7])([H:8])[C:2]([H:9])([H:10])[C:3]([H:11])([H:12])[C:4]([H:13])=[C:5]([H:14])[C:6]1([H:15])[H:16]>>[C:1]1([H:7])([H:8])[C:2]([H:9])([H:10])[C+:3]([H:12])[C:4]([H:13])=[C-:5][C:6]1([H:15])[H:16].[H:11][H:14]"
C       -0.07790974      -1.36514504      -0.38335833
C       -0.94905319      -0.62057605       0.62321870
C       -0.96833546       0.87228927       0.36450464
C       -0.25129986       1.34178775      -0.79801632
C        1.04068455       0.89088383      -0.56657665
C        1.23935075      -0.59630258      -0.53830337
H       -0.60317437      -1.41187000      -1.34100453
H        0.10271457      -2.39571179      -0.07256904
H       -0.52850829      -0.78067832       1.62403148
H       -1.95963144      -1.03355850       0.66169612
H        0.21488078       1.56257104       1.52888245
H       -1.96440915       1.31200492       0.44187430
H       -0.41719093       2.34833760      -1.16754652
H        1.41566739       1.59953333       0.77480800
H        1.92039611      -0.83342382       0.28807416
H        1.78581829      -0.89014162      -1.43971510
16
Frame=15 idx=004638 GeodesicLength=1.9261786953334312 rxn_smarts="[C:1]1([H:7])([H:8])[C:2]([H:9])([H:10])[C:3]([H:11])([H:12])[C:4]([H:13])=[C:5]([H:14])[C:6]1([H:15])[H:16]>>[C:1]1([H:7])([H:8])[C:2]([H:9])([H:10])[C+:3]([H:12])[C:4]([H:13])=[C-:5][C:6]1([H:15])[H:16].[H:11][H:14]"
C       -0.08197216      -1.35742320      -0.38220047
C       -0.93763083      -0.61047833       0.63556626
C       -0.98639340       0.88136705       0.37039163
C       -0.22804532       1.34355667      -0.77206278
C        1.07261219       0.89122195      -0.58897119
C        1.23939121      -0.60052511      -0.55632886
H       -0.62133145      -1.40015422      -1.33246676
H        0.09539351      -2.38951657      -0.07461670
H       -0.49384197      -0.75987157       1.62818469
H       -1.94188555      -1.03549959       0.70158250
H        0.15812381       1.58426543       1.55192742
H       -2.00551549       1.27301228       0.36014939
H       -0.39400568       2.34904291      -1.14588931
H        1.42294599       1.58167823       0.80616818
H        1.92910327      -0.84586166       0.26079281
H        1.77305188      -0.90481428      -1.46222680
16
Frame=16 idx=004638 GeodesicLength=2.05444806675377 rxn_smarts="[C:1]1([H:7])([H:8])[C:2]([H:9])([H:10])[C:3]([H:11])([H:12])[C:4]([H:13])=[C:5]([H:14])[C:6]1([H:15])[H:16]>>[C:1]1([H:7])([H:8])[C:2]([H:9])([H:10])[C+:3]([H:12])[C:4]([H:13])=[C-:5][C:6]1([H:15])[H:16].[H:11][H:14]"
C       -0.08604550      -1.34921747      -0.38053958
C       -0.92630573      -0.59972935       0.64796467
C       -1.00635578       0.89050637       0.37559602
C       -0.20385081       1.34564996      -0.74316355
C        1.10433819       0.89157158      -0.61300447
C        1.23888413      -0.60420627      -0.57488988
H       -0.63952007      -1.38811721      -1.32314799
H        0.08819278      -2.38265111      -0.07568874
H       -0.45918059      -0.73733684       1.63175699
H       -1.92332089      -1.03668221       0.74178467
H        0.09741771       1.60621373       1.57549313
H       -2.03942358       1.23083914       0.27635985
H       -0.37122465       2.34902511      -1.12348837
H        1.42997879       1.56109885       0.83780279
H        1.93744295      -0.85787709       0.23251754
H        1.75897306      -0.91908718      -1.48535308
