15
Frame=0 idx=009920 GeodesicLength=0.0 rxn_smarts="[N:1]([C@@:2]([C:3]([C:4]([O:5][H:15])([H:13])[H:14])([H:11])[H:12])([C:6]#[N:7])[H:10])([H:8])[H:9]>>[N:1]([C:2]([C:3]([C:4]([O:5][H:15])([H:13])[H:14])([H:11])[H:12])=[C:6]=[N:7][H:10])([H:8])[H:9]"
N       -2.05887364      -0.73044158       0.13130069
C       -0.89783332       0.01542907       0.02789598
C        0.29466002      -0.58069918      -0.69040804
C        1.60085313       0.18489376      -0.54110877
O        2.08664453       0.17396204       0.78735496
C       -1.09123365       1.51594458      -0.06531572
N       -0.62945356       1.36476913       1.10483582
H       -2.04729120      -1.54216477       0.72606829
H       -2.91589591      -0.20495018       0.17324296
H       -0.39119775       0.17633064       1.28169502
H        0.02052706      -0.61469967      -1.75005177
H        0.44183824      -1.61195510      -0.35768764
H        1.48509890       1.20824804      -0.91041140
H        2.35638933      -0.30224356      -1.16009094
H        1.74576783       0.94757674       1.24268058
15
Frame=1 idx=009920 GeodesicLength=0.10715180390569302 rxn_smarts="[N:1]([C@@:2]([C:3]([C:4]([O:5][H:15])([H:13])[H:14])([H:11])[H:12])([C:6]#[N:7])[H:10])([H:8])[H:9]>>[N:1]([C:2]([C:3]([C:4]([O:5][H:15])([H:13])[H:14])([H:11])[H:12])=[C:6]=[N:7][H:10])([H:8])[H:9]"
N       -2.05956349      -0.73664917       0.12021738
C       -0.89663385       0.01429046       0.03221068
C        0.29411222      -0.58137743      -0.68974586
C        1.60076701       0.18291608      -0.54242383
O        2.09054665       0.15898945       0.78434859
C       -1.09031689       1.50617956      -0.06951383
N       -0.64256247       1.40575364       1.10633050
H       -2.04047279      -1.55593691       0.70482638
H       -2.91647873      -0.21301567       0.18455088
H       -0.40343007       0.20332356       1.30501828
H        0.02026773      -0.61746723      -1.74940139
H        0.44053668      -1.61278001      -0.35693906
H        1.48418354       1.20871576      -0.90511331
H        2.35388474      -0.29945914      -1.16834411
H        1.76515969       0.93651704       1.24397870
15
Frame=2 idx=009920 GeodesicLength=0.21422154802840254 rxn_smarts="[N:1]([C@@:2]([C:3]([C:4]([O:5][H:15])([H:13])[H:14])([H:11])[H:12])([C:6]#[N:7])[H:10])([H:8])[H:9]>>[N:1]([C:2]([C:3]([C:4]([O:5][H:15])([H:13])[H:14])([H:11])[H:12])=[C:6]=[N:7][H:10])([H:8])[H:9]"
N       -2.05998307      -0.74302369       0.10940299
C       -0.89526011       0.01288554       0.03675656
C        0.29353632      -0.58207570      -0.68944676
C        1.60069716       0.18076814      -0.54361551
O        2.09408676       0.14347782       0.78147628
C       -1.08930354       1.49625354      -0.07309413
N       -0.65621244       1.44804337       1.10646244
H       -2.03315504      -1.56964615       0.68382146
H       -2.91655954      -0.22185524       0.19644959
H       -0.41614143       0.23161448       1.32823489
H        0.01988646      -0.61964190      -1.74910540
H        0.43916413      -1.61379461      -0.35704221
H        1.48342357       1.20909161      -0.89938710
H        2.35146020      -0.29670055      -1.17638418
H        1.78436057       0.92460335       1.24547108
15
Frame=3 idx=009920 GeodesicLength=0.321238684984053 rxn_smarts="[N:1]([C@@:2]([C:3]([C:4]([O:5][H:15])([H:13])[H:14])([H:11])[H:12])([C:6]#[N:7])[H:10])([H:8])[H:9]>>[N:1]([C:2]([C:3]([C:4]([O:5][H:15])([H:13])[H:14])([H:11])[H:12])=[C:6]=[N:7][H:10])([H:8])[H:9]"
N       -2.06012742      -0.74956474       0.09888620
C       -0.89369465       0.01120283       0.04156549
C        0.29293223      -0.58279487      -0.68951142
C        1.60064458       0.17844944      -0.54468168
O        2.09726916       0.12741784       0.77872536
C       -1.08817459       1.48616521      -0.07598535
N       -0.67044390       1.49165207       1.10513666
H       -2.02534547      -1.58330910       0.66304184
H       -2.91610977      -0.23147254       0.20894016
H       -0.42932813       0.26124446       1.35133544
H        0.01936879      -0.62119846      -1.74916363
H        0.43772505      -1.61500603      -0.35802727
H        1.48281401       1.20937341      -0.89321497
H        2.34911837      -0.29395444      -1.18421621
H        1.80335173       0.91179491       1.24716938
15
Frame=4 idx=009920 GeodesicLength=0.4282069078508837 rxn_smarts="[N:1]([C@@:2]([C:3]([C:4]([O:5][H:15])([H:13])[H:14])([H:11])[H:12])([C:6]#[N:7])[H:10])([H:8])[H:9]>>[N:1]([C:2]([C:3]([C:4]([O:5][H:15])([H:13])[H:14])([H:11])[H:12])=[C:6]=[N:7][H:10])([H:8])[H:9]"
N       -2.05998988      -0.75626767       0.08869805
C       -0.89191544       0.00923199       0.04667628
C        0.29229965      -0.58353505      -0.68993852
C        1.60061133       0.17595874      -0.54562150
O        2.10010316       0.11079963       0.77607663
C       -1.08690577       1.47591461      -0.07810983
N       -0.68530523       1.53658979       1.10225548
H       -2.01704970      -1.59694486       0.64247205
H       -2.91509669      -0.24187290       0.22202390
H       -0.44299259       0.29226194       1.37429907
H        0.01869646      -0.62211076      -1.74957328
H        0.43622458      -1.61642245      -0.35992340
H        1.48234970       1.20955816      -0.88657656
H        2.34686145      -0.29120709      -1.19184759
H        1.82210897       0.89804591       1.24908923
15
Frame=5 idx=009920 GeodesicLength=0.5351695049647606 rxn_smarts="[N:1]([C@@:2]([C:3]([C:4]([O:5][H:15])([H:13])[H:14])([H:11])[H:12])([C:6]#[N:7])[H:10])([H:8])[H:9]>>[N:1]([C:2]([C:3]([C:4]([O:5][H:15])([H:13])[H:14])([H:11])[H:12])=[C:6]=[N:7][H:10])([H:8])[H:9]"
N       -2.05956957      -0.76312572       0.07886286
C       -0.88990124       0.00695808       0.05212889
C        0.29163911      -0.58429596      -0.69072242
C        1.60060007       0.17329503      -0.54643709
O        2.10260625       0.09362152       0.77351647
C       -1.08546498       1.46550869      -0.07936037
N       -0.70085207       1.58285866       1.09770436
H       -2.00828688      -1.61057518       0.62209644
H       -2.91348975      -0.25305613       0.23568566
H       -0.45712714       0.32469608       1.39711569
H        0.01785070      -0.62235187      -1.75032630
H        0.43467044      -1.61804951      -0.36275166
H        1.48202289       1.20964347      -0.87945741
H        2.34469014      -0.28844853      -1.19929288
H        1.84061200       0.88332136       1.25123776
15
Frame=6 idx=009920 GeodesicLength=0.6421396389022318 rxn_smarts="[N:1]([C@@:2]([C:3]([C:4]([O:5][H:15])([H:13])[H:14])([H:11])[H:12])([C:6]#[N:7])[H:10])([H:8])[H:9]>>[N:1]([C:2]([C:3]([C:4]([O:5][H:15])([H:13])[H:14])([H:11])[H:12])=[C:6]=[N:7][H:10])([H:8])[H:9]"
N       -2.05885936      -0.77013333       0.06940745
C       -0.88762688       0.00436618       0.05797351
C        0.29095153      -0.58507360      -0.69185356
C        1.60061575       0.17045751      -0.54712721
O        2.10480141       0.07586831       0.77101810
C       -1.08381819       1.45495619      -0.07962683
N       -0.71717200       1.63044280       1.09132285
H       -1.99907047      -1.62421648       0.60188497
H       -2.91126344      -0.26502353       0.24993550
H       -0.47171857       0.35859796       1.41977651
H        0.01681182      -0.62188628      -1.75140564
H        0.43306885      -1.61988742      -0.36653760
H        1.48183251       1.20962543      -0.87182933
H        2.34260336      -0.28566058      -1.20656444
H        1.85884368       0.86756685       1.25362571
15
Frame=7 idx=009920 GeodesicLength=0.7491622089680945 rxn_smarts="[N:1]([C@@:2]([C:3]([C:4]([O:5][H:15])([H:13])[H:14])([H:11])[H:12])([C:6]#[N:7])[H:10])([H:8])[H:9]>>[N:1]([C:2]([C:3]([C:4]([O:5][H:15])([H:13])[H:14])([H:11])[H:12])=[C:6]=[N:7][H:10])([H:8])[H:9]"
N       -2.05785795      -0.77727979       0.06036002
C       -0.88506679       0.00143638       0.06426720
C        0.29023829      -0.58586350      -0.69331378
C        1.60066333       0.16744611      -0.54769671
O        2.10672092       0.05753649       0.76854981
C       -1.08192036       1.44426729      -0.07876531
N       -0.73435226       1.67931490       1.08295544
H       -1.98942686      -1.63788049       0.58180411
H       -2.90838909      -0.27776772       0.26474206
H       -0.48674988       0.39398943       1.44227811
H        0.01555687      -0.62068208      -1.75278297
H        0.43142965      -1.62193002      -0.37129192
H        1.48177233       1.20949705      -0.86367771
H        2.34059777      -0.28282956      -1.21368106
H        1.87678403       0.85074551       1.25625270
15
Frame=8 idx=009920 GeodesicLength=0.8562909161534757 rxn_smarts="[N:1]([C@@:2]([C:3]([C:4]([O:5][H:15])([H:13])[H:14])([H:11])[H:12])([C:6]#[N:7])[H:10])([H:8])[H:9]>>[N:1]([C:2]([C:3]([C:4]([O:5][H:15])([H:13])[H:14])([H:11])[H:12])=[C:6]=[N:7][H:10])([H:8])[H:9]"
N       -2.05656012      -0.78455306       0.05174115
C       -0.88219351      -0.00185156       0.07107493
C        0.28950226      -0.58665174      -0.69507796
C        1.60075088       0.16426036      -0.54814616
O        2.10840071       0.03861419       0.76607086
C       -1.07972608       1.43345216      -0.07662085
N       -0.75250974       1.72942869       1.07238495
H       -1.97938179      -1.65157495       0.56181385
H       -2.90484547      -0.29128176       0.28010045
H       -0.50219605       0.43090115       1.46462461
H        0.01406825      -0.61869061      -1.75441428
H        0.42976278      -1.62416058      -0.37702848
H        1.48184246       1.20924641      -0.85497078
H        2.33866835      -0.27993615      -1.22066595
H        1.89441707       0.83279744       1.25911364
15
Frame=9 idx=009920 GeodesicLength=0.9627624063582718 rxn_smarts="[N:1]([C@@:2]([C:3]([C:4]([O:5][H:15])([H:13])[H:14])([H:11])[H:12])([C:6]#[N:7])[H:10])([H:8])[H:9]>>[N:1]([C:2]([C:3]([C:4]([O:5][H:15])([H:13])[H:14])([H:11])[H:12])=[C:6]=[N:7][H:10])([H:8])[H:9]"
N       -2.05490458      -0.79192846       0.04360094
C       -0.87894654      -0.00543386       0.07849417
C        0.28870885      -0.58735108      -0.69711128
C        1.60088123       0.16092757      -0.54844727
O        2.10994553       0.01898691       0.76356567
C       -1.07729985       1.42248535      -0.07353278
N       -0.77183452       1.78051487       1.05939443
H       -1.96889725      -1.66527890       0.54193741
H       -2.90059187      -0.30554901       0.29618146
H       -0.51799021       0.46939781       1.48670534
H        0.01230215      -0.61582931      -1.75620861
H        0.42799968      -1.62647199      -0.38377257
H        1.48207280       1.20891945      -0.84554451
H        2.33676796      -0.27689829      -1.22756719
H        1.91178659       0.81350892       1.26230479
15
Frame=10 idx=009920 GeodesicLength=1.0693948023247573 rxn_smarts="[N:1]([C@@:2]([C:3]([C:4]([O:5][H:15])([H:13])[H:14])([H:11])[H:12])([C:6]#[N:7])[H:10])([H:8])[H:9]>>[N:1]([C:2]([C:3]([C:4]([O:5][H:15])([H:13])[H:14])([H:11])[H:12])=[C:6]=[N:7][H:10])([H:8])[H:9]"
N       -2.05293873      -0.79938473       0.03594345
C       -0.87533441      -0.00938004       0.08653624
C        0.28788333      -0.58800417      -0.69941051
C        1.60106735       0.15742678      -0.54862319
O        2.11135709      -0.00131080       0.76099330
C       -1.07448785       1.41143337      -0.06889887
N       -0.79244425       1.83265668       1.04369088
H       -1.95803350      -1.67902333       0.52208767
H       -2.89561683      -0.32058945       0.31286287
H       -0.53412957       0.50951750       1.50862323
H        0.01024837      -0.61208336      -1.75820537
H        0.42620065      -1.62893953      -0.39152987
H        1.48244350       1.20848786      -0.83545932
H        2.33491671      -0.27374511      -1.23439527
H        1.92886814       0.79293833       1.26578477
15
Frame=11 idx=009920 GeodesicLength=1.1761371266265375 rxn_smarts="[N:1]([C@@:2]([C:3]([C:4]([O:5][H:15])([H:13])[H:14])([H:11])[H:12])([C:6]#[N:7])[H:10])([H:8])[H:9]>>[N:1]([C:2]([C:3]([C:4]([O:5][H:15])([H:13])[H:14])([H:11])[H:12])=[C:6]=[N:7][H:10])([H:8])[H:9]"
N       -2.05065893      -0.80689143       0.02880007
C       -0.87133851      -0.01368484       0.09524535
C        0.28702047      -0.58858378      -0.70194150
C        1.60131420       0.15376967      -0.54867123
O        2.11269599      -0.02231320       0.75830979
C       -1.07126078       1.40031379      -0.06265030
N       -0.81447802       1.88571554       1.02509039
H       -1.94680795      -1.69278259       0.50225301
H       -2.88989747      -0.33638703       0.33010948
H       -0.55056940       0.55125251       1.53039236
H        0.00788832      -0.60742080      -1.76035501
H        0.42435626      -1.63152467      -0.40028787
H        1.48295638       1.20795905      -0.82466185
H        2.33309141      -0.27043631      -1.24118559
H        1.94568803       0.77101408       1.26955290
15
Frame=12 idx=009920 GeodesicLength=1.2829259848339818 rxn_smarts="[N:1]([C@@:2]([C:3]([C:4]([O:5][H:15])([H:13])[H:14])([H:11])[H:12])([C:6]#[N:7])[H:10])([H:8])[H:9]>>[N:1]([C:2]([C:3]([C:4]([O:5][H:15])([H:13])[H:14])([H:11])[H:12])=[C:6]=[N:7][H:10])([H:8])[H:9]"
N       -2.04805254      -0.81441879       0.02220183
C       -0.86693316      -0.01833917       0.10466282
C        0.28611487      -0.58904970      -0.70467075
C        1.60163282       0.14996419      -0.54857997
O        2.11402713      -0.04408183       0.75545844
C       -1.06758609       1.38915143      -0.05471027
N       -0.83812957       1.93951141       1.00331231
H       -1.93522070      -1.70652668       0.48241066
H       -2.88342008      -0.35293348       0.34795541
H       -0.56725566       0.59465013       1.55202790
H        0.00520193      -0.60178175      -1.76259803
H        0.42245159      -1.63417600      -0.41005456
H        1.48362740       1.20733404      -0.81306477
H        2.33127157      -0.26691612      -1.24796543
H        1.96227047       0.74761231       1.27361444
15
Frame=13 idx=009920 GeodesicLength=1.3896834585441078 rxn_smarts="[N:1]([C@@:2]([C:3]([C:4]([O:5][H:15])([H:13])[H:14])([H:11])[H:12])([C:6]#[N:7])[H:10])([H:8])[H:9]>>[N:1]([C:2]([C:3]([C:4]([O:5][H:15])([H:13])[H:14])([H:11])[H:12])=[C:6]=[N:7][H:10])([H:8])[H:9]"
N       -2.04511151      -0.82194291       0.01619029
C       -0.86209460      -0.02333790       0.11483347
C        0.28515900      -0.58935571      -0.70756541
C        1.60202822       0.14603162      -0.54834145
O        2.11540353      -0.06667782       0.75239353
C       -1.06342930       1.37797168      -0.04497008
N       -0.86354430       1.99381986       0.97805865
H       -1.92328711      -1.72023179       0.46258525
H       -2.87617809      -0.37020761       0.36635761
H       -0.58412242       0.63973311       1.57355593
H        0.00217136      -0.59509235      -1.76487977
H        0.42046153      -1.63684515      -0.42083070
H        1.48447543       1.20663084      -0.80059259
H        2.32942631      -0.26312867      -1.25477153
H        1.97864196       0.72263281       1.27797678
15
Frame=14 idx=009920 GeodesicLength=1.4962813069398013 rxn_smarts="[N:1]([C@@:2]([C:3]([C:4]([O:5][H:15])([H:13])[H:14])([H:11])[H:12])([C:6]#[N:7])[H:10])([H:8])[H:9]>>[N:1]([C:2]([C:3]([C:4]([O:5][H:15])([H:13])[H:14])([H:11])[H:12])=[C:6]=[N:7][H:10])([H:8])[H:9]"
N       -2.04181785      -0.82942350       0.01081267
C       -0.85679892      -0.02865679       0.12580468
C        0.28414817      -0.58943653      -0.71058002
C        1.60251693       0.14198502      -0.54793792
O        2.11689643      -0.09018342       0.74902436
C       -1.05874570       1.36681693      -0.03330610
N       -0.89098049       2.04828861       0.94892944
H       -1.91100990      -1.73381992       0.44280804
H       -2.86816707      -0.38817593       0.38531446
H       -0.60110184       0.68654838       1.59500101
H       -0.00121442      -0.58726225      -1.76711623
H        0.41836434      -1.63944342      -0.43262322
H        1.48553061       1.20584200      -0.78712456
H        2.32753170      -0.25898739      -1.26163008
H        1.99484800       0.69590822       1.28262348
15
Frame=15 idx=009920 GeodesicLength=1.6026751041871088 rxn_smarts="[N:1]([C@@:2]([C:3]([C:4]([O:5][H:15])([H:13])[H:14])([H:11])[H:12])([C:6]#[N:7])[H:10])([H:8])[H:9]>>[N:1]([C:2]([C:3]([C:4]([O:5][H:15])([H:13])[H:14])([H:11])[H:12])=[C:6]=[N:7][H:10])([H:8])[H:9]"
N       -2.03814935      -0.83681095       0.00612662
C       -0.85101707      -0.03426731       0.13763139
C        0.28307538      -0.58921574      -0.71368845
C        1.60311713       0.13784059      -0.54735576
O        2.11857922      -0.11470986       0.74529197
C       -1.05347155       1.35573738      -0.01953080
N       -0.92073848       2.10249825       0.91542235
H       -1.89838844      -1.74721661       0.42315162
H       -2.85937404      -0.40679647       0.40482961
H       -0.61812687       0.73517393       1.61639955
H       -0.00497610      -0.57816079      -1.76926070
H        0.41613280      -1.64189666      -0.44547711
H        1.48683286       1.20498169      -0.77253333
H        2.32556476      -0.25441937      -1.26858459
H        2.01093976       0.66726192       1.28757762
15
Frame=16 idx=009920 GeodesicLength=1.7089296041655104 rxn_smarts="[N:1]([C@@:2]([C:3]([C:4]([O:5][H:15])([H:13])[H:14])([H:11])[H:12])([C:6]#[N:7])[H:10])([H:8])[H:9]>>[N:1]([C:2]([C:3]([C:4]([O:5][H:15])([H:13])[H:14])([H:11])[H:12])=[C:6]=[N:7][H:10])([H:8])[H:9]"
N       -2.03407014      -0.84405683       0.00220291
C       -0.84471218      -0.04011795       0.15037216
C        0.28192109      -0.58860175      -0.71689119
C        1.60384829       0.13361258      -0.54657509
O        2.12053738      -0.14041823       0.74116553
C       -1.04753597       1.34482680      -0.00341308
N       -0.95315807       2.15597086       0.87690017
H       -1.88539644      -1.76036265       0.40369217
H       -2.84977984      -0.42607015       0.42495164
H       -0.63511967       0.78578336       1.63782331
H       -0.00915504      -0.56762169      -1.77131607
H        0.41371721      -1.64414607      -0.45948207
H        1.48843419       1.20409180      -0.75666405
H        2.32349110      -0.24935148      -1.27569747
H        2.02697809       0.63646139       1.29293115
