10
Frame=0 idx=004492 GeodesicLength=0.0 rxn_smarts="[N:1]([c:2]1[n:3][c:4]([H:9])[c:5]([H:10])[o:6]1)([H:7])[H:8]>>[N:1]([C:2]1=[N:3][C:4]([H:9])([H:10])[C-:5]=[O+:6]1)([H:7])[H:8]"
N        1.86280028       0.01451312      -0.44993409
C        0.56733823       0.01979254      -0.08822380
N       -0.23910032       1.02137628      -0.03492444
C       -1.43531229       0.40502500       0.35653707
C       -1.29862113      -0.99334139       0.59986937
O        0.02183178      -1.18435495       0.21148698
H        2.32878257       0.90038980      -0.51082252
H        2.40936380      -0.80275175      -0.25197322
H       -2.29259002       0.99116960       0.66015853
H       -1.92449289      -0.37181825      -0.49217388
10
Frame=1 idx=004492 GeodesicLength=0.042420045529100746 rxn_smarts="[N:1]([c:2]1[n:3][c:4]([H:9])[c:5]([H:10])[o:6]1)([H:7])[H:8]>>[N:1]([C:2]1=[N:3][C:4]([H:9])([H:10])[C-:5]=[O+:6]1)([H:7])[H:8]"
N        1.86465143       0.01458308      -0.45197408
C        0.57012650       0.02271023      -0.08433116
N       -0.23826125       1.02204663      -0.03942543
C       -1.43748074       0.40681715       0.34839126
C       -1.29600534      -0.98944483       0.59506507
O        0.02319987      -1.18301438       0.21421523
H        2.33247814       0.90006126      -0.50562328
H        2.41002649      -0.80310066      -0.25206653
H       -2.28693151       0.99388011       0.67167142
H       -1.94180359      -0.38453860      -0.49592249
10
Frame=2 idx=004492 GeodesicLength=0.08490979052064904 rxn_smarts="[N:1]([c:2]1[n:3][c:4]([H:9])[c:5]([H:10])[o:6]1)([H:7])[H:8]>>[N:1]([C:2]1=[N:3][C:4]([H:9])([H:10])[C-:5]=[O+:6]1)([H:7])[H:8]"
N        1.86676415       0.01476916      -0.45360123
C        0.57264885       0.02551394      -0.08195041
N       -0.23758196       1.02260346      -0.04519120
C       -1.43957055       0.40868977       0.34008007
C       -1.29321903      -0.98543700       0.59021064
O        0.02437830      -1.18173580       0.21581260
H        2.33633533       0.89986008      -0.49963267
H        2.41082516      -0.80324813      -0.25108175
H       -2.28032190       0.99667842       0.68395638
H       -1.96025834      -0.39769389      -0.49860243
10
Frame=3 idx=004492 GeodesicLength=0.12742864956535793 rxn_smarts="[N:1]([c:2]1[n:3][c:4]([H:9])[c:5]([H:10])[o:6]1)([H:7])[H:8]>>[N:1]([C:2]1=[N:3][C:4]([H:9])([H:10])[C-:5]=[O+:6]1)([H:7])[H:8]"
N        1.86926661       0.01510775      -0.45471121
C        0.57477717       0.02806944      -0.08180251
N       -0.23717087       1.02292756      -0.05282233
C       -1.44154682       0.41063710       0.33163616
C       -1.29017050      -0.98129733       0.58536083
O        0.02530141      -1.18061329       0.21577354
H        2.34039211       0.89987802      -0.49243475
H        2.41185162      -0.80307503      -0.24853853
H       -2.27246925       0.99967476       0.69730216
H       -1.98023148      -0.41130900      -0.49976337
10
Frame=4 idx=004492 GeodesicLength=0.16990501385371704 rxn_smarts="[N:1]([c:2]1[n:3][c:4]([H:9])[c:5]([H:10])[o:6]1)([H:7])[H:8]>>[N:1]([C:2]1=[N:3][C:4]([H:9])([H:10])[C-:5]=[O+:6]1)([H:7])[H:8]"
N        1.87215255       0.01562259      -0.45526289
C        0.57650880       0.03040082      -0.08393193
N       -0.23707202       1.02301853      -0.06245994
C       -1.44342660       0.41266403       0.32305290
C       -1.28684793      -0.97703195       0.58051619
O        0.02594574      -1.17963692       0.21402360
H        2.34458591       0.90014101      -0.48381214
H        2.41306035      -0.80260783      -0.24452298
H       -2.26316186       1.00283053       0.71158698
H       -2.00174495      -0.42540081      -0.49918980
10
Frame=5 idx=004492 GeodesicLength=0.2124629633872015 rxn_smarts="[N:1]([c:2]1[n:3][c:4]([H:9])[c:5]([H:10])[o:6]1)([H:7])[H:8]>>[N:1]([C:2]1=[N:3][C:4]([H:9])([H:10])[C-:5]=[O+:6]1)([H:7])[H:8]"
N        1.87494001       0.01615419      -0.45580005
C        0.57848409       0.03295180      -0.08479172
N       -0.23678959       1.02322572      -0.07129839
C       -1.44543941       0.41473210       0.31424020
C       -1.28380233      -0.97279898       0.57509300
O        0.02660902      -1.17856299       0.21265297
H        2.34866870       0.90032080      -0.47592948
H        2.41421097      -0.80217820      -0.24092840
H       -2.25362987       1.00579616       0.72531775
H       -2.02325159      -0.43964061      -0.49855588
10
Frame=6 idx=004492 GeodesicLength=0.2550436491909579 rxn_smarts="[N:1]([c:2]1[n:3][c:4]([H:9])[c:5]([H:10])[o:6]1)([H:7])[H:8]>>[N:1]([C:2]1=[N:3][C:4]([H:9])([H:10])[C-:5]=[O+:6]1)([H:7])[H:8]"
N        1.87789526       0.01678850      -0.45602734
C        0.58037009       0.03548394      -0.08625560
N       -0.23658627       1.02335289      -0.08084849
C       -1.44745337       0.41684373       0.30527225
C       -1.28075047      -0.96854541       0.56933245
O        0.02713313      -1.17754061       0.21048792
H        2.35276170       0.90060464      -0.46764655
H        2.41544702      -0.80159413      -0.23669192
H       -2.24321073       1.00876705       0.73924173
H       -2.04560635      -0.45416059      -0.49686446
10
Frame=7 idx=004492 GeodesicLength=0.2977529146461465 rxn_smarts="[N:1]([c:2]1[n:3][c:4]([H:9])[c:5]([H:10])[o:6]1)([H:7])[H:8]>>[N:1]([C:2]1=[N:3][C:4]([H:9])([H:10])[C-:5]=[O+:6]1)([H:7])[H:8]"
N        1.88108998       0.01758706      -0.45587591
C        0.58208663       0.03792547      -0.08880440
N       -0.23655346       1.02330927      -0.09160988
C       -1.44944354       0.41903127       0.29616419
C       -1.27760976      -0.96422124       0.56333930
O        0.02749400      -1.17660251       0.20727302
H        2.35692353       0.90106974      -0.45838293
H        2.41675399      -0.80084384      -0.23178764
H       -2.23169067       1.01179297       0.75342581
H       -2.06905071      -0.46904817      -0.49374155
10
Frame=8 idx=004492 GeodesicLength=0.34046301792584177 rxn_smarts="[N:1]([c:2]1[n:3][c:4]([H:9])[c:5]([H:10])[o:6]1)([H:7])[H:8]>>[N:1]([C:2]1=[N:3][C:4]([H:9])([H:10])[C-:5]=[O+:6]1)([H:7])[H:8]"
N        1.88469268       0.01861484      -0.45521827
C        0.58355004       0.04015318      -0.09325088
N       -0.23682544       1.02297892      -0.10431122
C       -1.45144575       0.42130007       0.28696392
C       -1.27432376      -0.95981407       0.55719742
O        0.02762781      -1.17584192       0.20243542
H        2.36117906       0.90183362      -0.44746977
H        2.41821576      -0.79986297      -0.22587209
H       -2.21874393       1.01500825       0.76807436
H       -2.09392646      -0.48436992      -0.48854889
10
Frame=9 idx=004492 GeodesicLength=0.38323534455883485 rxn_smarts="[N:1]([c:2]1[n:3][c:4]([H:9])[c:5]([H:10])[o:6]1)([H:7])[H:8]>>[N:1]([C:2]1=[N:3][C:4]([H:9])([H:10])[C-:5]=[O+:6]1)([H:7])[H:8]"
N        1.88883954       0.01997275      -0.45365799
C        0.58438672       0.04191451      -0.10130214
N       -0.23762657       1.02208847      -0.12039876
C       -1.45311423       0.42356872       0.27763350
C       -1.27049594      -0.95534789       0.55094512
O        0.02732638      -1.17548675       0.19459421
H        2.36538696       0.90307635      -0.43404370
H        2.41984495      -0.79830897      -0.21753417
H       -2.20345263       1.01856389       0.78392410
H       -2.12109517      -0.50004107      -0.48016017
10
Frame=10 idx=004492 GeodesicLength=0.42607752715421393 rxn_smarts="[N:1]([c:2]1[n:3][c:4]([H:9])[c:5]([H:10])[o:6]1)([H:7])[H:8]>>[N:1]([C:2]1=[N:3][C:4]([H:9])([H:10])[C-:5]=[O+:6]1)([H:7])[H:8]"
N        1.89335873       0.02161164      -0.45147734
C        0.58494887       0.04339000      -0.11147181
N       -0.23878810       1.02080028      -0.13866205
C       -1.45470926       0.42589134       0.26821413
C       -1.26644800      -0.95085477       0.54439987
O        0.02677379      -1.17540225       0.18480713
H        2.36943598       0.90469181      -0.41869539
H        2.42154277      -0.79646414      -0.20801805
H       -2.18640639       1.02235584       0.80007702
H       -2.14970839      -0.51601975      -0.46917350
10
Frame=11 idx=004492 GeodesicLength=0.4689487801185429 rxn_smarts="[N:1]([c:2]1[n:3][c:4]([H:9])[c:5]([H:10])[o:6]1)([H:7])[H:8]>>[N:1]([C:2]1=[N:3][C:4]([H:9])([H:10])[C-:5]=[O+:6]1)([H:7])[H:8]"
N        1.89809044       0.02346834      -0.44874363
C        0.58536361       0.04460707      -0.12306683
N       -0.24015609       1.01914198      -0.15840938
C       -1.45620576       0.42827747       0.25867192
C       -1.26225630      -0.94636485       0.53732891
O        0.02599988      -1.17554892       0.17334022
H        2.37312355       0.90659996      -0.40208446
H        2.42321362      -0.79428822      -0.19741871
H       -2.16776517       1.02621883       0.81619290
H       -2.17940778      -0.53211167      -0.45581095
10
Frame=12 idx=004492 GeodesicLength=0.5118837214014984 rxn_smarts="[N:1]([c:2]1[n:3][c:4]([H:9])[c:5]([H:10])[o:6]1)([H:7])[H:8]>>[N:1]([C:2]1=[N:3][C:4]([H:9])([H:10])[C-:5]=[O+:6]1)([H:7])[H:8]"
N        1.90289869       0.02551142      -0.44556237
C        0.58571661       0.04569130      -0.13552659
N       -0.24163061       1.01723102      -0.17906811
C       -1.45757536       0.43068487       0.24903890
C       -1.25803237      -0.94199216       0.52953793
O        0.02505797      -1.17589742       0.16065433
H        2.37635933       0.90873598      -0.38466479
H        2.42476247      -0.79185781      -0.18601084
H       -2.14775461       1.03008507       0.83195766
H       -2.20980213      -0.54819227      -0.44035613
10
Frame=13 idx=004492 GeodesicLength=0.5548334732859193 rxn_smarts="[N:1]([c:2]1[n:3][c:4]([H:9])[c:5]([H:10])[o:6]1)([H:7])[H:8]>>[N:1]([C:2]1=[N:3][C:4]([H:9])([H:10])[C-:5]=[O+:6]1)([H:7])[H:8]"
N        1.90769222       0.02770662      -0.44206684
C        0.58613730       0.04676170      -0.14820793
N       -0.24308904       1.01518140      -0.20004817
C       -1.45888250       0.43312053       0.23929249
C       -1.25388968      -0.93773656       0.52095075
O        0.02402991      -1.17634068       0.14724034
H        2.37916156       0.91099808      -0.36675715
H        2.42612215      -0.78930372      -0.17431348
H       -2.12676992       1.03382958       0.84699102
H       -2.24051200      -0.56421697      -0.42308104
10
Frame=14 idx=004492 GeodesicLength=0.5978066759559237 rxn_smarts="[N:1]([c:2]1[n:3][c:4]([H:9])[c:5]([H:10])[o:6]1)([H:7])[H:8]>>[N:1]([C:2]1=[N:3][C:4]([H:9])([H:10])[C-:5]=[O+:6]1)([H:7])[H:8]"
N        1.91239681       0.03000345      -0.43837270
C        0.58670974       0.04791031      -0.16054416
N       -0.24441893       1.01310552      -0.22079997
C       -1.46015969       0.43560273       0.22941360
C       -1.24992899      -0.93361176       0.51146997
O        0.02297557      -1.17680208       0.13350070
H        2.38156707       0.91329903      -0.34877258
H        2.42727004      -0.78670962      -0.16265234
H       -2.10517389       1.03734419       0.86103523
H       -2.27123774      -0.58014177      -0.40427776
10
Frame=15 idx=004492 GeodesicLength=0.6407820044146212 rxn_smarts="[N:1]([c:2]1[n:3][c:4]([H:9])[c:5]([H:10])[o:6]1)([H:7])[H:8]>>[N:1]([C:2]1=[N:3][C:4]([H:9])([H:10])[C-:5]=[O+:6]1)([H:7])[H:8]"
N        1.91699506       0.03237122      -0.43454724
C        0.58747127       0.04918936      -0.17229117
N       -0.24555290       1.01108130      -0.24103753
C       -1.46143675       0.43814372       0.21938858
C       -1.24621300      -0.92961731       0.50104256
O        0.02193452      -1.17722860       0.11965103
H        2.38363845       0.91558060      -0.33089874
H        2.42821374      -0.78413213      -0.15120309
H       -2.08322998       1.04055696       0.87395967
H       -2.30182042      -0.59594514      -0.38406408
10
Frame=16 idx=004492 GeodesicLength=0.683759364097769 rxn_smarts="[N:1]([c:2]1[n:3][c:4]([H:9])[c:5]([H:10])[o:6]1)([H:7])[H:8]>>[N:1]([C:2]1=[N:3][C:4]([H:9])([H:10])[C-:5]=[O+:6]1)([H:7])[H:8]"
N        1.92148502       0.03478071      -0.43063166
C        0.58843050       0.05062408      -0.18333288
N       -0.24644366       1.00917296      -0.26058434
C       -1.46272320       0.44076310       0.20920765
C       -1.24279044      -0.92575832       0.48961181
O        0.02092553      -1.17759261       0.10580967
H        2.38543535       0.91780845      -0.31328405
H        2.42897046      -0.78159886      -0.14001382
H       -2.06113144       1.04341259       0.88572080
H       -2.33215812      -0.61161210      -0.36250317
