15
Frame=0 idx=011676 GeodesicLength=0.0 rxn_smarts="[O:1]([C:2]([C@@:3]1([H:11])[C:4]([H:12])([H:13])[C@:5]1([C:6]#[C:7][H:15])[H:14])([H:9])[H:10])[H:8]>>[C@@:3]12([H:11])[C:4]([H:12])([H:13])[C@:5]1([H:14])[C:6]2=[C:7]([H:8])[H:15].[O:1]=[C:2]([H:9])[H:10]"
O       -1.53665997      -0.11539825       1.67759893
C       -1.41301039       0.41242273       0.49187311
C       -0.38623112      -0.37215553      -0.55794818
C        0.26614746       0.42251431      -1.63803638
C        1.25262662      -0.36441946      -0.85680587
C        1.12965378      -0.22485243       0.50104172
C        1.03606735      -0.23254368       1.77832061
H       -0.11748925      -0.33815303       2.05513787
H       -1.05360976       1.46469413       0.45065552
H       -2.31461572       0.33569941      -0.14615993
H       -0.74496178      -1.36999520      -0.78055146
H        0.14814783       0.09329867      -2.66287797
H        0.23889510       1.49878842      -1.50013862
H        1.67279125      -1.27398752      -1.26893403
H        1.82224854       0.06408737       2.45682463
15
Frame=1 idx=011676 GeodesicLength=0.09145036648607358 rxn_smarts="[O:1]([C:2]([C@@:3]1([H:11])[C:4]([H:12])([H:13])[C@:5]1([C:6]#[C:7][H:15])[H:14])([H:9])[H:10])[H:8]>>[C@@:3]12([H:11])[C:4]([H:12])([H:13])[C@:5]1([H:14])[C:6]2=[C:7]([H:8])[H:15].[O:1]=[C:2]([H:9])[H:10]"
O       -1.53984073      -0.11449417       1.68167606
C       -1.42685664       0.41310715       0.49492855
C       -0.38021359      -0.37749576      -0.56496634
C        0.27170741       0.42297540      -1.64150966
C        1.25003563      -0.37344816      -0.85876087
C        1.13260842      -0.22105080       0.50160021
C        1.04639968      -0.22606049       1.77824284
H       -0.12475196      -0.32891725       2.06482130
H       -1.06612848       1.46436857       0.45551382
H       -2.33049202       0.33331591      -0.13869193
H       -0.74821322      -1.37072590      -0.79403941
H        0.15366260       0.09884389      -2.66801233
H        0.25054878       1.49870216      -1.49879475
H        1.67666041      -1.28000745      -1.26985460
H        1.83487370       0.06088688       2.45784708
15
Frame=2 idx=011676 GeodesicLength=0.18290156890360437 rxn_smarts="[O:1]([C:2]([C@@:3]1([H:11])[C:4]([H:12])([H:13])[C@:5]1([C:6]#[C:7][H:15])[H:14])([H:9])[H:10])[H:8]>>[C@@:3]12([H:11])[C:4]([H:12])([H:13])[C@:5]1([H:14])[C:6]2=[C:7]([H:8])[H:15].[O:1]=[C:2]([H:9])[H:10]"
O       -1.54311415      -0.11370726       1.68577308
C       -1.44084570       0.41388763       0.49819103
C       -0.37417168      -0.38300051      -0.57211478
C        0.27743679       0.42334767      -1.64492906
C        1.24751340      -0.38260927      -0.86073103
C        1.13552610      -0.21763280       0.50206089
C        1.05693712      -0.21966156       1.77802987
H       -0.13228082      -0.32046562       2.07450089
H       -1.07839136       1.46400033       0.46063693
H       -2.34661535       0.33137194      -0.13088034
H       -0.75165691      -1.37134488      -0.80780297
H        0.15940667       0.10441752      -2.67310844
H        0.26237428       1.49846252      -1.49733490
H        1.68062406      -1.28604747      -1.27091485
H        1.84725755       0.05898176       2.45862368
15
Frame=3 idx=011676 GeodesicLength=0.27435244117361723 rxn_smarts="[O:1]([C:2]([C@@:3]1([H:11])[C:4]([H:12])([H:13])[C@:5]1([C:6]#[C:7][H:15])[H:14])([H:9])[H:10])[H:8]>>[C@@:3]12([H:11])[C:4]([H:12])([H:13])[C@:5]1([H:14])[C:6]2=[C:7]([H:8])[H:15].[O:1]=[C:2]([H:9])[H:10]"
O       -1.54649496      -0.11302608       1.68988295
C       -1.45499261       0.41477922       0.50165750
C       -0.36809977      -0.38867319      -0.57939603
C        0.28332907       0.42362229      -1.64830496
C        1.24506635      -0.39188143      -0.86271632
C        1.13840391      -0.21456236       0.50242898
C        1.06768622      -0.21329956       1.77767927
H       -0.14009574      -0.31280476       2.08418752
H       -1.09041599       1.46360087       0.46601213
H       -2.36299938       0.32987592      -0.12272371
H       -0.75526842      -1.37185504      -0.82182437
H        0.16538185       0.10999367      -2.67817062
H        0.27434599       1.49806195      -1.49578536
H        1.68470086      -1.29208734      -1.27209464
H        1.85945263       0.05825584       2.45916766
15
Frame=4 idx=011676 GeodesicLength=0.36579449684624665 rxn_smarts="[O:1]([C:2]([C@@:3]1([H:11])[C:4]([H:12])([H:13])[C@:5]1([C:6]#[C:7][H:15])[H:14])([H:9])[H:10])[H:8]>>[C@@:3]12([H:11])[C:4]([H:12])([H:13])[C@:5]1([H:14])[C:6]2=[C:7]([H:8])[H:15].[O:1]=[C:2]([H:9])[H:10]"
O       -1.54999784      -0.11244053       1.69399828
C       -1.46931233       0.41579533       0.50532514
C       -0.36199176      -0.39451731      -0.58681250
C        0.28937815       0.42379151      -1.65164664
C        1.24270177      -0.40124428      -0.86471648
C        1.14123821      -0.21180454       0.50271028
C        1.07865165      -0.20693857       1.77718879
H       -0.14821743      -0.30592659       2.09389415
H       -1.10222169       1.46317963       0.47162686
H       -2.37965753       0.32883366      -0.11422033
H       -0.75902291      -1.37225931      -0.83608646
H        0.17158997       0.11554889      -2.68320273
H        0.28643956       1.49749404      -1.49416991
H        1.68891001      -1.29810782      -1.27337531
H        1.87151216       0.05859590       2.45948685
15
Frame=5 idx=011676 GeodesicLength=0.45722456982621873 rxn_smarts="[O:1]([C:2]([C@@:3]1([H:11])[C:4]([H:12])([H:13])[C@:5]1([C:6]#[C:7][H:15])[H:14])([H:9])[H:10])[H:8]>>[C@@:3]12([H:11])[C:4]([H:12])([H:13])[C@:5]1([H:14])[C:6]2=[C:7]([H:8])[H:15].[O:1]=[C:2]([H:9])[H:10]"
O       -1.55363570      -0.11194423       1.69811180
C       -1.48381769       0.41694992       0.50919308
C       -0.35584191      -0.40053776      -0.59436704
C        0.29557891       0.42384802      -1.65496294
C        1.24042633      -0.41068192      -0.86673245
C        1.14402606      -0.20933325       0.50290852
C        1.08984146      -0.20053429       1.77655469
H       -0.15666625      -0.29984114       2.10362768
H       -1.11382093       1.46274533       0.47747335
H       -2.39660305       0.32825685      -0.10536767
H       -0.76289902      -1.37256249      -0.85057453
H        0.17803208       0.12106267      -2.68820904
H        0.29863386       1.49675344      -1.49250946
H        1.69326607      -1.30409308      -1.27474128
H        1.88347978       0.05991191       2.45959529
15
Frame=6 idx=011676 GeodesicLength=0.5486406712071606 rxn_smarts="[O:1]([C:2]([C@@:3]1([H:11])[C:4]([H:12])([H:13])[C@:5]1([C:6]#[C:7][H:15])[H:14])([H:9])[H:10])[H:8]>>[C@@:3]12([H:11])[C:4]([H:12])([H:13])[C@:5]1([H:14])[C:6]2=[C:7]([H:8])[H:15].[O:1]=[C:2]([H:9])[H:10]"
O       -1.55742351      -0.11153820       1.70221518
C       -1.49852219       0.41825538       0.51326155
C       -0.34964411      -0.40674003      -0.60206383
C        0.30192887       0.42378493      -1.65826013
C        1.23824721      -0.42018389      -0.86876428
C        1.14676250      -0.20712981       0.50302912
C        1.10126108      -0.19405837       1.77577154
H       -0.16546447      -0.29455822       2.11340074
H       -1.12522372       1.46230297       0.48355011
H       -2.41384763       0.32816408      -0.09615891
H       -0.76687800      -1.37276634      -0.86527910
H        0.18471209       0.12651901      -2.69319278
H        0.31091409       1.49583460      -1.49081795
H        1.69778445      -1.31003249      -1.27617893
H        1.89539333       0.06214637       2.45948769
15
Frame=7 idx=011676 GeodesicLength=0.6400464506308533 rxn_smarts="[O:1]([C:2]([C@@:3]1([H:11])[C:4]([H:12])([H:13])[C@:5]1([C:6]#[C:7][H:15])[H:14])([H:9])[H:10])[H:8]>>[C@@:3]12([H:11])[C:4]([H:12])([H:13])[C@:5]1([H:14])[C:6]2=[C:7]([H:8])[H:15].[O:1]=[C:2]([H:9])[H:10]"
O       -1.56137737      -0.11123039       1.70629861
C       -1.51343678       0.41972486       0.51753405
C       -0.34339295      -0.41313088      -0.60990813
C        0.30842757       0.42359582      -1.66154327
C        1.23617071      -0.42974629      -0.87081389
C        1.14944261      -0.20518728       0.50307600
C        1.11291702      -0.18748161       1.77483308
H       -0.17463529      -0.29011374       2.12322578
H       -1.13642945       1.46185752       0.48986495
H       -2.43140199       0.32858246      -0.08658879
H       -0.77094640      -1.37287242      -0.88019640
H        0.19163432       0.13190650      -2.69815703
H        0.32327175       1.49473255      -1.48910344
H        1.70247407      -1.31592305      -1.27767924
H        1.90728219       0.06528595       2.45915773
15
Frame=8 idx=011676 GeodesicLength=0.7314370498117558 rxn_smarts="[O:1]([C:2]([C@@:3]1([H:11])[C:4]([H:12])([H:13])[C@:5]1([C:6]#[C:7][H:15])[H:14])([H:9])[H:10])[H:8]>>[C@@:3]12([H:11])[C:4]([H:12])([H:13])[C@:5]1([H:14])[C:6]2=[C:7]([H:8])[H:15].[O:1]=[C:2]([H:9])[H:10]"
O       -1.56550748      -0.11102108       1.71035525
C       -1.52857317       0.42137128       0.52201162
C       -0.33708195      -0.41971646      -0.61790360
C        0.31507158       0.42327380      -1.66481976
C        1.23420466      -0.43935762      -0.87288229
C        1.15206339      -0.20348734       0.50305186
C        1.12481965      -0.18075549       1.77373253
H       -0.18419953      -0.28652346       2.13310569
H       -1.14744679       1.46141370       0.49641618
H       -2.44927930       0.32953028      -0.07664983
H       -0.77508435      -1.37288446      -0.89531318
H        0.19880054       0.13720778      -2.70310642
H        0.33569008       1.49344342      -1.48738230
H        1.70734760      -1.32175467      -1.27922981
H        1.91917507       0.06926032       2.45861406
15
Frame=9 idx=011676 GeodesicLength=0.822809601720168 rxn_smarts="[O:1]([C:2]([C@@:3]1([H:11])[C:4]([H:12])([H:13])[C@:5]1([C:6]#[C:7][H:15])[H:14])([H:9])[H:10])[H:8]>>[C@@:3]12([H:11])[C:4]([H:12])([H:13])[C@:5]1([H:14])[C:6]2=[C:7]([H:8])[H:15].[O:1]=[C:2]([H:9])[H:10]"
O       -1.56982991      -0.11092376       1.71437357
C       -1.54393952       0.42320845       0.52670045
C       -0.33070600      -0.42650401      -0.62605647
C        0.32186194       0.42281321      -1.66809366
C        1.23235420      -0.44902193      -0.87497476
C        1.15462046      -0.20203420       0.50295972
C        1.13697524      -0.17386187       1.77246323
H       -0.19417992      -0.28383754       2.14305034
H       -1.15826881       1.46097304       0.50321662
H       -2.46748760       0.33104303      -0.06633452
H       -0.77928260      -1.37280376      -0.91062907
H        0.20621338       0.14241693      -2.70804391
H        0.34816725       1.49196277      -1.48565720
H        1.71241013      -1.32752896      -1.28082765
H        1.93109176       0.07409860       2.45785331
15
Frame=10 idx=011676 GeodesicLength=0.9141717477133384 rxn_smarts="[O:1]([C:2]([C@@:3]1([H:11])[C:4]([H:12])([H:13])[C@:5]1([C:6]#[C:7][H:15])[H:14])([H:9])[H:10])[H:8]>>[C@@:3]12([H:11])[C:4]([H:12])([H:13])[C@:5]1([H:14])[C:6]2=[C:7]([H:8])[H:15].[O:1]=[C:2]([H:9])[H:10]"
O       -1.57436020      -0.11096158       1.71834362
C       -1.55954366       0.42524835       0.53160794
C       -0.32426003      -0.43350196      -0.63437421
C        0.32880504       0.42220938      -1.67136392
C        1.23062577      -0.45874711      -0.87709205
C        1.15710639      -0.20084396       0.50280513
C        1.14939217      -0.16679153       1.77101132
H       -0.20460458      -0.28210674       2.15307343
H       -1.16888339       1.46053254       0.51028998
H       -2.48603325       0.33316348      -0.05562878
H       -0.78353524      -1.37262814      -0.92614894
H        0.21388317       0.14753357      -2.71296884
H        0.36070935       1.49028504      -1.48392091
H        1.71766622      -1.33325608      -1.28247032
H        1.94303226       0.07986476       2.45683653
15
Frame=11 idx=011676 GeodesicLength=1.0055303399713926 rxn_smarts="[O:1]([C:2]([C@@:3]1([H:11])[C:4]([H:12])([H:13])[C@:5]1([C:6]#[C:7][H:15])[H:14])([H:9])[H:10])[H:8]>>[C@@:3]12([H:11])[C:4]([H:12])([H:13])[C@:5]1([H:14])[C:6]2=[C:7]([H:8])[H:15].[O:1]=[C:2]([H:9])[H:10]"
O       -1.57911527      -0.11116468       1.72225141
C       -1.57538858       0.42750582       0.53674686
C       -0.31774043      -0.44072113      -0.64286705
C        0.33590859       0.42145697      -1.67462938
C        1.22902275      -0.46855094      -0.87924089
C        1.15951534      -0.19994922       0.50259070
C        1.16207975      -0.15953910       1.76936473
H       -0.21550085      -0.28142241       2.16318057
H       -1.17926462       1.46008937       0.51766886
H       -2.50492259       0.33594951      -0.04451765
H       -0.78784293      -1.37235388      -0.94188443
H        0.22181859       0.15256217      -2.71788188
H        0.37332935       1.48840443      -1.48216083
H        1.72311177      -1.33895426      -1.28416380
H        1.95498912       0.08668735       2.45554278
15
Frame=12 idx=011676 GeodesicLength=1.0968850249589877 rxn_smarts="[O:1]([C:2]([C@@:3]1([H:11])[C:4]([H:12])([H:13])[C@:5]1([C:6]#[C:7][H:15])[H:14])([H:9])[H:10])[H:8]>>[C@@:3]12([H:11])[C:4]([H:12])([H:13])[C@:5]1([H:14])[C:6]2=[C:7]([H:8])[H:15].[O:1]=[C:2]([H:9])[H:10]"
O       -1.58410432      -0.11155578       1.72608848
C       -1.59147815       0.42999683       0.54212807
C       -0.31114240      -0.44817164      -0.65154350
C        0.34317710       0.42055014      -1.67789154
C        1.22755046      -0.47844270      -0.88142737
C        1.16184388      -0.19936887       0.50231805
C        1.17505100      -0.15208438       1.76751072
H       -0.22689437      -0.28185409       2.17337089
H       -1.18939540       1.45964083       0.52537783
H       -2.52416213       0.33944912      -0.03298736
H       -0.79219940      -1.37197901      -0.95783713
H        0.23002547       0.15750100      -2.72278468
H        0.38603186       1.48631481      -1.48037327
H        1.72874670      -1.34463429      -1.28591104
H        1.96694968       0.09463802       2.45396184
15
Frame=13 idx=011676 GeodesicLength=1.1882351887193567 rxn_smarts="[O:1]([C:2]([C@@:3]1([H:11])[C:4]([H:12])([H:13])[C@:5]1([C:6]#[C:7][H:15])[H:14])([H:9])[H:10])[H:8]>>[C@@:3]12([H:11])[C:4]([H:12])([H:13])[C@:5]1([H:14])[C:6]2=[C:7]([H:8])[H:15].[O:1]=[C:2]([H:9])[H:10]"
O       -1.58934414      -0.11218821       1.72983985
C       -1.60780760       0.43273576       0.54777186
C       -0.30446562      -0.45586606      -0.66041894
C        0.35062936       0.41948626      -1.68113983
C        1.22620851      -0.48846293      -0.88366190
C        1.16408394      -0.19917778       0.50199173
C        1.18831349      -0.14448195       1.76543308
H       -0.23881586      -0.28352742       2.18365315
H       -1.19922769       1.45917514       0.53347409
H       -2.54374957       0.34374365      -0.02101383
H       -0.79662180      -1.37148888      -0.97403947
H        0.23852118       0.16237507      -2.72767172
H        0.39885790       1.48400770      -1.47851913
H        1.73455297      -1.35033863      -1.28773408
H        1.97886494       0.10400830       2.45203515
15
Frame=14 idx=011676 GeodesicLength=1.2795889444152453 rxn_smarts="[O:1]([C:2]([C@@:3]1([H:11])[C:4]([H:12])([H:13])[C@:5]1([C:6]#[C:7][H:15])[H:14])([H:9])[H:10])[H:8]>>[C@@:3]12([H:11])[C:4]([H:12])([H:13])[C@:5]1([H:14])[C:6]2=[C:7]([H:8])[H:15].[O:1]=[C:2]([H:9])[H:10]"
O       -1.59484957      -0.11312226       1.73349072
C       -1.62436756       0.43573994       0.55370322
C       -0.29771055      -0.46381909      -0.66951110
C        0.35828746       0.41826200      -1.68436160
C        1.22499536      -0.49865820      -0.88595705
C        1.16622834      -0.19946408       0.50161528
C        1.20188175      -0.13678274       1.76311232
H       -0.25129806      -0.28659456       2.19402888
H       -1.20870229       1.45867742       0.54202493
H       -2.56368013       0.34892663      -0.00856862
H       -0.80113101      -1.37086496      -0.99052390
H        0.24732644       0.16721308      -2.73253580
H        0.41185484       1.48147227      -1.47655339
H        1.74050741      -1.35611763      -1.28966034
H        1.99065756       0.11513218       2.44969646
15
Frame=15 idx=011676 GeodesicLength=1.3709456702047829 rxn_smarts="[O:1]([C:2]([C@@:3]1([H:11])[C:4]([H:12])([H:13])[C@:5]1([C:6]#[C:7][H:15])[H:14])([H:9])[H:10])[H:8]>>[C@@:3]12([H:11])[C:4]([H:12])([H:13])[C@:5]1([H:14])[C:6]2=[C:7]([H:8])[H:15].[O:1]=[C:2]([H:9])[H:10]"
O       -1.60063366      -0.11444213       1.73702602
C       -1.64113803       0.43902732       0.55995690
C       -0.29088319      -0.47204836      -0.67884508
C        0.36618479       0.41687644      -1.68753501
C        1.22390315      -0.50910091      -0.88833309
C        1.16826931      -0.20036620       0.50119174
C        1.21577033      -0.12910383       1.76052931
H       -0.26437555      -0.29126243       2.20449553
H       -1.21773128       1.45812564       0.55112557
H       -2.58394021       0.35511972       0.00438128
H       -0.80576771      -1.37007413      -1.00734591
H        0.25647016       0.17206636      -2.73736445
H        0.42509994       1.47869400      -1.47440346
H        1.74656538      -1.36205106      -1.29173858
H        2.00220658       0.12853959       2.44685924
15
Frame=16 idx=011676 GeodesicLength=1.4623035608502895 rxn_smarts="[O:1]([C:2]([C@@:3]1([H:11])[C:4]([H:12])([H:13])[C@:5]1([C:6]#[C:7][H:15])[H:14])([H:9])[H:10])[H:8]>>[C@@:3]12([H:11])[C:4]([H:12])([H:13])[C@:5]1([H:14])[C:6]2=[C:7]([H:8])[H:15].[O:1]=[C:2]([H:9])[H:10]"
O       -1.60670899      -0.11626474       1.74042794
C       -1.65808252       0.44261824       0.56658253
C       -0.28399641      -0.48057635      -0.68845640
C        0.37437102       0.41533108      -1.69062510
C        1.22291606      -0.51989861      -0.89081964
C        1.17019865      -0.20209101       0.50072363
C        1.22999787      -0.12164915       1.75766415
H       -0.27808757      -0.29781128       2.21504323
H       -1.22618638       1.45748586       0.56090937
H       -2.60450218       0.36248463       0.01788364
H       -0.81059848      -1.36906372      -1.02459071
H        0.26599439       0.17701629      -2.74213662
H        0.43871140       1.47565274      -1.47195827
H        1.75265510      -1.36825795      -1.29404570
H        2.01331804       0.14502399       2.44339796
