14
Frame=0 idx=007009 GeodesicLength=0.0 rxn_smarts="[C:1]([C@@:2]1([H:11])[C:3]([H:12])=[C:4]([H:13])[N:5]([H:14])[C:6]1=[O:7])([H:8])([H:9])[H:10]>>[C:1]([C@@:2]1([H:11])[C:3]([H:12])=[C:4]([H:13])[N:5]=[C:6]1[O:7][H:14])([H:8])([H:9])[H:10]"
C       -1.75739303       0.09842183       0.25924075
C       -0.42336416       0.26034758      -0.46839032
C        0.56969081       1.21928733       0.16298128
C        1.70244272       0.56238970       0.43734194
N        1.59952664      -0.78766808       0.05181809
C        0.40914732      -0.98661597      -0.45364333
O        0.27725627      -2.20977154      -0.77657325
H       -2.31482631       1.03508427       0.24196245
H       -1.59606583      -0.18370473       1.30043069
H       -2.36130657      -0.67429130      -0.21791877
H       -0.61140178       0.53005613      -1.51380244
H        0.37385899       2.26434699       0.34871579
H        2.61030483       0.93749608       0.88412293
H        1.52213009      -2.06537833      -0.25628580
14
Frame=1 idx=007009 GeodesicLength=0.032685518337891975 rxn_smarts="[C:1]([C@@:2]1([H:11])[C:3]([H:12])=[C:4]([H:13])[N:5]([H:14])[C:6]1=[O:7])([H:8])([H:9])[H:10]>>[C:1]([C@@:2]1([H:11])[C:3]([H:12])=[C:4]([H:13])[N:5]=[C:6]1[O:7][H:14])([H:8])([H:9])[H:10]"
C       -1.75471549       0.09618902       0.25871821
C       -0.42300576       0.26530440      -0.47125490
C        0.56972562       1.22192553       0.16210801
C        1.70147928       0.56322521       0.43482174
N        1.60173455      -0.78522812       0.04234632
C        0.41145408      -0.98054942      -0.46912731
O        0.26954593      -2.20838137      -0.76942278
H       -2.31607998       1.03058286       0.24397283
H       -1.58977302      -0.18675265       1.29916226
H       -2.35546244      -0.67914304      -0.21817062
H       -0.61433377       0.53828632      -1.51524300
H        0.37356396       2.26607245       0.35244817
H        2.60783829       0.93503565       0.88753093
H        1.51802876      -2.07656685      -0.23788986
14
Frame=2 idx=007009 GeodesicLength=0.0653658106257269 rxn_smarts="[C:1]([C@@:2]1([H:11])[C:3]([H:12])=[C:4]([H:13])[N:5]([H:14])[C:6]1=[O:7])([H:8])([H:9])[H:10]>>[C:1]([C@@:2]1([H:11])[C:3]([H:12])=[C:4]([H:13])[N:5]=[C:6]1[O:7][H:14])([H:8])([H:9])[H:10]"
C       -1.75209126       0.09401333       0.25822554
C       -0.42264365       0.27004049      -0.47397449
C        0.56976056       1.22443671       0.16123630
C        1.70049980       0.56394945       0.43237920
N        1.60381618      -0.78295798       0.03330751
C        0.41361344      -0.97474241      -0.48405969
O        0.26200392      -2.20664995      -0.76249367
H       -2.31729703       1.02616172       0.24577291
H       -1.58367065      -0.18952845       1.29799123
H       -2.34968615      -0.68395284      -0.21831449
H       -0.61717928       0.54614554      -1.51657333
H        0.37333885       2.26771529       0.35589882
H        2.60534948       0.93245403       0.89093160
H        1.51418580      -2.08708493      -0.22032744
14
Frame=3 idx=007009 GeodesicLength=0.09803040132798117 rxn_smarts="[C:1]([C@@:2]1([H:11])[C:3]([H:12])=[C:4]([H:13])[N:5]([H:14])[C:6]1=[O:7])([H:8])([H:9])[H:10]>>[C:1]([C@@:2]1([H:11])[C:3]([H:12])=[C:4]([H:13])[N:5]=[C:6]1[O:7][H:14])([H:8])([H:9])[H:10]"
C       -1.74955250       0.09192191       0.25775654
C       -0.42228495       0.27455909      -0.47652378
C        0.56978507       1.22682078       0.16040363
C        1.69948541       0.56455861       0.43008040
N        1.60574630      -0.78087536       0.02479958
C        0.41559699      -0.96920947      -0.49833970
O        0.25463813      -2.20463206      -0.75574707
H       -2.31850346       1.02185474       0.24731214
H       -1.57783187      -0.19197048       1.29692950
H       -2.34400094      -0.68870383      -0.21835109
H       -0.61990574       0.55360397      -1.51778640
H        0.37318055       2.26928638       0.35907522
H        2.60287754       0.92979585       0.89424319
H        1.51076946      -2.09701013      -0.20385217
14
Frame=4 idx=007009 GeodesicLength=0.1306759587490736 rxn_smarts="[C:1]([C@@:2]1([H:11])[C:3]([H:12])=[C:4]([H:13])[N:5]([H:14])[C:6]1=[O:7])([H:8])([H:9])[H:10]>>[C:1]([C@@:2]1([H:11])[C:3]([H:12])=[C:4]([H:13])[N:5]=[C:6]1[O:7][H:14])([H:8])([H:9])[H:10]"
C       -1.74715847       0.08991419       0.25725107
C       -0.42192398       0.27888444      -0.47885171
C        0.56976630       1.22905746       0.15979122
C        1.69837547       0.56500706       0.42816269
N        1.60748373      -0.77901451       0.01699001
C        0.41739822      -0.96394363      -0.51189449
O        0.24746528      -2.20235239      -0.74920076
H       -2.31975119       1.01767183       0.24852119
H       -1.57240893      -0.19412151       1.29592576
H       -2.33843231      -0.69337426      -0.21842131
H       -0.62241294       0.56072691      -1.51884277
H        0.37305111       2.27076448       0.36218876
H        2.60073468       0.92726645       0.89680031
H        1.50781303      -2.10648653      -0.18841995
14
Frame=5 idx=007009 GeodesicLength=0.16326583624903834 rxn_smarts="[C:1]([C@@:2]1([H:11])[C:3]([H:12])=[C:4]([H:13])[N:5]([H:14])[C:6]1=[O:7])([H:8])([H:9])[H:10]>>[C:1]([C@@:2]1([H:11])[C:3]([H:12])=[C:4]([H:13])[N:5]=[C:6]1[O:7][H:14])([H:8])([H:9])[H:10]"
C       -1.74502958       0.08796768       0.25655745
C       -0.42153810       0.28305140      -0.48083524
C        0.56963402       1.23106952       0.15981947
C        1.69702891       0.56514828       0.42718439
N        1.60894166      -0.77745052       0.01024610
C        0.41901751      -0.95891277      -0.52458183
O        0.24050930      -2.19982000      -0.74289413
H       -2.32113810       1.01359582       0.24924388
H       -1.56772307      -0.19611858       1.29481991
H       -2.33303116      -0.69791263      -0.21886991
H       -0.62447515       0.56766595      -1.51962130
H        0.37286985       2.27205214       0.36573211
H        2.59967799       0.92533865       0.89701255
H        1.50525594      -2.11567494      -0.17381344
14
Frame=6 idx=007009 GeodesicLength=0.19585983778662505 rxn_smarts="[C:1]([C@@:2]1([H:11])[C:3]([H:12])=[C:4]([H:13])[N:5]([H:14])[C:6]1=[O:7])([H:8])([H:9])[H:10]>>[C:1]([C@@:2]1([H:11])[C:3]([H:12])=[C:4]([H:13])[N:5]=[C:6]1[O:7][H:14])([H:8])([H:9])[H:10]"
C       -1.74287129       0.08612697       0.25603481
C       -0.42119741       0.28705598      -0.48280152
C        0.56954962       1.23307453       0.15948608
C        1.69578444       0.56535853       0.42576807
N        1.61037849      -0.77592431       0.00350227
C        0.42047913      -0.95408103      -0.53687852
O        0.23373120      -2.19709993      -0.73678654
H       -2.32244998       1.00963763       0.24992198
H       -1.56296026      -0.19769709       1.29396153
H       -2.32766606      -0.70243138      -0.21889169
H       -0.62667798       0.57417240      -1.52042687
H        0.37280806       2.27339702       0.36859783
H        2.59792048       0.92295755       0.89869958
H        1.50317156      -2.12454689      -0.16018700
14
Frame=7 idx=007009 GeodesicLength=0.2284325414323105 rxn_smarts="[C:1]([C@@:2]1([H:11])[C:3]([H:12])=[C:4]([H:13])[N:5]([H:14])[C:6]1=[O:7])([H:8])([H:9])[H:10]>>[C:1]([C@@:2]1([H:11])[C:3]([H:12])=[C:4]([H:13])[N:5]=[C:6]1[O:7][H:14])([H:8])([H:9])[H:10]"
C       -1.74078754       0.08437531       0.25555514
C       -0.42088126       0.29092579      -0.48464852
C        0.56945316       1.23501294       0.15914871
C        1.69451608       0.56551285       0.42440757
N        1.61171521      -0.77451078      -0.00291683
C        0.42178221      -0.94943373      -0.54866902
O        0.22714557      -2.19421563      -0.73086735
H       -2.32376839       1.00579368       0.25042587
H       -1.55840015      -0.19897588       1.29322084
H       -2.32238233      -0.70688678      -0.21878358
H       -0.62882364       0.58037366      -1.52116555
H        0.37280151       2.27473318       0.37119508
H        2.59609086       0.92050836       0.90050847
H        1.50153871      -2.13321295      -0.14741083
14
Frame=8 idx=007009 GeodesicLength=0.26095815511128717 rxn_smarts="[C:1]([C@@:2]1([H:11])[C:3]([H:12])=[C:4]([H:13])[N:5]([H:14])[C:6]1=[O:7])([H:8])([H:9])[H:10]>>[C:1]([C@@:2]1([H:11])[C:3]([H:12])=[C:4]([H:13])[N:5]=[C:6]1[O:7][H:14])([H:8])([H:9])[H:10]"
C       -1.73880511       0.08271285       0.25508907
C       -0.42058842       0.29467316      -0.48635391
C        0.56932906       1.23687304       0.15888886
C        1.69318675       0.56558028       0.42322837
N        1.61293657      -0.77321787      -0.00894798
C        0.42292586      -0.94495924      -0.55993354
O        0.22075760      -2.19118111      -0.72509658
H       -2.32511406       1.00206691       0.25072825
H       -1.55410890      -0.19997953       1.29256598
H       -2.31719540      -0.71126245      -0.21861298
H       -0.63087071       0.58630241      -1.52181714
H        0.37283782       2.27604996       0.37360436
H        2.59432678       0.91808189       0.90214715
H        1.50038216      -2.14174029      -0.13548990
14
Frame=9 idx=007009 GeodesicLength=0.2934510454714694 rxn_smarts="[C:1]([C@@:2]1([H:11])[C:3]([H:12])=[C:4]([H:13])[N:5]([H:14])[C:6]1=[O:7])([H:8])([H:9])[H:10]>>[C:1]([C@@:2]1([H:11])[C:3]([H:12])=[C:4]([H:13])[N:5]=[C:6]1[O:7][H:14])([H:8])([H:9])[H:10]"
C       -1.73689938       0.08111560       0.25464070
C       -0.42031833       0.29832766      -0.48794825
C        0.56918268       1.23867129       0.15868986
C        1.69182019       0.56558631       0.42215256
N        1.61406714      -0.77201773      -0.01469963
C        0.42393638      -0.94061413      -0.57079250
O        0.21457003      -2.18799767      -0.71953509
H       -2.32648199       0.99842343       0.25088776
H       -1.55002124      -0.20077833       1.29198375
H       -2.31207886      -0.71557701      -0.21838658
H       -0.63285255       0.59202823      -1.52239662
H        0.37291415       2.27735544       0.37585406
H        2.59260532       0.91565968       0.90366276
H        1.49955647      -2.15018275      -0.12411280
14
Frame=10 idx=007009 GeodesicLength=0.3259350070523253 rxn_smarts="[C:1]([C@@:2]1([H:11])[C:3]([H:12])=[C:4]([H:13])[N:5]([H:14])[C:6]1=[O:7])([H:8])([H:9])[H:10]>>[C:1]([C@@:2]1([H:11])[C:3]([H:12])=[C:4]([H:13])[N:5]=[C:6]1[O:7][H:14])([H:8])([H:9])[H:10]"
C       -1.73520417       0.07952946       0.25401351
C       -0.42003024       0.30192734      -0.48929486
C        0.56893362       1.24030903       0.15907141
C        1.69025528       0.56535619       0.42184719
N        1.61501847      -0.77100533      -0.01976929
C        0.42484681      -0.93636818      -0.58114168
O        0.20858053      -2.18464383      -0.71424296
H       -2.32798144       0.99482625       0.25073437
H       -1.54650832      -0.20161359       1.29127153
H       -2.30708282      -0.71978640      -0.21856891
H       -0.63448858       0.59777226      -1.52276594
H        0.37291984       2.27851418       0.37861624
H        2.59190714       0.91385820       0.90302976
H        1.49883387      -2.15867557      -0.11280038
14
Frame=11 idx=007009 GeodesicLength=0.35839848314842515 rxn_smarts="[C:1]([C@@:2]1([H:11])[C:3]([H:12])=[C:4]([H:13])[N:5]([H:14])[C:6]1=[O:7])([H:8])([H:9])[H:10]>>[C:1]([C@@:2]1([H:11])[C:3]([H:12])=[C:4]([H:13])[N:5]=[C:6]1[O:7][H:14])([H:8])([H:9])[H:10]"
C       -1.73355819       0.07797822       0.25339823
C       -0.41976034       0.30546944      -0.49056462
C        0.56867049       1.24189917       0.15950256
C        1.68868727       0.56508770       0.42155403
N        1.61591262      -0.77005317      -0.02468792
C        0.42566047      -0.93219423      -0.59122985
O        0.20279177      -2.18115314      -0.70921478
H       -2.32949872       0.99126937       0.25048745
H       -1.54313189      -0.20232154       1.29060832
H       -2.30212662      -0.72395679      -0.21871946
H       -0.63609145       0.60340215      -1.52307688
H        0.37294322       2.27964761       0.38132502
H        2.59125616       0.91206607       0.90225695
H        1.49824522      -2.16714087      -0.10163904
14
Frame=12 idx=007009 GeodesicLength=0.39087678531540276 rxn_smarts="[C:1]([C@@:2]1([H:11])[C:3]([H:12])=[C:4]([H:13])[N:5]([H:14])[C:6]1=[O:7])([H:8])([H:9])[H:10]>>[C:1]([C@@:2]1([H:11])[C:3]([H:12])=[C:4]([H:13])[N:5]=[C:6]1[O:7][H:14])([H:8])([H:9])[H:10]"
C       -1.73185998       0.07646942       0.25291275
C       -0.41953272       0.30895740      -0.49186934
C        0.56844503       1.24352120       0.15965530
C        1.68723488       0.56491538       0.42079410
N        1.61682781      -0.76907566      -0.02980928
C        0.42637845      -0.92807409      -0.60123376
O        0.19720207      -2.17754143      -0.70445201
H       -2.33096116       0.98774446       0.25030890
H       -1.53961438      -0.20283172       1.29010035
H       -2.29715931      -0.72813040      -0.21858219
H       -0.63785986       0.60884939      -1.52342926
H        0.37303998       2.28084300       0.38362735
H        2.59006868       0.90988951       0.90259508
H        1.49779052      -2.17553647      -0.09061799
14
Frame=13 idx=007009 GeodesicLength=0.42332737410583593 rxn_smarts="[C:1]([C@@:2]1([H:11])[C:3]([H:12])=[C:4]([H:13])[N:5]([H:14])[C:6]1=[O:7])([H:8])([H:9])[H:10]>>[C:1]([C@@:2]1([H:11])[C:3]([H:12])=[C:4]([H:13])[N:5]=[C:6]1[O:7][H:14])([H:8])([H:9])[H:10]"
C       -1.73014028       0.07497119       0.25248709
C       -0.41933001       0.31241203      -0.49316891
C        0.56823469       1.24513261       0.15970601
C        1.68587108       0.56478206       0.41973533
N        1.61772776      -0.76810785      -0.03499028
C        0.42702236      -0.92397115      -0.61115541
O        0.19182277      -2.17379109      -0.70003113
H       -2.33239943       0.98421301       0.25016443
H       -1.53605156      -0.20326079       1.28965720
H       -2.29218043      -0.73229288      -0.21832533
H       -0.63970888       0.61421299      -1.52376671
H        0.37316885       2.28203549       0.38578434
H        2.58866778       0.90753638       0.90332444
H        1.49729530      -2.18387200      -0.07942107
14
Frame=14 idx=007009 GeodesicLength=0.45576498718486014 rxn_smarts="[C:1]([C@@:2]1([H:11])[C:3]([H:12])=[C:4]([H:13])[N:5]([H:14])[C:6]1=[O:7])([H:8])([H:9])[H:10]>>[C:1]([C@@:2]1([H:11])[C:3]([H:12])=[C:4]([H:13])[N:5]=[C:6]1[O:7][H:14])([H:8])([H:9])[H:10]"
C       -1.72852496       0.07348808       0.25199048
C       -0.41913203       0.31582941      -0.49434119
C        0.56797702       1.24665911       0.16000952
C        1.68441882       0.56453553       0.41899869
N        1.61852795      -0.76723630      -0.03984928
C        0.42758623      -0.91991944      -0.62079480
O        0.18662167      -2.16991026      -0.69582048
H       -2.33389239       0.98071342       0.24987272
H       -1.53277395      -0.20367809       1.28917164
H       -2.28726422      -0.73639007      -0.21823604
H       -0.64141685       0.61955475      -1.52399409
H        0.37328091       2.28315294       0.38813335
H        2.58771205       0.90545307       0.90310728
H        1.49687976      -2.19225216      -0.06824780
14
Frame=15 idx=007009 GeodesicLength=0.4881976059471628 rxn_smarts="[C:1]([C@@:2]1([H:11])[C:3]([H:12])=[C:4]([H:13])[N:5]([H:14])[C:6]1=[O:7])([H:8])([H:9])[H:10]>>[C:1]([C@@:2]1([H:11])[C:3]([H:12])=[C:4]([H:13])[N:5]=[C:6]1[O:7][H:14])([H:8])([H:9])[H:10]"
C       -1.72705401       0.07198997       0.25135777
C       -0.41892014       0.31923221      -0.49534217
C        0.56764542       1.24807226       0.16075567
C        1.68283483       0.56411824       0.41879502
N        1.61919814      -0.76649991      -0.04424322
C        0.42809969      -0.91589016      -0.63014523
O        0.18160766      -2.16591546      -0.69190053
H       -2.33548017       0.97721977       0.24938705
H       -1.52989670      -0.20418857       1.28857601
H       -2.28241673      -0.74042185      -0.21847710
H       -0.64288643       0.62497752      -1.52406535
H        0.37333746       2.28416080       0.39091670
H        2.58754709       0.90387378       0.90121547
H        1.49638389      -2.20072861      -0.05683008
14
Frame=16 idx=007009 GeodesicLength=0.5206242973970044 rxn_smarts="[C:1]([C@@:2]1([H:11])[C:3]([H:12])=[C:4]([H:13])[N:5]([H:14])[C:6]1=[O:7])([H:8])([H:9])[H:10]>>[C:1]([C@@:2]1([H:11])[C:3]([H:12])=[C:4]([H:13])[N:5]=[C:6]1[O:7][H:14])([H:8])([H:9])[H:10]"
C       -1.72558092       0.07050950       0.25076907
C       -0.41873297       0.32260751      -0.49632794
C        0.56732043       1.24947595       0.16143796
C        1.68129483       0.56371818       0.41841848
N        1.61984790      -0.76577734      -0.04866674
C        0.42854344      -0.91187753      -0.63940720
O        0.17677162      -2.16182439      -0.68821201
H       -2.33705387       0.97373761       0.24891114
H       -1.52701756      -0.20462106       1.28803760
H       -2.27757191      -0.74443517      -0.21863188
H       -0.64440998       0.63032892      -1.52412088
H        0.37342626       2.28517364       0.39357283
H        2.58723877       0.90217667       0.89958874
H        1.49592395      -2.20919248      -0.04536916
