14
Frame=0 idx=002003 GeodesicLength=0.0 rxn_smarts="[C:1]([C:2]1([H:10])[C:3]([H:11])([H:12])[C:4](=[O:5])[C:6]1([H:13])[H:14])([H:7])([H:8])[H:9]>>[C:1]([C:2](=[C:6]([H:13])[H:14])[H:10])([H:7])([H:8])[H:9].[C:3](=[C:4]=[O:5])([H:11])[H:12]"
C        1.62949839       0.42226046      -0.48136567
C        0.47327530       0.55520338       0.43553336
C       -1.04657593      -1.41273294       0.71246791
C       -0.97535428      -0.65707325      -0.43438727
O       -0.89116631      -0.89799780      -1.62115738
C       -0.78974871       0.98885796      -0.00802695
H        1.28432199       0.09079232      -1.46523923
H        2.09693538       1.40444830      -0.60591158
H        2.37742496      -0.26932910      -0.09831044
H        0.64110289       0.39550666       1.49235609
H       -1.20070561      -0.94061271       1.67008916
H       -1.23079859      -2.47843432       0.63338208
H       -1.51393723       1.30285654       0.73283638
H       -0.85427226       1.49625452      -0.96226650
14
Frame=1 idx=002003 GeodesicLength=0.10222184232201069 rxn_smarts="[C:1]([C:2]1([H:10])[C:3]([H:11])([H:12])[C:4](=[O:5])[C:6]1([H:13])[H:14])([H:7])([H:8])[H:9]>>[C:1]([C:2](=[C:6]([H:13])[H:14])[H:10])([H:7])([H:8])[H:9].[C:3](=[C:4]=[O:5])([H:11])[H:12]"
C        1.63179661       0.41246043      -0.47149897
C        0.46835079       0.54191864       0.43824748
C       -1.03182117      -1.41492364       0.70249097
C       -1.01544812      -0.65752671      -0.44780423
O       -0.96544534      -0.89104056      -1.63571901
C       -0.78653921       1.00200062      -0.00645415
H        1.30246910       0.04423688      -1.44757613
H        2.07982338       1.39943654      -0.62448905
H        2.39472370      -0.25034078      -0.06700037
H        0.63686117       0.40749826       1.49883048
H       -1.21668705      -0.95537111       1.66093881
H       -1.15608561      -2.48948911       0.62570567
H       -1.50446698       1.33494753       0.73266473
H       -0.83753128       1.51619300      -0.95833624
14
Frame=2 idx=002003 GeodesicLength=0.20373323819408665 rxn_smarts="[C:1]([C:2]1([H:10])[C:3]([H:11])([H:12])[C:4](=[O:5])[C:6]1([H:13])[H:14])([H:7])([H:8])[H:9]>>[C:1]([C:2](=[C:6]([H:13])[H:14])[H:10])([H:7])([H:8])[H:9].[C:3](=[C:4]=[O:5])([H:11])[H:12]"
C        1.63410685       0.40307353      -0.46120949
C        0.46340947       0.52965877       0.44129361
C       -1.01648519      -1.41721360       0.69175878
C       -1.05514597      -0.65862126      -0.45980024
O       -1.04066978      -0.88447993      -1.64787727
C       -0.78323717       1.01456807      -0.00511607
H        1.32121344      -0.00250937      -1.42772249
H        2.06267612       1.39339143      -0.64396008
H        2.41133218      -0.22950502      -0.03540702
H        0.63284276       0.42056905       1.50504477
H       -1.22928617      -0.97296310       1.65181747
H       -1.08519196      -2.49678376       0.61457048
H       -1.49450193       1.36691237       0.73189668
H       -0.82106265       1.53390281      -0.95528912
14
Frame=3 idx=002003 GeodesicLength=0.3046537825775887 rxn_smarts="[C:1]([C:2]1([H:10])[C:3]([H:11])([H:12])[C:4](=[O:5])[C:6]1([H:13])[H:14])([H:7])([H:8])[H:9]>>[C:1]([C:2](=[C:6]([H:13])[H:14])[H:10])([H:7])([H:8])[H:9].[C:3](=[C:4]=[O:5])([H:11])[H:12]"
C        1.63650979       0.39414274      -0.45045361
C        0.45849728       0.51840518       0.44466519
C       -1.00062952      -1.41955086       0.68025326
C       -1.09448231      -0.66038001      -0.47040802
O       -1.11725324      -0.87832577      -1.65753112
C       -0.77981523       1.02663577      -0.00409551
H        1.34072839      -0.04911755      -1.40563917
H        2.04566384       1.38625531      -0.66408405
H        2.42723917      -0.20685775      -0.00363705
H        0.62899156       0.43458283       1.51099482
H       -1.23855961      -0.99315502       1.64273267
H       -1.01803828      -2.50100597       0.60008468
H       -1.48401861       1.39889269       0.73036144
H       -0.80483324       1.54947842      -0.95324352
14
Frame=4 idx=002003 GeodesicLength=0.4051093859052987 rxn_smarts="[C:1]([C:2]1([H:10])[C:3]([H:11])([H:12])[C:4](=[O:5])[C:6]1([H:13])[H:14])([H:7])([H:8])[H:9]>>[C:1]([C:2](=[C:6]([H:13])[H:14])[H:10])([H:7])([H:8])[H:9].[C:3](=[C:4]=[O:5])([H:11])[H:12]"
C        1.63908451       0.38569009      -0.43917602
C        0.45364472       0.50810749       0.44835070
C       -0.98433448      -1.42189602       0.66792761
C       -1.13354279      -0.66280760      -0.47966127
O       -1.19569168      -0.87255382      -1.66452561
C       -0.77624204       1.03827992      -0.00347520
H        1.36119940      -0.09535052      -1.38127295
H        2.02892112       1.37797645      -0.68464922
H        2.44246877      -0.18240541       0.02826262
H        0.62523160       0.44939850       1.51668640
H       -1.24459676      -1.01576159       1.63364468
H       -0.95437901      -2.50272462       0.58231266
H       -1.47296977       1.43104649       0.72789225
H       -0.78879359       1.56300064      -0.95231664
14
Frame=5 idx=002003 GeodesicLength=0.5051559624819051 rxn_smarts="[C:1]([C:2]1([H:10])[C:3]([H:11])([H:12])[C:4](=[O:5])[C:6]1([H:13])[H:14])([H:7])([H:8])[H:9]>>[C:1]([C:2](=[C:6]([H:13])[H:14])[H:10])([H:7])([H:8])[H:9].[C:3](=[C:4]=[O:5])([H:11])[H:12]"
C        1.64188692       0.37771983      -0.42731224
C        0.44885358       0.49872033       0.45232090
C       -0.96765718      -1.42420526       0.65472880
C       -1.17243423      -0.66590334      -0.48756659
O       -1.27652916      -0.86714296      -1.66859942
C       -0.77248701       1.04956256      -0.00336340
H        1.38276675      -0.14085655      -1.35463749
H        2.01266210       1.36849596      -0.70530398
H        2.45693577      -0.15633115       0.06022671
H        0.62144460       0.46490523       1.52210953
H       -1.24750514      -1.04063793       1.62446445
H       -0.89375317      -2.50233864       0.56131027
H       -1.46130202       1.46351498       0.72427787
H       -0.77288182       1.57449695      -0.95265541
14
Frame=6 idx=002003 GeodesicLength=0.6048931224848159 rxn_smarts="[C:1]([C:2]1([H:10])[C:3]([H:11])([H:12])[C:4](=[O:5])[C:6]1([H:13])[H:14])([H:7])([H:8])[H:9]>>[C:1]([C:2](=[C:6]([H:13])[H:14])[H:10])([H:7])([H:8])[H:9].[C:3](=[C:4]=[O:5])([H:11])[H:12]"
C        1.64500833       0.37026722      -0.41478660
C        0.44414648       0.49016248       0.45655555
C       -0.95063048      -1.42648550       0.64055506
C       -1.21127176      -0.66966947      -0.49413652
O       -1.36030300      -0.86203237      -1.66942603
C       -0.76850540       1.06053034      -0.00384728
H        1.40567211      -0.18555596      -1.32562037
H        1.99694009       1.35781342      -0.72594385
H        2.47074908      -0.12847746       0.09233096
H        0.61754686       0.48098459       1.52728189
H       -1.24726738      -1.06772968       1.61508842
H       -0.83611781      -2.50021025       0.53699049
H       -1.44892343       1.49643349       0.71934672
H       -0.75704369       1.58396915      -0.95438845
14
Frame=7 idx=002003 GeodesicLength=0.704362992287816 rxn_smarts="[C:1]([C:2]1([H:10])[C:3]([H:11])([H:12])[C:4](=[O:5])[C:6]1([H:13])[H:14])([H:7])([H:8])[H:9]>>[C:1]([C:2](=[C:6]([H:13])[H:14])[H:10])([H:7])([H:8])[H:9].[C:3](=[C:4]=[O:5])([H:11])[H:12]"
C        1.64851854       0.36334977      -0.40151359
C        0.43951922       0.48236383       0.46102019
C       -0.93329740      -1.42872502       0.62528935
C       -1.25019959      -0.67409709      -0.49935574
O       -1.44756174      -0.85715962      -1.66654299
C       -0.76425492       1.07122081      -0.00504195
H        1.43011322      -0.22926130      -1.29414856
H        1.98189422       1.34590433      -0.74633999
H        2.48390370      -0.09884374       0.12462539
H        0.61341170       0.49753629       1.53220417
H       -1.24387925      -1.09700986       1.60536896
H       -0.78121413      -2.49657704       0.50923715
H       -1.43573701       1.52993091       0.71287482
H       -0.74121655       1.59136772      -0.95767721
14
Frame=8 idx=002003 GeodesicLength=0.8036017113105056 rxn_smarts="[C:1]([C:2]1([H:10])[C:3]([H:11])([H:12])[C:4](=[O:5])[C:6]1([H:13])[H:14])([H:7])([H:8])[H:9]>>[C:1]([C:2](=[C:6]([H:13])[H:14])[H:10])([H:7])([H:8])[H:9].[C:3](=[C:4]=[O:5])([H:11])[H:12]"
C        1.65248834       0.35698628      -0.38739713
C        0.43496177       0.47524996       0.46567874
C       -0.91570477      -1.43091851       0.60877976
C       -1.28938732      -0.67917055      -0.50319174
O       -1.53881324      -0.85244440      -1.65936869
C       -0.75969138       1.08166272      -0.00706831
H        1.45630601      -0.27184571      -1.26010402
H        1.96764146       1.33274407      -0.76631209
H        2.49640800      -0.06736496       0.15720359
H        0.60890191       0.51446325       1.53688116
H       -1.23728942      -1.12849980       1.59512150
H       -0.72885073      -2.49160293       0.47784489
H       -1.42162748       1.56413368       0.70462316
H       -0.72534314       1.59660690      -0.96269082
14
Frame=9 idx=002003 GeodesicLength=0.9025976656965328 rxn_smarts="[C:1]([C:2]1([H:10])[C:3]([H:11])([H:12])[C:4](=[O:5])[C:6]1([H:13])[H:14])([H:7])([H:8])[H:9]>>[C:1]([C:2](=[C:6]([H:13])[H:14])[H:10])([H:7])([H:8])[H:9].[C:3](=[C:4]=[O:5])([H:11])[H:12]"
C        1.65696542       0.35118784      -0.37232342
C        0.43044314       0.46877028       0.47048121
C       -0.89786132      -1.43305214       0.59085734
C       -1.32900603      -0.68487477      -0.50556053
O       -1.63455686      -0.84782317      -1.64714307
C       -0.75476999       1.09188032      -0.01009135
H        1.48441302      -0.31305820      -1.22343245
H        1.95437721       1.31833105      -0.78552843
H        2.50816399      -0.03416303       0.19016174
H        0.60384027       0.53170689       1.54130034
H       -1.22739095      -1.16226708       1.58410748
H       -0.67877700      -2.48535572       0.44255702
H       -1.40647253       1.59917163       0.69426387
H       -0.70936837       1.59954610      -0.96964974
14
Frame=10 idx=002003 GeodesicLength=1.0013670069309368 rxn_smarts="[C:1]([C:2]1([H:10])[C:3]([H:11])([H:12])[C:4](=[O:5])[C:6]1([H:13])[H:14])([H:7])([H:8])[H:9]>>[C:1]([C:2](=[C:6]([H:13])[H:14])[H:10])([H:7])([H:8])[H:9].[C:3](=[C:4]=[O:5])([H:11])[H:12]"
C        1.66202207       0.34597773      -0.35617016
C        0.42594054       0.46284304       0.47539148
C       -0.87983571      -1.43512105       0.57127916
C       -1.36928313      -0.69117479      -0.50637932
O       -1.73512277      -0.84315252      -1.62900228
C       -0.74944556       1.10188027      -0.01424333
H        1.51469213      -0.35292235      -1.18385577
H        1.94215659       1.30260194      -0.80395987
H        2.51921198       0.00103006       0.22368021
H        0.59805781       0.54916431       1.54547530
H       -1.21401223      -1.19842190       1.57204482
H       -0.63100998      -2.47787770       0.40295173
H       -1.39012283       1.63515738       0.68151655
H       -0.69324891       1.60001558      -0.97872854
14
Frame=11 idx=002003 GeodesicLength=1.0998624846623837 rxn_smarts="[C:1]([C:2]1([H:10])[C:3]([H:11])([H:12])[C:4](=[O:5])[C:6]1([H:13])[H:14])([H:7])([H:8])[H:9]>>[C:1]([C:2](=[C:6]([H:13])[H:14])[H:10])([H:7])([H:8])[H:9].[C:3](=[C:4]=[O:5])([H:11])[H:12]"
C        1.66769507       0.34137611      -0.33879937
C        0.42140785       0.45740198       0.48036029
C       -0.86170049      -1.43710378       0.54977410
C       -1.41046386      -0.69802896      -0.50549840
O       -1.84069841      -0.83829627      -1.60389082
C       -0.74366334       1.11165932      -0.01969323
H        1.54733200      -0.39136655      -1.14108367
H        1.93108469       1.28548194      -0.82148464
H        2.52948008       0.03838123       0.25791747
H        0.59134207       0.56674473       1.54939747
H       -1.19693676      -1.23711916       1.55857384
H       -0.58554879      -2.46911151       0.35854099
H       -1.37239734       1.67218750       0.66601786
H       -0.67693276       1.59779342      -0.99013189
14
Frame=12 idx=002003 GeodesicLength=1.1980367165207804 rxn_smarts="[C:1]([C:2]1([H:10])[C:3]([H:11])([H:12])[C:4](=[O:5])[C:6]1([H:13])[H:14])([H:7])([H:8])[H:9]>>[C:1]([C:2](=[C:6]([H:13])[H:14])[H:10])([H:7])([H:8])[H:9].[C:3](=[C:4]=[O:5])([H:11])[H:12]"
C        1.67400024       0.33738913      -0.32005494
C        0.41678138       0.45239060       0.48533992
C       -0.84354125      -1.43896255       0.52602281
C       -1.45283043      -0.70538439      -0.50269667
O       -1.95128146      -0.83310238      -1.57060844
C       -0.73737501       1.12121226      -0.02662373
H        1.58249653      -0.42834963      -1.09473688
H        1.92125879       1.26683638      -0.83800746
H        2.53885195       0.07808990       0.29304523
H        0.58344927       0.58436935       1.55306164
H       -1.17588050      -1.27855246       1.54324588
H       -0.54244379      -2.45890952       0.30871794
H       -1.35310239       1.71035576       0.64735914
H       -0.66038333       1.59261755      -1.00406443
14
Frame=13 idx=002003 GeodesicLength=1.295917186795896 rxn_smarts="[C:1]([C:2]1([H:10])[C:3]([H:11])([H:12])[C:4](=[O:5])[C:6]1([H:13])[H:14])([H:7])([H:8])[H:9]>>[C:1]([C:2](=[C:6]([H:13])[H:14])[H:10])([H:7])([H:8])[H:9].[C:3](=[C:4]=[O:5])([H:11])[H:12]"
C        1.68096649       0.33400186      -0.29972310
C        0.41197232       0.44781390       0.49028436
C       -0.82536868      -1.44062762       0.49966306
C       -1.49668001      -0.71320507      -0.49764042
O       -2.06697807      -0.82746418      -1.52766365
C       -0.73056471       1.13053611      -0.03531765
H        1.62027021      -0.46361320      -1.04457807
H        1.91297603       1.24657807      -0.85312729
H        2.54711870       0.11996645       0.32929485
H        0.57406144       0.60206854       1.55648261
H       -1.15042761      -1.32296720       1.52550613
H       -0.50164538      -2.44698526       0.25273802
H       -1.33210871       1.74978856       0.62493653
H       -0.64359202       1.58410903      -1.02085539
14
Frame=14 idx=002003 GeodesicLength=1.3934117882818833 rxn_smarts="[C:1]([C:2]1([H:10])[C:3]([H:11])([H:12])[C:4](=[O:5])[C:6]1([H:13])[H:14])([H:7])([H:8])[H:9]>>[C:1]([C:2](=[C:6]([H:13])[H:14])[H:10])([H:7])([H:8])[H:9].[C:3](=[C:4]=[O:5])([H:11])[H:12]"
C        1.68855017       0.33121190      -0.27760143
C        0.40687966       0.44360325       0.49515755
C       -0.80738512      -1.44201899       0.47023792
C       -1.54239814      -0.72139537      -0.48987142
O       -2.18711024      -0.82114689      -1.47357732
C       -0.72316527       1.13959722      -0.04595506
H        1.66078272      -0.49736435      -0.98975924
H        1.90617815       1.22433358      -0.86706898
H        2.55412997       0.16465746       0.36685496
H        0.56286697       0.61972321       1.55965448
H       -1.12013185      -1.37065837       1.50463205
H       -0.46354141      -2.43294769       0.18964889
H       -1.30913719       1.79048715       0.59828707
H       -0.62651842       1.57191789      -1.04063947
14
Frame=15 idx=002003 GeodesicLength=1.4903866298684494 rxn_smarts="[C:1]([C:2]1([H:10])[C:3]([H:11])([H:12])[C:4](=[O:5])[C:6]1([H:13])[H:14])([H:7])([H:8])[H:9]>>[C:1]([C:2](=[C:6]([H:13])[H:14])[H:10])([H:7])([H:8])[H:9].[C:3](=[C:4]=[O:5])([H:11])[H:12]"
C        1.69661595       0.32895980      -0.25341642
C        0.40134851       0.43975948       0.49991474
C       -0.78972381      -1.44298939       0.43724893
C       -1.59031422      -0.72986034      -0.47868522
O       -2.31078370      -0.81403701      -1.40662985
C       -0.71511771       1.14837975      -0.05881666
H        1.70390543      -0.52957626      -0.92950315
H        1.90093926       1.19972277      -0.87964243
H        2.55949727       0.21232086       0.40587814
H        0.54946590       0.63734979       1.56252489
H       -1.08432420      -1.42193611       1.47967540
H       -0.42844002      -2.41616068       0.11834565
H       -1.28391791       1.83248252       0.56672048
H       -0.60915075       1.55558483      -1.06361449
14
Frame=16 idx=002003 GeodesicLength=1.5868565631094846 rxn_smarts="[C:1]([C:2]1([H:10])[C:3]([H:11])([H:12])[C:4](=[O:5])[C:6]1([H:13])[H:14])([H:7])([H:8])[H:9]>>[C:1]([C:2](=[C:6]([H:13])[H:14])[H:10])([H:7])([H:8])[H:9].[C:3](=[C:4]=[O:5])([H:11])[H:12]"
C        1.70506600       0.32715509      -0.22683753
C        0.39520622       0.43632942       0.50455891
C       -0.77255582      -1.44332260       0.40013475
C       -1.64078218      -0.73852333      -0.46311402
O       -2.43691144      -0.80607514      -1.32501214
C       -0.70640190       1.15684460      -0.07422312
H        1.74947340      -0.56022221      -0.86290023
H        1.89743049       1.17221402      -0.89064784
H        2.56287206       0.26309929       0.44654168
H        0.53340690       0.65506229       1.56511698
H       -1.04221388      -1.47713222       1.44945367
H       -0.39679917      -2.39568468       0.03748058
H       -1.25627534       1.87572576       0.52945678
H       -0.59151534       1.53452969      -1.09000846
