13
Frame=0 idx=002833 GeodesicLength=0.0 rxn_smarts="[C:1]([C:2]([C:3]#[C:4][C:5]([H:11])([H:12])[H:13])([H:9])[H:10])([H:6])([H:7])[H:8]>>[C:1]([C:2](=[C:3]=[C:4]([C:5]([H:11])([H:12])[H:13])[H:9])[H:10])([H:6])([H:7])[H:8]"
C       -1.85515857       0.02765595      -0.31658068
C       -0.79192612       0.33944991       0.69812566
C        0.17241128       1.44849515       0.44060669
C        0.86930805       0.32157640       0.41359219
C        1.99588010      -0.27604151      -0.37084222
H       -2.72736590       0.64005907      -0.07352439
H       -2.16022349      -1.01976338      -0.29682402
H       -1.52193425       0.29309795      -1.31862954
H        0.21004327      -0.65355925       0.83288752
H       -1.03968049       0.10299456       1.73176925
H        2.60676868      -0.95414280       0.22613322
H        1.62715541      -0.81920683      -1.24396506
H        2.61472200       0.54938482      -0.72274863
13
Frame=1 idx=002833 GeodesicLength=0.11762038567651381 rxn_smarts="[C:1]([C:2]([C:3]#[C:4][C:5]([H:11])([H:12])[H:13])([H:9])[H:10])([H:6])([H:7])[H:8]>>[C:1]([C:2](=[C:3]=[C:4]([C:5]([H:11])([H:12])[H:13])[H:9])[H:10])([H:6])([H:7])[H:8]"
C       -1.88030915       0.03634564      -0.31247001
C       -0.80709359       0.32642459       0.69903369
C        0.17152677       1.41339108       0.44124844
C        0.88491768       0.30252798       0.40380900
C        2.02658999      -0.26982396      -0.37468398
H       -2.73591746       0.67491391      -0.07802854
H       -2.21468864      -1.00183106      -0.28058806
H       -1.54087226       0.28030791      -1.31795106
H        0.20301991      -0.67845115       0.83160380
H       -1.06256117       0.10734508       1.73470302
H        2.65403465      -0.92507447       0.23080421
H        1.67496291      -0.83220701      -1.24260137
H        2.62639036       0.56613146      -0.73487914
13
Frame=2 idx=002833 GeodesicLength=0.2351677406531165 rxn_smarts="[C:1]([C:2]([C:3]#[C:4][C:5]([H:11])([H:12])[H:13])([H:9])[H:10])([H:6])([H:7])[H:8]>>[C:1]([C:2](=[C:3]=[C:4]([C:5]([H:11])([H:12])[H:13])[H:9])[H:10])([H:6])([H:7])[H:8]"
C       -1.90602602       0.04546721      -0.30807931
C       -0.82289268       0.31266612       0.70006392
C        0.17066964       1.37631761       0.44131382
C        0.90083583       0.28218535       0.39333694
C        2.05809218      -0.26329100      -0.37850959
H       -2.74354785       0.71063090      -0.08259080
H       -2.27049717      -0.98211455      -0.26366787
H       -1.56095239       0.26691090      -1.31691355
H        0.19536883      -0.70468230       0.82945422
H       -1.08577889       0.11203474       1.73769973
H        2.70196294      -0.89399976       0.23595323
H        1.72512088      -0.84535054      -1.24072222
H        2.63764471       0.58322532      -0.74733851
13
Frame=3 idx=002833 GeodesicLength=0.3526481264027848 rxn_smarts="[C:1]([C:2]([C:3]#[C:4][C:5]([H:11])([H:12])[H:13])([H:9])[H:10])([H:6])([H:7])[H:8]>>[C:1]([C:2](=[C:3]=[C:4]([C:5]([H:11])([H:12])[H:13])[H:9])[H:10])([H:6])([H:7])[H:8]"
C       -1.93233187       0.05505889      -0.30336702
C       -0.83934886       0.29811767       0.70120917
C        0.16981897       1.33707683       0.44069684
C        0.91706404       0.26041073       0.38206780
C        2.09041811      -0.25640522      -0.38228781
H       -2.75013873       0.74724020      -0.08718478
H       -2.32769723      -0.96043504      -0.24596593
H       -1.58232343       0.25287202      -1.31547391
H        0.18700807      -0.73241162       0.82624202
H       -1.10926038       0.11712308       1.74074806
H        2.75047424      -0.86071471       0.24168037
H        1.77788423      -0.85858249      -1.23824623
H        2.64843286       0.60064968      -0.76011857
13
Frame=4 idx=002833 GeodesicLength=0.47006638087807956 rxn_smarts="[C:1]([C:2]([C:3]#[C:4][C:5]([H:11])([H:12])[H:13])([H:9])[H:10])([H:6])([H:7])[H:8]>>[C:1]([C:2](=[C:3]=[C:4]([C:5]([H:11])([H:12])[H:13])[H:9])[H:10])([H:6])([H:7])[H:8]"
C       -1.95924410       0.06518204      -0.29829619
C       -0.85648440       0.28269538       0.70247293
C        0.16896400       1.29544324       0.43932060
C        0.93360087       0.23703043       0.36988676
C        2.12359221      -0.24912730      -0.38598084
H       -2.75553116       0.78480771      -0.09178019
H       -2.38636339      -0.93657376      -0.22740489
H       -1.60513589       0.23817969      -1.31360068
H        0.17783806      -0.76184975       0.82172868
H       -1.13291686       0.12263297       1.74385091
H        2.79952075      -0.82488385       0.24815397
H        1.83353925      -0.87193707      -1.23502795
H        2.65862066       0.61840026      -0.77332311
13
Frame=5 idx=002833 GeodesicLength=0.5874174674761816 rxn_smarts="[C:1]([C:2]([C:3]#[C:4][C:5]([H:11])([H:12])[H:13])([H:9])[H:10])([H:6])([H:7])[H:8]>>[C:1]([C:2](=[C:3]=[C:4]([C:5]([H:11])([H:12])[H:13])[H:9])[H:10])([H:6])([H:7])[H:8]"
C       -1.98678110       0.07585166      -0.29278067
C       -0.87431840       0.26637255       0.70380221
C        0.16803889       1.25115944       0.43691925
C        0.95044502       0.21191167       0.35660207
C        2.15763888      -0.24140351      -0.38952747
H       -2.75961935       0.82325609      -0.09632051
H       -2.44642661      -0.91032412      -0.20777639
H       -1.62963280       0.22277909      -1.31118027
H        0.16775871      -0.79314198       0.81560805
H       -1.15658564       0.12872481       1.74692774
H        2.84880428      -0.78643142       0.25543826
H        1.89240388      -0.88512145      -1.23097854
H        2.66827424       0.63636717      -0.78673374
13
Frame=6 idx=002833 GeodesicLength=0.7046980820035067 rxn_smarts="[C:1]([C:2]([C:3]#[C:4][C:5]([H:11])([H:12])[H:13])([H:9])[H:10])([H:6])([H:7])[H:8]>>[C:1]([C:2](=[C:3]=[C:4]([C:5]([H:11])([H:12])[H:13])[H:9])[H:10])([H:6])([H:7])[H:8]"
C       -2.01494006       0.08712178      -0.28677338
C       -0.89285661       0.24906666       0.70520786
C        0.16703731       1.20397862       0.43336225
C        0.96759318       0.18485600       0.34205588
C        2.19254801      -0.23319176      -0.39287907
H       -2.76219899       0.86261768      -0.10076423
H       -2.50791325      -0.88146604      -0.18697700
H       -1.65600231       0.20665555      -1.30819413
H        0.15664315      -0.82653557       0.80758885
H       -1.18010523       0.13547690       1.75000416
H        2.89813455      -0.74502472       0.26377086
H        1.95478406      -0.89810506      -1.22596639
H        2.67727618       0.65454998      -0.80043565
13
Frame=7 idx=002833 GeodesicLength=0.8219011283029164 rxn_smarts="[C:1]([C:2]([C:3]#[C:4][C:5]([H:11])([H:12])[H:13])([H:9])[H:10])([H:6])([H:7])[H:8]>>[C:1]([C:2](=[C:3]=[C:4]([C:5]([H:11])([H:12])[H:13])[H:9])[H:10])([H:6])([H:7])[H:8]"
C       -2.04371782       0.09900811      -0.28017877
C       -0.91209546       0.23074755       0.70664307
C        0.16589458       1.15361233       0.42832815
C        0.98504027       0.15569935       0.32600192
C        2.22830731      -0.22443445      -0.39595498
H       -2.76312147       0.90278971      -0.10504332
H       -2.57070424      -0.84978712      -0.16477340
H       -1.68452817       0.18977166      -1.30454056
H        0.14435709      -0.86222442       0.79729063
H       -1.20321827       0.14309616       1.75301361
H        2.94708839      -0.70056476       0.27331795
H        2.02101429      -0.91056815      -1.21987192
H        2.68568352       0.67285404      -0.81423237
13
Frame=8 idx=002833 GeodesicLength=0.9389955681837489 rxn_smarts="[C:1]([C:2]([C:3]#[C:4][C:5]([H:11])([H:12])[H:13])([H:9])[H:10])([H:6])([H:7])[H:8]>>[C:1]([C:2](=[C:3]=[C:4]([C:5]([H:11])([H:12])[H:13])[H:9])[H:10])([H:6])([H:7])[H:8]"
C       -2.07307528       0.11153875      -0.27291207
C       -0.93201270       0.21136507       0.70808387
C        0.16455623       1.09974663       0.42153334
C        1.00278115       0.12425194       0.30820833
C        2.26486214      -0.21507676      -0.39866717
H       -2.76218825       0.94367903      -0.10911845
H       -2.63465522      -0.81505278      -0.14095481
H       -1.71545945       0.17210304      -1.30013156
H        0.13076203      -0.90043804       0.78431443
H       -1.22563003       0.15177646       1.75590356
H        2.99521585      -0.65286821       0.28432548
H        2.09136001      -0.92223367      -1.21252522
H        2.69348353       0.69120855      -0.82805971
13
Frame=9 idx=002833 GeodesicLength=1.0559562814496608 rxn_smarts="[C:1]([C:2]([C:3]#[C:4][C:5]([H:11])([H:12])[H:13])([H:9])[H:10])([H:6])([H:7])[H:8]>>[C:1]([C:2](=[C:3]=[C:4]([C:5]([H:11])([H:12])[H:13])[H:9])[H:10])([H:6])([H:7])[H:8]"
C       -2.10294992       0.12477796      -0.26487007
C       -0.95255706       0.19084103       0.70946771
C        0.16293839       1.04199861       0.41263289
C        1.02081537       0.09027041       0.28837619
C        2.30211440      -0.20505565      -0.40089193
H       -2.75915324       0.98520112      -0.11284840
H       -2.69953964      -0.77698849      -0.11531549
H       -1.74910862       0.15377025      -1.29485046
H        0.11563802      -0.94147527       0.76809950
H       -1.24692346       0.16167546       1.75855390
H        3.04202725      -0.60151833       0.29708238
H        2.16623885      -0.93297835      -1.20350514
H        2.70045967       0.70948125      -0.84193107
13
Frame=10 idx=002833 GeodesicLength=1.1727620832086283 rxn_smarts="[C:1]([C:2]([C:3]#[C:4][C:5]([H:11])([H:12])[H:13])([H:9])[H:10])([H:6])([H:7])[H:8]>>[C:1]([C:2](=[C:3]=[C:4]([C:5]([H:11])([H:12])[H:13])[H:9])[H:10])([H:6])([H:7])[H:8]"
C       -2.13324961       0.13867654      -0.25593483
C       -0.97364420       0.16918932       0.71075980
C        0.16094717       0.98003722       0.40114222
C        1.03914019       0.05361856       0.26619827
C        2.33992683      -0.19429421      -0.40250542
H       -2.75378197       1.02714789      -0.11633181
H       -2.76507786      -0.73539136      -0.08741664
H       -1.78575936       0.13455324      -1.28857252
H        0.09883961      -0.98553441       0.74819067
H       -1.26659426       0.17318104       1.76086776
H        3.08666213      -0.54674210       0.31185024
H        2.24573866      -0.94208449      -1.19277660
H        2.70685267       0.72764276      -0.85547115
13
Frame=11 idx=002833 GeodesicLength=1.2893637691320325 rxn_smarts="[C:1]([C:2]([C:3]#[C:4][C:5]([H:11])([H:12])[H:13])([H:9])[H:10])([H:6])([H:7])[H:8]>>[C:1]([C:2](=[C:3]=[C:4]([C:5]([H:11])([H:12])[H:13])[H:9])[H:10])([H:6])([H:7])[H:8]"
C       -2.16381134       0.15321408      -0.24597437
C       -0.99513126       0.14641549       0.71187670
C        0.15846377       0.91345714       0.38654477
C        1.05776170       0.01417322       0.24134170
C        2.37806505      -0.18269879      -0.40333428
H       -2.74578682       1.06924830      -0.11960265
H       -2.83081121      -0.69002958      -0.05686282
H       -1.82569420       0.11442221      -1.28108840
H        0.08015298      -1.03283059       0.72399033
H       -1.28398603       0.18660944       1.76259949
H        3.12820674      -0.48856328       0.32886099
H        2.32990797      -0.94896609      -1.17992530
H        2.71266264       0.74554846      -0.86842616
13
Frame=12 idx=002833 GeodesicLength=1.405712818457388 rxn_smarts="[C:1]([C:2]([C:3]#[C:4][C:5]([H:11])([H:12])[H:13])([H:9])[H:10])([H:6])([H:7])[H:8]>>[C:1]([C:2](=[C:3]=[C:4]([C:5]([H:11])([H:12])[H:13])[H:9])[H:10])([H:6])([H:7])[H:8]"
C       -2.19436524       0.16836194      -0.23489977
C       -1.01682331       0.12251354       0.71279083
C        0.15535198       0.84184250       0.36842421
C        1.07669748      -0.02820662       0.21357998
C        2.41616483      -0.17018605      -0.40322378
H       -2.73477438       1.11124532      -0.12283138
H       -2.89616589      -0.64066010      -0.02328954
H       -1.86907257       0.09329410      -1.27222010
H        0.05936770      -1.08360876       0.69502737
H       -1.29837384       0.20231638       1.76351047
H        3.16566001      -0.42704752       0.34835420
H        2.41860062      -0.95304621      -1.16460439
H        2.71773261       0.76318150      -0.88061810
13
Frame=13 idx=002833 GeodesicLength=1.5217113674306235 rxn_smarts="[C:1]([C:2]([C:3]#[C:4][C:5]([H:11])([H:12])[H:13])([H:9])[H:10])([H:6])([H:7])[H:8]>>[C:1]([C:2](=[C:3]=[C:4]([C:5]([H:11])([H:12])[H:13])[H:9])[H:10])([H:6])([H:7])[H:8]"
C       -2.22443398       0.18410930      -0.22271455
C       -1.03844364       0.09745444       0.71354054
C        0.15150910       0.76477198       0.34667744
C        1.09600050      -0.07356441       0.18298645
C        2.45364483      -0.15665905      -0.40203732
H       -2.72020522       1.15281599      -0.12630787
H       -2.96031030      -0.58704854       0.01339562
H       -1.91575703       0.07124379      -1.26179021
H        0.03629821      -1.13811336       0.66102882
H       -1.30899529       0.22048936       1.76330034
H        3.19797232      -0.36208357       0.37036197
H        2.51115942      -0.95383227      -1.14622426
H        2.72156108       0.78041635      -0.89221699
13
Frame=14 idx=002833 GeodesicLength=1.6372987873281741 rxn_smarts="[C:1]([C:2]([C:3]#[C:4][C:5]([H:11])([H:12])[H:13])([H:9])[H:10])([H:6])([H:7])[H:8]>>[C:1]([C:2](=[C:3]=[C:4]([C:5]([H:11])([H:12])[H:13])[H:9])[H:10])([H:6])([H:7])[H:8]"
C       -2.25337417       0.20038248      -0.20948742
C       -1.05966573       0.07130884       0.71420669
C        0.14679856       0.68186770       0.32137828
C        1.11574647      -0.12178466       0.14991149
C        2.48973301      -0.14201541      -0.39969498
H       -2.70148152       1.19350569      -0.13055359
H       -3.02214122      -0.52902622       0.05321691
H       -1.96531797       0.04829076      -1.24959367
H        0.01079546      -1.19647922       0.62208282
H       -1.31510413       0.24134414       1.76156337
H        3.22394555      -0.29397709       0.39455656
H        2.60651083      -0.95058781      -1.12439773
H        2.72355488       0.79717082      -0.90318872
13
Frame=15 idx=002833 GeodesicLength=1.7523215047752976 rxn_smarts="[C:1]([C:2]([C:3]#[C:4][C:5]([H:11])([H:12])[H:13])([H:9])[H:10])([H:6])([H:7])[H:8]>>[C:1]([C:2](=[C:3]=[C:4]([C:5]([H:11])([H:12])[H:13])[H:9])[H:10])([H:6])([H:7])[H:8]"
C       -2.28010325       0.21723659      -0.19557975
C       -1.08014932       0.04401118       0.71512524
C        0.14123948       0.59282189       0.29383514
C        1.13608306      -0.17252086       0.11576464
C        2.52328755      -0.12612524      -0.39630979
H       -2.67769114       1.23286196      -0.13617251
H       -3.08019406      -0.46649991       0.09513691
H       -2.01638404       0.02505309      -1.23559673
H       -0.01722359      -1.25886526       0.57896263
H       -1.31639968       0.26438905       1.75799843
H        3.24277365      -0.22227519       0.41986670
H        2.70257503      -0.94307035      -1.09838198
H        2.72218632       0.81298305      -0.91464893
13
Frame=16 idx=002833 GeodesicLength=1.8667589423348103 rxn_smarts="[C:1]([C:2]([C:3]#[C:4][C:5]([H:11])([H:12])[H:13])([H:9])[H:10])([H:6])([H:7])[H:8]>>[C:1]([C:2](=[C:3]=[C:4]([C:5]([H:11])([H:12])[H:13])[H:9])[H:10])([H:6])([H:7])[H:8]"
C       -2.30344250       0.23471438      -0.18148885
C       -1.09960881       0.01551694       0.71675179
C        0.13487779       0.49733434       0.26580190
C        1.15704522      -0.22551768       0.08215580
C        2.55308605      -0.10884704      -0.39216430
H       -2.64768296       1.27055623      -0.14407628
H       -3.13309068      -0.39920721       0.13800228
H       -2.06729593       0.00188793      -1.21992184
H       -0.04780212      -1.32553087       0.53315944
H       -1.31282583       0.28900745       1.75246335
H        3.25366118      -0.14688122       0.44500158
H        2.79720859      -0.93076482      -1.06833463
H        2.71586999       0.82773157      -0.92735024
