16
Frame=0 idx=011238 GeodesicLength=0.0 rxn_smarts="[C:1]([C@@:2]([O:3][H:12])([C@@:4]([C:5]([H:14])([H:15])[H:16])([C:6]#[N:7])[H:13])[H:11])([H:8])([H:9])[H:10]>>[C:1]([C:4]([C:2](=[O:3])[H:11])([C:5]([H:14])([H:15])[H:16])[C:6]#[N:7])([H:8])([H:9])[H:10].[H:12][H:13]"
C       -1.46872957      -0.27220605      -0.99634575
C       -0.85846007      -0.29487671       0.49959881
O       -0.72014972      -1.51335264       0.92993187
C        0.39610918       0.42496581       0.21103763
C        1.56621894      -0.26452943      -0.38702965
C        0.34621859       1.84770100       0.12433153
N        0.28634215       2.99534152       0.06751836
H       -1.59880835       0.73446441      -1.39034534
H       -2.43697039      -0.74958423      -0.87152945
H       -0.85188738      -0.88057870      -1.65377769
H       -1.53931928       0.36783351       1.06834850
H        0.42966326      -0.89638416       1.97608689
H        0.87595154      -0.22657603       2.06105059
H        2.49600052       0.13246574       0.02023466
H        1.58710640      -0.07216438      -1.46545143
H        1.49071418      -1.33251964      -0.19365954
16
Frame=1 idx=011238 GeodesicLength=0.11431844132172955 rxn_smarts="[C:1]([C@@:2]([O:3][H:12])([C@@:4]([C:5]([H:14])([H:15])[H:16])([C:6]#[N:7])[H:13])[H:11])([H:8])([H:9])[H:10]>>[C:1]([C:4]([C:2](=[O:3])[H:11])([C:5]([H:14])([H:15])[H:16])[C:6]#[N:7])([H:8])([H:9])[H:10].[H:12][H:13]"
C       -1.45069539      -0.26600571      -1.00164702
C       -0.86896526      -0.29269719       0.51851684
O       -0.72492156      -1.50347628       0.96576016
C        0.38580494       0.42247653       0.21100929
C        1.55748601      -0.26167456      -0.39420354
C        0.33585690       1.84745264       0.13017391
N        0.26851753       2.99410565       0.06575338
H       -1.56426799       0.73035111      -1.42578775
H       -2.43227005      -0.71883799      -0.88511377
H       -0.84637937      -0.90564904      -1.64087868
H       -1.55311805       0.37454957       1.07698831
H        0.43820857      -0.92609468       1.98954831
H        0.90312371      -0.23887602       2.05070722
H        2.48583718       0.13668972       0.01498766
H        1.57955376      -0.06161711      -1.47078643
H        1.48622907      -1.33069666      -0.20502790
16
Frame=2 idx=011238 GeodesicLength=0.22774375352718623 rxn_smarts="[C:1]([C@@:2]([O:3][H:12])([C@@:4]([C:5]([H:14])([H:15])[H:16])([C:6]#[N:7])[H:13])[H:11])([H:8])([H:9])[H:10]>>[C:1]([C:4]([C:2](=[O:3])[H:11])([C:5]([H:14])([H:15])[H:16])[C:6]#[N:7])([H:8])([H:9])[H:10].[H:12][H:13]"
C       -1.43275293      -0.25989667      -1.00680245
C       -0.87937799      -0.29044792       0.53707773
O       -0.72926105      -1.49306972       1.00160432
C        0.37551078       0.41996713       0.21088447
C        1.54882547      -0.25882720      -0.40130064
C        0.32533211       1.84714805       0.13531361
N        0.25101033       2.99283783       0.06453510
H       -1.52949259       0.72512836      -1.46060279
H       -2.42687873      -0.68804899      -0.89873982
H       -0.84190215      -0.92958810      -1.62773441
H       -1.56683761       0.38102237       1.08544769
H        0.44664716      -0.95619590       2.00296023
H        0.92948973      -0.25086959       2.03977715
H        2.47568973       0.14106170       0.00978081
H        1.57211538      -0.05139797      -1.47604895
H        1.48188236      -1.32882339      -0.21615206
16
Frame=3 idx=011238 GeodesicLength=0.34063504955144075 rxn_smarts="[C:1]([C@@:2]([O:3][H:12])([C@@:4]([C:5]([H:14])([H:15])[H:16])([C:6]#[N:7])[H:13])[H:11])([H:8])([H:9])[H:10]>>[C:1]([C:4]([C:2](=[O:3])[H:11])([C:5]([H:14])([H:15])[H:16])[C:6]#[N:7])([H:8])([H:9])[H:10].[H:12][H:13]"
C       -1.41491300      -0.25382852      -1.01182387
C       -0.88968584      -0.28814997       0.55530811
O       -0.73317149      -1.48213061       1.03746699
C        0.36524272       0.41742925       0.21070306
C        1.54025313      -0.25598852      -0.40829586
C        0.31465536       1.84678406       0.13981345
N        0.23368703       2.99151570       0.06353179
H       -1.49453429       0.71888457      -1.49471237
H       -2.42080855      -0.65718662      -0.91236599
H       -0.83838103      -0.95232180      -1.61441504
H       -1.58046603       0.38723422       1.09376151
H        0.45497569      -0.98692376       2.01630397
H        0.95507487      -0.26250057       2.02833160
H        2.46557051       0.14555258       0.00466688
H        1.56482757      -0.04146055      -1.48120962
H        1.47767333      -1.32690948      -0.22706460
16
Frame=4 idx=011238 GeodesicLength=0.4534237118920513 rxn_smarts="[C:1]([C@@:2]([O:3][H:12])([C@@:4]([C:5]([H:14])([H:15])[H:16])([C:6]#[N:7])[H:13])[H:11])([H:8])([H:9])[H:10]>>[C:1]([C:4]([C:2](=[O:3])[H:11])([C:5]([H:14])([H:15])[H:16])[C:6]#[N:7])([H:8])([H:9])[H:10].[H:12][H:13]"
C       -1.39718541      -0.24776230      -1.01672353
C       -0.89987678      -0.28581529       0.57323495
O       -0.73666143      -1.47064520       1.07335548
C        0.35501368       0.41486115       0.21049190
C        1.53178217      -0.25316104      -0.41516567
C        0.30383723       1.84636427       0.14370515
N        0.21644775       2.99012453       0.06248981
H       -1.45945871       0.71169773      -1.52804400
H       -2.41407202      -0.62623886      -0.92596052
H       -0.83574514      -0.97379947      -1.60098680
H       -1.59399064       0.39318238       1.10195824
H        0.46318914      -1.01855868       2.02953646
H        0.97990754      -0.27365040       2.01644456
H        2.45549079       0.15014104      -0.00031010
H        1.55772293      -0.03177640      -1.48624380
H        1.47359889      -1.32496347      -0.23778212
16
Frame=5 idx=011238 GeodesicLength=0.566467431230875 rxn_smarts="[C:1]([C@@:2]([O:3][H:12])([C@@:4]([C:5]([H:14])([H:15])[H:16])([C:6]#[N:7])[H:13])[H:11])([H:8])([H:9])[H:10]>>[C:1]([C:4]([C:2](=[O:3])[H:11])([C:5]([H:14])([H:15])[H:16])[C:6]#[N:7])([H:8])([H:9])[H:10].[H:12][H:13]"
C       -1.37957667      -0.24166670      -1.02151030
C       -0.90994106      -0.28344553       0.59088964
O       -0.73973580      -1.45858807       1.10929066
C        0.34483492       0.41226514       0.21027471
C        1.52342527      -0.25034523      -0.42188495
C        0.29288958       1.84589595       0.14701647
N        0.19919481       2.98865627       0.06116841
H       -1.42432970       0.70364190      -1.56053381
H       -2.40667603      -0.59519364      -0.93948796
H       -0.83392512      -0.99398965      -1.58750613
H       -1.60740218       0.39887976       1.11006200
H        0.47127646      -1.05141671       2.04257783
H        1.00401715      -0.28418972       2.00419199
H        2.44546111       0.15480816      -0.00510941
H        1.55083167      -0.02232088      -1.49112530
H        1.46965560      -1.32299104      -0.24831384
16
Frame=6 idx=011238 GeodesicLength=0.6797026949970001 rxn_smarts="[C:1]([C@@:2]([O:3][H:12])([C@@:4]([C:5]([H:14])([H:15])[H:16])([C:6]#[N:7])[H:13])[H:11])([H:8])([H:9])[H:10]>>[C:1]([C:4]([C:2](=[O:3])[H:11])([C:5]([H:14])([H:15])[H:16])[C:6]#[N:7])([H:8])([H:9])[H:10].[H:12][H:13]"
C       -1.36209191      -0.23554026      -1.02620491
C       -0.91987541      -0.28102877       0.60829188
O       -0.74239222      -1.44588827       1.14532942
C        0.33470992       0.40965406       0.21004947
C        1.51518885      -0.24753701      -0.42844510
C        0.28181673       1.84539625       0.14974203
N        0.18190484       2.98711987       0.05949691
H       -1.38922066       0.69475758      -1.59214831
H       -2.39862631      -0.56408881      -0.95292184
H       -0.83285810      -1.01291210      -1.57401546
H       -1.62070323       0.40436378       1.11806552
H        0.47922232      -1.08572117       2.05535024
H        1.02742649      -0.29405629       1.99163289
H        2.43548627       0.15955056      -0.00971175
H        1.54417607      -0.01308021      -1.49584695
H        1.46583636      -1.32098921      -0.25866404
16
Frame=7 idx=011238 GeodesicLength=0.7935449012680048 rxn_smarts="[C:1]([C@@:2]([O:3][H:12])([C@@:4]([C:5]([H:14])([H:15])[H:16])([C:6]#[N:7])[H:13])[H:11])([H:8])([H:9])[H:10]>>[C:1]([C:4]([C:2](=[O:3])[H:11])([C:5]([H:14])([H:15])[H:16])[C:6]#[N:7])([H:8])([H:9])[H:10].[H:12][H:13]"
C       -1.34473274      -0.22938826      -1.03081933
C       -0.92967209      -0.27854437       0.62547348
O       -0.74463660      -1.43247439       1.18152085
C        0.32464190       0.40704486       0.20981584
C        1.50708101      -0.24473272      -0.43482767
C        0.27061772       1.84488584       0.15184955
N        0.16456313       2.98553335       0.05741313
H       -1.35420531       0.68507282      -1.62286236
H       -2.38992816      -0.53294375      -0.96622886
H       -0.83248608      -1.03058990      -1.56054351
H       -1.63388974       0.40967761       1.12596959
H        0.48698371      -1.12188091       2.06771203
H        1.05017378      -0.30302246       1.97883601
H        2.42557218       0.16437489      -0.01410165
H        1.53777623      -0.00405880      -1.50039534
H        1.46214109      -1.31895381      -0.26881173
16
Frame=8 idx=011238 GeodesicLength=0.9079126247721027 rxn_smarts="[C:1]([C@@:2]([O:3][H:12])([C@@:4]([C:5]([H:14])([H:15])[H:16])([C:6]#[N:7])[H:13])[H:11])([H:8])([H:9])[H:10]>>[C:1]([C:4]([C:2](=[O:3])[H:11])([C:5]([H:14])([H:15])[H:16])[C:6]#[N:7])([H:8])([H:9])[H:10].[H:12][H:13]"
C       -1.32749902      -0.22323916      -1.03537084
C       -0.93932946      -0.27595356       0.64246088
O       -0.74644808      -1.41823153       1.21795687
C        0.31462908       0.40446455       0.20955806
C        1.49910598      -0.24192107      -0.44102519
C        0.25929088       1.84439422       0.15329497
N        0.14720461       2.98393750       0.05495150
H       -1.31936524       0.67459081      -1.65266646
H       -2.38058418      -0.50183170      -0.97938449
H       -0.83275151      -1.04708362      -1.54710074
H       -1.64697111       0.41489330       1.13375099
H        0.49450174      -1.16021701       2.07949617
H        1.07227958      -0.31097192       1.96586022
H        2.41572197       0.16930028      -0.01827421
H        1.53164642       0.00474114      -1.50477016
H        1.45856833      -1.31687224      -0.27873758
16
Frame=9 idx=011238 GeodesicLength=1.0238544618939567 rxn_smarts="[C:1]([C@@:2]([O:3][H:12])([C@@:4]([C:5]([H:14])([H:15])[H:16])([C:6]#[N:7])[H:13])[H:11])([H:8])([H:9])[H:10]>>[C:1]([C:4]([C:2](=[O:3])[H:11])([C:5]([H:14])([H:15])[H:16])[C:6]#[N:7])([H:8])([H:9])[H:10].[H:12][H:13]"
C       -1.31039363      -0.21712476      -1.03982091
C       -0.94883108      -0.27316219       0.65932813
O       -0.74779370      -1.40307911       1.25469545
C        0.30467100       0.40196660       0.20926008
C        1.49128100      -0.23908567      -0.44697951
C        0.24784358       1.84394437       0.15397542
N        0.12988014       2.98239494       0.05203461
H       -1.28480502       0.66341542      -1.68148188
H       -2.37060983      -0.47087817      -0.99232943
H       -0.83357858      -1.06252105      -1.53363098
H       -1.65993108       0.42015939       1.14142771
H        0.50160101      -1.20159232       2.09013625
H        1.09375407      -0.31736312       1.95284301
H        2.40594731       0.17438360      -0.02220949
H        1.52581245       0.01325889      -1.50892716
H        1.45515236      -1.31471684      -0.28832129
16
Frame=10 idx=011238 GeodesicLength=1.1403945667764557 rxn_smarts="[C:1]([C@@:2]([O:3][H:12])([C@@:4]([C:5]([H:14])([H:15])[H:16])([C:6]#[N:7])[H:13])[H:11])([H:8])([H:9])[H:10]>>[C:1]([C:4]([C:2](=[O:3])[H:11])([C:5]([H:14])([H:15])[H:16])[C:6]#[N:7])([H:8])([H:9])[H:10].[H:12][H:13]"
C       -1.29339295      -0.21108829      -1.04418894
C       -0.95816598      -0.27014718       0.67609859
O       -0.74859472      -1.38677709       1.29194323
C        0.29478154       0.39958225       0.20893643
C        1.48361692      -0.23618766      -0.45270680
C        0.23626741       1.84359295       0.15391469
N        0.11253712       2.98093042       0.04861747
H       -1.25054561       0.65144947      -1.70936567
H       -2.35999928      -0.44008917      -1.00500517
H       -0.83489553      -1.07694020      -1.52012925
H       -1.67278284       0.42550141       1.14896722
H        0.50804882      -1.24614462       2.09955369
H        1.11469448      -0.32244610       1.93977190
H        2.39625939       0.17965526      -0.02591727
H        1.52028000       0.02156392      -1.51288568
H        1.45189125      -1.31245536      -0.29760445
16
Frame=11 idx=011238 GeodesicLength=1.2572676237018046 rxn_smarts="[C:1]([C@@:2]([O:3][H:12])([C@@:4]([C:5]([H:14])([H:15])[H:16])([C:6]#[N:7])[H:13])[H:11])([H:8])([H:9])[H:10]>>[C:1]([C:4]([C:2](=[O:3])[H:11])([C:5]([H:14])([H:15])[H:16])[C:6]#[N:7])([H:8])([H:9])[H:10].[H:12][H:13]"
C       -1.27647661      -0.20517390      -1.04845189
C       -0.96731270      -0.26685240       0.69283247
O       -0.74876546      -1.36909925       1.32985949
C        0.28497332       0.39735619       0.20859847
C        1.47613445      -0.23318723      -0.45818768
C        0.22456515       1.84338127       0.15310462
N        0.09511413       2.97957622       0.04455049
H       -1.21664160       0.63868420      -1.73628259
H       -2.34873908      -0.40951453      -1.01736677
H       -0.83662378      -1.09042254      -1.50652964
H       -1.68551979       0.43099873       1.15636453
H        0.51353921      -1.29434756       2.10739481
H        1.13519776      -0.32620425       1.92670041
H        2.38667859       0.18517147      -0.02939649
H        1.51506080       0.02968327      -1.51663270
H        1.44881560      -1.31004970      -0.30655753
16
Frame=12 idx=011238 GeodesicLength=1.3744280133594582 rxn_smarts="[C:1]([C@@:2]([O:3][H:12])([C@@:4]([C:5]([H:14])([H:15])[H:16])([C:6]#[N:7])[H:13])[H:11])([H:8])([H:9])[H:10]>>[C:1]([C:4]([C:2](=[O:3])[H:11])([C:5]([H:14])([H:15])[H:16])[C:6]#[N:7])([H:8])([H:9])[H:10].[H:12][H:13]"
C       -1.25962330      -0.19942775      -1.05256967
C       -0.97623440      -0.26320395       0.70960571
O       -0.74821256      -1.34981174       1.36860271
C        0.27526472       0.39534534       0.20825481
C        1.46885801      -0.23004314      -0.46339202
C        0.21273927       1.84336247       0.15149498
N        0.07758018       2.97838080       0.03971027
H       -1.18314117       0.62511004      -1.76221349
H       -2.33683634      -0.37925448      -1.02934410
H       -0.83868476      -1.10306093      -1.49274409
H       -1.69812018       0.43675030       1.16363169
H        0.51770535      -1.34688473       2.11317746
H        1.15534530      -0.32843535       1.91370054
H        2.37722603       0.19101305      -0.03265616
H        1.51016641       0.03761243      -1.52015390
H        1.44596743      -1.30745235      -0.31510475
16
Frame=13 idx=011238 GeodesicLength=1.4915129745006697 rxn_smarts="[C:1]([C@@:2]([O:3][H:12])([C@@:4]([C:5]([H:14])([H:15])[H:16])([C:6]#[N:7])[H:13])[H:11])([H:8])([H:9])[H:10]>>[C:1]([C:4]([C:2](=[O:3])[H:11])([C:5]([H:14])([H:15])[H:16])[C:6]#[N:7])([H:8])([H:9])[H:10].[H:12][H:13]"
C       -1.24280979      -0.19392562      -1.05649637
C       -0.98488087      -0.25913759       0.72649398
O       -0.74676295      -1.32861837       1.40837572
C        0.26567981       0.39360902       0.20790585
C        1.46182113      -0.22670588      -0.46830593
C        0.20078359       1.84358776       0.14903361
N        0.05992793       2.97739979       0.03406306
H       -1.15011248       0.61069151      -1.78714207
H       -2.32428941      -0.34944749      -1.04085970
H       -0.84098870      -1.11497267      -1.47867210
H       -1.71055883       0.44283682       1.17076935
H        0.51996820      -1.40430680       2.11638816
H        1.17527150      -0.32903572       1.90080609
H        2.36793509       0.19728275      -0.03572982
H        1.50560277       0.04535068      -1.52345253
H        1.44341300      -1.30460820      -0.32317730
16
Frame=14 idx=011238 GeodesicLength=1.6084959832320271 rxn_smarts="[C:1]([C@@:2]([O:3][H:12])([C@@:4]([C:5]([H:14])([H:15])[H:16])([C:6]#[N:7])[H:13])[H:11])([H:8])([H:9])[H:10]>>[C:1]([C:4]([C:2](=[O:3])[H:11])([C:5]([H:14])([H:15])[H:16])[C:6]#[N:7])([H:8])([H:9])[H:10].[H:12][H:13]"
C       -1.22599622      -0.18875594      -1.06014683
C       -0.99316912      -0.25455183       0.74361185
O       -0.74415475      -1.30519746       1.44940356
C        0.25625765       0.39223621       0.20755406
C        1.45506743      -0.22309544      -0.47290492
C        0.18869032       1.84412467       0.14561357
N        0.04214198       2.97670337       0.02750418
H       -1.11759107       0.59532822      -1.81103954
H       -2.31109171      -0.32024022      -1.05178422
H       -0.84342980      -1.12629191      -1.46412633
H       -1.72277679       0.44936835       1.17782555
H        0.51948704      -1.46751891       2.11628460
H        1.19510742      -0.32771702       1.88807073
H        2.35883954       0.20413807      -0.03867439
H        1.50137380       0.05288952      -1.52653153
H        1.44124431      -1.30141969      -0.33066034
16
Frame=15 idx=011238 GeodesicLength=1.7250448026905665 rxn_smarts="[C:1]([C@@:2]([O:3][H:12])([C@@:4]([C:5]([H:14])([H:15])[H:16])([C:6]#[N:7])[H:13])[H:11])([H:8])([H:9])[H:10]>>[C:1]([C:4]([C:2](=[O:3])[H:11])([C:5]([H:14])([H:15])[H:16])[C:6]#[N:7])([H:8])([H:9])[H:10].[H:12][H:13]"
C       -1.20912319      -0.18402168      -1.06340625
C       -1.00096847      -0.24936952       0.76109739
O       -0.73996840      -1.27917246       1.49194791
C        0.24705856       0.39131370       0.20720426
C        1.44865436      -0.21911319      -0.47718084
C        0.17644842       1.84503303       0.14114168
N        0.02416582       2.97633368       0.01989604
H       -1.08561788       0.57891549      -1.83385629
H       -2.29720591      -0.29182137      -1.06194424
H       -0.84588178      -1.13715189      -1.44890926
H       -1.73467143       0.45640074       1.18488274
H        0.51499737      -1.53730501       2.11205003
H        1.21506438      -0.32429209       1.87551313
H        2.34998430       0.21177690      -0.04157983
H        1.49747352       0.06024220      -1.52941353
H        1.43959033      -1.29776853      -0.33744295
16
Frame=16 idx=011238 GeodesicLength=1.8408536315758188 rxn_smarts="[C:1]([C@@:2]([O:3][H:12])([C@@:4]([C:5]([H:14])([H:15])[H:16])([C:6]#[N:7])[H:13])[H:11])([H:8])([H:9])[H:10]>>[C:1]([C:4]([C:2](=[O:3])[H:11])([C:5]([H:14])([H:15])[H:16])[C:6]#[N:7])([H:8])([H:9])[H:10].[H:12][H:13]"
C       -1.19212553      -0.17984769      -1.06612247
C       -1.00806564      -0.24353666       0.77913569
O       -0.73359325      -1.25009183       1.53631113
C        0.23818829       0.39094473       0.20687845
C        1.44269280      -0.21463204      -0.48113175
C        0.16403865       1.84640758       0.13554439
N        0.00583140       2.97633557       0.01098679
H       -1.05427016       0.56131813      -1.85551946
H       -2.28257862      -0.26442161      -1.07110223
H       -0.84820101      -1.14771209      -1.43277321
H       -1.74606423       0.46393649       1.19209853
H        0.50455798      -1.61449858       2.10264790
H        1.23553777      -0.31858842       1.86315835
H        2.34147767       0.22046734      -0.04456529
H        1.49389814       0.06744139      -1.53214025
H        1.43867574      -1.29352233      -0.34340659
