12
Frame=0 idx=009748 GeodesicLength=0.0 rxn_smarts="[O:1]=[C:2]1[C:3]([H:8])([H:9])[C:4]([H:10])([H:11])[N:5]=[C:6]([H:12])[O:7]1>>[O:1]([C:2]1=[C:3]([H:8])[C:4]([H:10])([H:11])[N:5]=[C:6]([H:12])[O:7]1)[H:9]"
O       -1.23999043       2.07601048       0.07008517
C       -0.39141740       1.13636055       0.09521983
C       -0.98382434      -0.14075432       0.22084068
C       -0.11010906      -1.27214456      -0.27144987
N        1.31651114      -0.96367372      -0.11368452
C        1.69898728       0.21432372      -0.03478533
O        0.88867915       1.37267332      -0.09529921
H       -1.42787798      -0.26606447       1.20714241
H       -1.91849686       1.02016198      -0.07606743
H       -0.26104397      -1.49145516      -1.33284219
H       -0.30574830      -2.20031092       0.26404953
H        2.73433076       0.51487314       0.06679092
12
Frame=1 idx=009748 GeodesicLength=0.039072436541319595 rxn_smarts="[O:1]=[C:2]1[C:3]([H:8])([H:9])[C:4]([H:10])([H:11])[N:5]=[C:6]([H:12])[O:7]1>>[O:1]([C:2]1=[C:3]([H:8])[C:4]([H:10])([H:11])[N:5]=[C:6]([H:12])[O:7]1)[H:9]"
O       -1.23896642       2.07647081       0.05946803
C       -0.38826017       1.13978705       0.11781071
C       -0.98209304      -0.13864335       0.22590781
C       -0.10882697      -1.26894340      -0.26941973
N        1.31755958      -0.96427869      -0.11120985
C        1.70029655       0.21416332      -0.03026317
O        0.89232867       1.37103777      -0.09307325
H       -1.43599775      -0.27364376       1.20630321
H       -1.92517734       1.01384189      -0.08812340
H       -0.26282478      -1.48408894      -1.33132236
H       -0.30612728      -2.19881508       0.26292400
H        2.73808896       0.51311238       0.05099801
12
Frame=2 idx=009748 GeodesicLength=0.07813093327607118 rxn_smarts="[O:1]=[C:2]1[C:3]([H:8])([H:9])[C:4]([H:10])([H:11])[N:5]=[C:6]([H:12])[O:7]1>>[O:1]([C:2]1=[C:3]([H:8])[C:4]([H:10])([H:11])[N:5]=[C:6]([H:12])[O:7]1)[H:9]"
O       -1.23753823       2.07661855       0.04899865
C       -0.38536172       1.14322258       0.13915927
C       -0.98028065      -0.13643748       0.23099988
C       -0.10763371      -1.26573137      -0.26750414
N        1.31854776      -0.96481391      -0.10932236
C        1.70152990       0.21404636      -0.02588583
O        0.89580625       1.36941444      -0.09023183
H       -1.44317499      -0.28081610       1.20572046
H       -1.93183789       1.00726669      -0.10007815
H       -0.26494698      -1.47688259      -1.32981961
H       -0.30644137      -2.19721362       0.26187912
H        2.74133163       0.51132644       0.03608455
12
Frame=3 idx=009748 GeodesicLength=0.11717019955501393 rxn_smarts="[O:1]=[C:2]1[C:3]([H:8])([H:9])[C:4]([H:10])([H:11])[N:5]=[C:6]([H:12])[O:7]1>>[O:1]([C:2]1=[C:3]([H:8])[C:4]([H:10])([H:11])[N:5]=[C:6]([H:12])[O:7]1)[H:9]"
O       -1.23578593       2.07648009       0.03868188
C       -0.38268911       1.14667429       0.15919659
C       -0.97839221      -0.13414186       0.23610169
C       -0.10654074      -1.26251280      -0.26573213
N        1.31947166      -0.96528576      -0.10810926
C        1.70269541       0.21396460      -0.02183323
O        0.89916828       1.36782796      -0.08701466
H       -1.44932681      -0.28756936       1.20546294
H       -1.93855765       1.00043050      -0.11178377
H       -0.26746617      -1.46986634      -1.32835110
H       -0.30668107      -2.19550632       0.26090842
H        2.74410436       0.50950500       0.02247263
12
Frame=4 idx=009748 GeodesicLength=0.1561851268242106 rxn_smarts="[O:1]=[C:2]1[C:3]([H:8])([H:9])[C:4]([H:10])([H:11])[N:5]=[C:6]([H:12])[O:7]1>>[O:1]([C:2]1=[C:3]([H:8])[C:4]([H:10])([H:11])[N:5]=[C:6]([H:12])[O:7]1)[H:9]"
O       -1.23377147       2.07608232       0.02853249
C       -0.38020301       1.15015136       0.17799654
C       -0.97644498      -0.13176099       0.24119201
C       -0.10554771      -1.25928596      -0.26410553
N        1.32032889      -0.96570404      -0.10752269
C        1.70379939       0.21390638      -0.01811831
O        0.90245591       1.36628498      -0.08358239
H       -1.45450363      -0.29393288       1.20552858
H       -1.94538193       0.99333742      -0.12319332
H       -0.27035461      -1.46303030      -1.32692370
H       -0.30686630      -2.19369969       0.25999374
H        2.74648945       0.50765139       0.01020259
12
Frame=5 idx=009748 GeodesicLength=0.19518077607825005 rxn_smarts="[O:1]=[C:2]1[C:3]([H:8])([H:9])[C:4]([H:10])([H:11])[N:5]=[C:6]([H:12])[O:7]1>>[O:1]([C:2]1=[C:3]([H:8])[C:4]([H:10])([H:11])[N:5]=[C:6]([H:12])[O:7]1)[H:9]"
O       -1.23154728       2.07545199       0.01856487
C       -0.37785895       1.15366290       0.19565518
C       -0.97444597      -0.12929753       0.24626070
C       -0.10465644      -1.25604964      -0.26262777
N        1.32111800      -0.96607539      -0.10755348
C        1.70484566       0.21386637      -0.01480996
O        0.90569307       1.36478640      -0.08014300
H       -1.45874879      -0.29993778       1.20592057
H       -1.95234385       0.98598835      -0.13426389
H       -0.27361217      -1.45636934      -1.32554047
H       -0.30700470      -2.19179722       0.25912539
H        2.74856142       0.50577089      -0.00058816
12
Frame=6 idx=009748 GeodesicLength=0.2341422039038299 rxn_smarts="[O:1]=[C:2]1[C:3]([H:8])([H:9])[C:4]([H:10])([H:11])[N:5]=[C:6]([H:12])[O:7]1>>[O:1]([C:2]1=[C:3]([H:8])[C:4]([H:10])([H:11])[N:5]=[C:6]([H:12])[O:7]1)[H:9]"
O       -1.22914957       2.07460213       0.00879696
C       -0.37563179       1.15722710       0.21226454
C       -0.97240668      -0.12674989       0.25129728
C       -0.10386466      -1.25280274      -0.26129713
N        1.32184005      -0.96640652      -0.10817120
C        1.70583791       0.21383709      -0.01192285
O        0.90889284       1.36333034      -0.07682949
H       -1.46212015      -0.30561033       1.20662664
H       -1.95947299       0.97839023      -0.14498115
H       -0.27721935      -1.44987613      -1.32420637
H       -0.30710377      -2.18980513       0.25829741
H        2.75039815       0.50386385      -0.00987465
12
Frame=7 idx=009748 GeodesicLength=0.2730462793762087 rxn_smarts="[O:1]=[C:2]1[C:3]([H:8])([H:9])[C:4]([H:10])([H:11])[N:5]=[C:6]([H:12])[O:7]1>>[O:1]([C:2]1=[C:3]([H:8])[C:4]([H:10])([H:11])[N:5]=[C:6]([H:12])[O:7]1)[H:9]"
O       -1.22660771       2.07358693      -0.00072164
C       -0.37346805       1.16080286       0.22785420
C       -0.97032915      -0.12412840       0.25626795
C       -0.10316819      -1.24954743      -0.26010562
N        1.32249361      -0.96670021      -0.10932638
C        1.70676555       0.21381865      -0.00940748
O        0.91206149       1.36191077      -0.07367145
H       -1.46468338      -0.31095948       1.20759069
H       -1.96677005       0.97053921      -0.15533649
H       -0.28114334      -1.44355537      -1.32290320
H       -0.30718205      -2.18771766       0.25750979
H        2.75203128       0.50195013      -0.01775036
12
Frame=8 idx=009748 GeodesicLength=0.3119286162787058 rxn_smarts="[O:1]=[C:2]1[C:3]([H:8])([H:9])[C:4]([H:10])([H:11])[N:5]=[C:6]([H:12])[O:7]1>>[O:1]([C:2]1=[C:3]([H:8])[C:4]([H:10])([H:11])[N:5]=[C:6]([H:12])[O:7]1)[H:9]"
O       -1.22392586       2.07238737      -0.01001269
C       -0.37138784       1.16444443       0.24268459
C       -0.96825014      -0.12142615       0.26117708
C       -0.10254754      -1.24627004      -0.25901579
N        1.32308319      -0.96696417      -0.11080990
C        1.70765461       0.21379592      -0.00708594
O        0.91522255       1.36052130      -0.07061552
H       -1.46664023      -0.31606474       1.20874296
H       -1.97423542       0.96245281      -0.16545874
H       -0.28525539      -1.43733467      -1.32163653
H       -0.30727442      -2.18555528       0.25673841
H        2.75355648       0.50001323      -0.02470793
12
Frame=9 idx=009748 GeodesicLength=0.3508133839152265 rxn_smarts="[O:1]=[C:2]1[C:3]([H:8])([H:9])[C:4]([H:10])([H:11])[N:5]=[C:6]([H:12])[O:7]1>>[O:1]([C:2]1=[C:3]([H:8])[C:4]([H:10])([H:11])[N:5]=[C:6]([H:12])[O:7]1)[H:9]"
O       -1.22113602       2.07104194      -0.01907062
C       -0.36935172       1.16813797       0.25692697
C       -0.96618169      -0.11864673       0.26601019
C       -0.10198585      -1.24296224      -0.25799561
N        1.32361410      -0.96720403      -0.11246347
C        1.70851682       0.21376503      -0.00481479
O        0.91839238       1.35915600      -0.06757505
H       -1.46815237      -0.32097275       1.21001124
H       -1.98182907       0.95412474      -0.17545244
H       -0.28945797      -1.43117102      -1.32038912
H       -0.30741672      -2.18332160       0.25596803
H        2.75498811       0.49805268      -0.03115533
12
Frame=10 idx=009748 GeodesicLength=0.3896868615762082 rxn_smarts="[O:1]=[C:2]1[C:3]([H:8])([H:9])[C:4]([H:10])([H:11])[N:5]=[C:6]([H:12])[O:7]1>>[O:1]([C:2]1=[C:3]([H:8])[C:4]([H:10])([H:11])[N:5]=[C:6]([H:12])[O:7]1)[H:9]"
O       -1.21821065       2.06954516      -0.02788425
C       -0.36736003       1.17187935       0.27069137
C       -0.96414053      -0.11579122       0.27076042
C       -0.10147205      -1.23961800      -0.25701941
N        1.32408902      -0.96741841      -0.11418419
C        1.70936289       0.21372305      -0.00249568
O        0.92158470       1.35781198      -0.06445127
H       -1.46933538      -0.32571387       1.21132710
H       -1.98952658       0.94556001      -0.18539966
H       -0.29368608      -1.42504154      -1.31914851
H       -0.30762577      -2.18101592       0.25520300
H        2.75632046       0.49607940      -0.03739893
12
Frame=11 idx=009748 GeodesicLength=0.4285451700262174 rxn_smarts="[O:1]=[C:2]1[C:3]([H:8])([H:9])[C:4]([H:10])([H:11])[N:5]=[C:6]([H:12])[O:7]1>>[O:1]([C:2]1=[C:3]([H:8])[C:4]([H:10])([H:11])[N:5]=[C:6]([H:12])[O:7]1)[H:9]"
O       -1.21519400       2.06792463      -0.03644020
C       -0.36540162       1.17567871       0.28397993
C       -0.96212299      -0.11285728       0.27542695
C       -0.10100781      -1.23624244      -0.25609534
N        1.32450944      -0.96761272      -0.11599523
C        1.71018597       0.21367097      -0.00018061
O        0.92479071       1.35649110      -0.06133812
H       -1.47017043      -0.33028241       1.21271026
H       -1.99734722       0.93675408      -0.19527250
H       -0.29795450      -1.41895441      -1.31792410
H       -0.30789527      -2.17864633       0.25443921
H        2.75760772       0.49407610      -0.04331026
12
Frame=12 idx=009748 GeodesicLength=0.46736954166851075 rxn_smarts="[O:1]=[C:2]1[C:3]([H:8])([H:9])[C:4]([H:10])([H:11])[N:5]=[C:6]([H:12])[O:7]1>>[O:1]([C:2]1=[C:3]([H:8])[C:4]([H:10])([H:11])[N:5]=[C:6]([H:12])[O:7]1)[H:9]"
O       -1.21210730       2.06618939      -0.04475045
C       -0.36343359       1.17952169       0.29672684
C       -0.96009882      -0.10984667       0.28002205
C       -0.10061080      -1.23283526      -0.25525154
N        1.32486954      -0.96778284      -0.11806239
C        1.71098395       0.21361254       0.00189944
O        0.92800684       1.35519014      -0.05844793
H       -1.47053994      -0.33464819       1.21422704
H       -2.00531446       0.92767449      -0.20496019
H       -0.30237105      -1.41292913      -1.31671291
H       -0.30820167      -2.17619651       0.25368180
H        2.75881730       0.49205034      -0.04837177
12
Frame=13 idx=009748 GeodesicLength=0.5061901897824225 rxn_smarts="[O:1]=[C:2]1[C:3]([H:8])([H:9])[C:4]([H:10])([H:11])[N:5]=[C:6]([H:12])[O:7]1>>[O:1]([C:2]1=[C:3]([H:8])[C:4]([H:10])([H:11])[N:5]=[C:6]([H:12])[O:7]1)[H:9]"
O       -1.20895096       2.06433786      -0.05284536
C       -0.36146906       1.18343403       0.30903672
C       -0.95808210      -0.10675288       0.28455447
C       -0.10027335      -1.22939419      -0.25447692
N        1.32517296      -0.96793098      -0.12032355
C        1.71175552       0.21354589       0.00384032
O        0.93123377       1.35391143      -0.05573940
H       -1.47052043      -0.33884030       1.21585672
H       -2.01343353       0.91832144      -0.21451485
H       -0.30689935      -1.40693987      -1.31552365
H       -0.30854795      -2.17367868       0.25292333
H        2.76001448       0.48998625      -0.05278784
12
Frame=14 idx=009748 GeodesicLength=0.5450037199414092 rxn_smarts="[O:1]=[C:2]1[C:3]([H:8])([H:9])[C:4]([H:10])([H:11])[N:5]=[C:6]([H:12])[O:7]1>>[O:1]([C:2]1=[C:3]([H:8])[C:4]([H:10])([H:11])[N:5]=[C:6]([H:12])[O:7]1)[H:9]"
O       -1.20573091       2.06238270      -0.06071317
C       -0.35949282       1.18740952       0.32097238
C       -0.95607600      -0.10357719       0.28902112
C       -0.09999074      -1.22591516      -0.25375733
N        1.32542065      -0.96805527      -0.12273699
C        1.71250802       0.21347101       0.00567678
O        0.93448005       1.35265349      -0.05316119
H       -1.47017676      -0.34287118       1.21756573
H       -2.02167809       0.90868343      -0.22399092
H       -0.31151598      -1.40097744      -1.31434447
H       -0.30894103      -2.17109053       0.25216882
H        2.76119361       0.48788662      -0.05670074
12
Frame=15 idx=009748 GeodesicLength=0.5838115813505964 rxn_smarts="[O:1]=[C:2]1[C:3]([H:8])([H:9])[C:4]([H:10])([H:11])[N:5]=[C:6]([H:12])[O:7]1>>[O:1]([C:2]1=[C:3]([H:8])[C:4]([H:10])([H:11])[N:5]=[C:6]([H:12])[O:7]1)[H:9]"
O       -1.20245501       2.06033649      -0.06836128
C       -0.35749945       1.19144798       0.33256690
C       -0.95408206      -0.10031861       0.29342092
C       -0.09975996      -1.22239537      -0.25308841
N        1.32561376      -0.96815721      -0.12527962
C        1.71324501       0.21338416       0.00744151
O        0.93774997       1.35141500      -0.05069287
H       -1.46953457      -0.34674796       1.21934215
H       -2.03004383       0.89874854      -0.23340614
H       -0.31620823      -1.39503029      -1.31317343
H       -0.30938609      -2.16843152       0.25141491
H        2.76236046       0.48574879      -0.06018464
12
Frame=16 idx=009748 GeodesicLength=0.6226252478466255 rxn_smarts="[O:1]=[C:2]1[C:3]([H:8])([H:9])[C:4]([H:10])([H:11])[N:5]=[C:6]([H:12])[O:7]1>>[O:1]([C:2]1=[C:3]([H:8])[C:4]([H:10])([H:11])[N:5]=[C:6]([H:12])[O:7]1)[H:9]"
O       -1.19911652       2.05820653      -0.07579882
C       -0.35548681       1.19554938       0.34386209
C       -0.95210317      -0.09697683       0.29775553
C       -0.09957738      -1.21883140      -0.25246366
N        1.32575400      -0.96823510      -0.12793114
C        1.71397012       0.21328455       0.00916246
O        0.94104849       1.35019576      -0.04830314
H       -1.46863174      -0.35047908       1.22116826
H       -2.03852480       0.88850391      -0.24278367
H       -0.32096489      -1.38908955      -1.31200639
H       -0.30988528      -2.16569988       0.25066221
H        2.76351798       0.48357171      -0.06332373
