14
Frame=0 idx=001382 GeodesicLength=0.0 rxn_smarts="[C:1]([C:2](=[O:3])[C:4]1([H:10])[C:5]([H:11])([H:12])[C:6]1([H:13])[H:14])([H:7])([H:8])[H:9]>>[C:1]([H:7])([H:8])([H:9])[H:13].[C:2](#[O+:3])[C@@:4]1([H:10])[C:5]([H:11])([H:12])[C-:6]1[H:14]"
C       -1.63266217      -0.66653019       0.71443245
C       -0.47627034       1.13656895      -0.19891626
O       -0.90747183       2.08200370       0.29696706
C        0.41719610       0.37405539      -0.93802095
C        1.91523241       0.18619150      -0.74675852
C        1.02379782      -0.38665002       0.29481156
H       -2.42455595      -0.30753322       0.05229070
H       -1.76395406      -1.75408227       0.76701426
H       -1.80104249      -0.24828544       1.70770416
H       -0.07083207      -0.33463554      -1.59354216
H        2.56903335       1.01223719      -0.48814687
H        2.28896086      -0.43988101      -1.54981812
H       -0.20016925      -0.92555794       0.51130175
H        1.06273761       0.27209892       1.17068100
14
Frame=1 idx=001382 GeodesicLength=0.07803011500649429 rxn_smarts="[C:1]([C:2](=[O:3])[C:4]1([H:10])[C:5]([H:11])([H:12])[C:6]1([H:13])[H:14])([H:7])([H:8])[H:9]>>[C:1]([H:7])([H:8])([H:9])[H:13].[C:2](#[O+:3])[C@@:4]1([H:10])[C:5]([H:11])([H:12])[C-:6]1[H:14]"
C       -1.64261966      -0.65685133       0.71723718
C       -0.48224314       1.12361560      -0.21123988
O       -0.87973889       2.08295237       0.28923151
C        0.41642893       0.35339493      -0.93906216
C        1.91790600       0.19650017      -0.74758381
C        1.03913936      -0.39222967       0.29484411
H       -2.44642641      -0.28038871       0.07877041
H       -1.78473122      -1.74382482       0.73146140
H       -1.81206864      -0.26313036       1.72032083
H       -0.06343701      -0.35888610      -1.59668452
H        2.54459536       1.04647049      -0.49876418
H        2.30738100      -0.42615991      -1.54575335
H       -0.18874694      -0.94618418       0.53526657
H        1.07456125       0.26472153       1.17195589
14
Frame=2 idx=001382 GeodesicLength=0.15601252900722284 rxn_smarts="[C:1]([C:2](=[O:3])[C:4]1([H:10])[C:5]([H:11])([H:12])[C:6]1([H:13])[H:14])([H:7])([H:8])[H:9]>>[C:1]([H:7])([H:8])([H:9])[H:13].[C:2](#[O+:3])[C@@:4]1([H:10])[C:5]([H:11])([H:12])[C-:6]1[H:14]"
C       -1.65249926      -0.64696560       0.72013409
C       -0.48814185       1.11085791      -0.22324132
O       -0.85281121       2.08316459       0.28040550
C        0.41580468       0.33294579      -0.93956963
C        1.92016423       0.20667535      -0.74843533
C        1.05453475      -0.39770537       0.29499730
H       -2.46727514      -0.25333168       0.10546625
H       -1.80426344      -1.73203000       0.69521980
H       -1.82375534      -0.27890454       1.73263874
H       -0.05593962      -0.38249842      -1.59962695
H        2.51963513       1.07902257      -0.50936903
H        2.32498747      -0.41210207      -1.54193891
H       -0.17715539      -0.96647834       0.55991834
H        1.08671499       0.25734980       1.17340114
14
Frame=3 idx=001382 GeodesicLength=0.23396308724704257 rxn_smarts="[C:1]([C:2](=[O:3])[C:4]1([H:10])[C:5]([H:11])([H:12])[C:6]1([H:13])[H:14])([H:7])([H:8])[H:9]>>[C:1]([H:7])([H:8])([H:9])[H:13].[C:2](#[O+:3])[C@@:4]1([H:10])[C:5]([H:11])([H:12])[C-:6]1[H:14]"
C       -1.66231094      -0.63684697       0.72317040
C       -0.49397303       1.09828796      -0.23493485
O       -0.82671575       2.08269825       0.27059485
C        0.41531328       0.31272117      -0.93956458
C        1.92201727       0.21670324      -0.74931598
C        1.06998062      -0.40309136       0.29524245
H       -2.48706290      -0.22646577       0.13226271
H       -1.82255743      -1.71863659       0.65850315
H       -1.83615945      -0.29557194       1.74461191
H       -0.04835221      -0.40544909      -1.60240849
H        2.49423484       1.10994078      -0.51992679
H        2.34178771      -0.39772229      -1.53838705
H       -0.16538188      -0.98652456       0.58515218
H        1.09917987       0.24995719       1.17500008
14
Frame=4 idx=001382 GeodesicLength=0.3119070049282132 rxn_smarts="[C:1]([C:2](=[O:3])[C:4]1([H:10])[C:5]([H:11])([H:12])[C:6]1([H:13])[H:14])([H:7])([H:8])[H:9]>>[C:1]([H:7])([H:8])([H:9])[H:13].[C:2](#[O+:3])[C@@:4]1([H:10])[C:5]([H:11])([H:12])[C-:6]1[H:14]"
C       -1.67205526      -0.62648426       0.72639592
C       -0.49974073       1.08589015      -0.24633410
O       -0.80146490       2.08160190       0.25989845
C        0.41495048       0.29272231      -0.93906042
C        1.92348009       0.22657588      -0.75022490
C        1.08548192      -0.40840142       0.29555829
H       -2.50580709      -0.19984435       0.15903830
H       -1.83963067      -1.70360699       0.62150262
H       -1.84933121      -0.31308589       1.75619908
H       -0.04068162      -0.42772762      -1.60505503
H        2.46843966       1.13929770      -0.53041725
H        2.35780259      -0.38303981      -1.53511277
H       -0.15339168      -1.00641852       0.61087600
H        1.11194840       0.24252093       1.17673581
14
Frame=5 idx=001382 GeodesicLength=0.3898432288745542 rxn_smarts="[C:1]([C:2](=[O:3])[C:4]1([H:10])[C:5]([H:11])([H:12])[C:6]1([H:13])[H:14])([H:7])([H:8])[H:9]>>[C:1]([H:7])([H:8])([H:9])[H:13].[C:2](#[O+:3])[C@@:4]1([H:10])[C:5]([H:11])([H:12])[C-:6]1[H:14]"
C       -1.68174085      -0.61585646       0.72984093
C       -0.50544928       1.07366725      -0.25743729
O       -0.77707114       2.07992609       0.24842532
C        0.41469941       0.27297170      -0.93807858
C        1.92456096       0.23629241      -0.75117843
C        1.10104233      -0.41364578       0.29590860
H       -2.52344135      -0.17361279       0.18563791
H       -1.85551172      -1.68689661       0.58451649
H       -1.86335330      -0.33137934       1.76730841
H       -0.03295066      -0.44929749      -1.60760533
H        2.44234263       1.16712117      -0.54078844
H        2.37302844      -0.36805282      -1.53214569
H       -0.14116614      -1.02624769       0.63700515
H        1.12501067       0.23501034       1.17859096
14
Frame=6 idx=001382 GeodesicLength=0.46778864034083134 rxn_smarts="[C:1]([C:2](=[O:3])[C:4]1([H:10])[C:5]([H:11])([H:12])[C:6]1([H:13])[H:14])([H:7])([H:8])[H:9]>>[C:1]([H:7])([H:8])([H:9])[H:13].[C:2](#[O+:3])[C@@:4]1([H:10])[C:5]([H:11])([H:12])[C-:6]1[H:14]"
C       -1.69136534      -0.60496642       0.73353120
C       -0.51110133       1.06161197      -0.26824917
O       -0.75353199       2.07771131       0.23628133
C        0.41455297       0.25347496      -0.93663128
C        1.92526972       0.24585487      -0.75218481
C        1.11667799      -0.41882670       0.29627064
H       -2.54000348      -0.14780885       0.21192580
H       -1.87022310      -1.66851606       0.54778135
H       -1.87829417      -0.35038698       1.77785535
H       -0.02516900      -0.47014810      -1.61007554
H        2.41599549       1.19346590      -0.55101636
H        2.38747032      -0.35277505      -1.52950579
H       -0.12864826      -1.04610420       0.66347007
H        1.13837017       0.22741334       1.18054722
14
Frame=7 idx=001382 GeodesicLength=0.5457535255948287 rxn_smarts="[C:1]([C:2](=[O:3])[C:4]1([H:10])[C:5]([H:11])([H:12])[C:6]1([H:13])[H:14])([H:7])([H:8])[H:9]>>[C:1]([H:7])([H:8])([H:9])[H:13].[C:2](#[O+:3])[C@@:4]1([H:10])[C:5]([H:11])([H:12])[C-:6]1[H:14]"
C       -1.70092815      -0.59381297       0.73747784
C       -0.51669501       1.04972383      -0.27876758
O       -0.73083939       2.07499694       0.22357111
C        0.41450291       0.23424334      -0.93473002
C        1.92561619       0.25526534      -0.75325426
C        1.13240566      -0.42394866       0.29661799
H       -2.55551196      -0.12250282       0.23776451
H       -1.88380521      -1.64848250       0.51155629
H       -1.89422953      -0.37002828       1.78773962
H       -0.01734995      -0.49026112      -1.61248326
H        2.38945567       1.21838507      -0.56107949
H        2.40113085      -0.33721224      -1.52721781
H       -0.11578496      -1.06607843       0.69021729
H        1.15203289       0.21971251       1.18258777
14
Frame=8 idx=001382 GeodesicLength=0.6237424996730563 rxn_smarts="[C:1]([C:2](=[O:3])[C:4]1([H:10])[C:5]([H:11])([H:12])[C:6]1([H:13])[H:14])([H:7])([H:8])[H:9]>>[C:1]([H:7])([H:8])([H:9])[H:13].[C:2](#[O+:3])[C@@:4]1([H:10])[C:5]([H:11])([H:12])[C-:6]1[H:14]"
C       -1.71042366      -0.58241013       0.74168279
C       -0.52222307       1.03799964      -0.28899623
O       -0.70897190       2.07182153       0.21039685
C        0.41454966       0.21528010      -0.93238378
C        1.92561553       0.26452638      -0.75439556
C        1.14824458      -0.42901062       0.29692549
H       -2.57008987      -0.09769256       0.26303189
H       -1.89626811      -1.62687278       0.47606998
H       -1.91122339      -0.39021808       1.79687002
H       -0.00950257      -0.50963046      -1.61483699
H        2.36276115       1.24193979      -0.57095315
H        2.41401546      -0.32138164      -1.52530016
H       -0.10250175      -1.08625003       0.71720236
H        1.16601794       0.21189885       1.18468648
14
Frame=9 idx=001382 GeodesicLength=0.701666684356644 rxn_smarts="[C:1]([C:2](=[O:3])[C:4]1([H:10])[C:5]([H:11])([H:12])[C:6]1([H:13])[H:14])([H:7])([H:8])[H:9]>>[C:1]([H:7])([H:8])([H:9])[H:13].[C:2](#[O+:3])[C@@:4]1([H:10])[C:5]([H:11])([H:12])[C-:6]1[H:14]"
C       -1.71985245      -0.57078149       0.74612262
C       -0.52769457       1.02646219      -0.29890758
O       -0.68789375       2.06823896       0.19685472
C        0.41465923       0.19660676      -0.92962739
C        1.92527706       0.27363537      -0.75563372
C        1.16418389      -0.43402406       0.29715761
H       -2.58374577      -0.07344868       0.28765948
H       -1.90751489      -1.60384716       0.44161768
H       -1.92940430      -0.41080336       1.80502061
H       -0.00168560      -0.52818462      -1.61715424
H        2.33601841       1.26414542      -0.58057162
H        2.42611084      -0.30530170      -1.52379593
H       -0.08879972      -1.10664730       0.74443968
H        1.18034163       0.20394965       1.18681808
14
Frame=10 idx=001382 GeodesicLength=0.7796080705119922 rxn_smarts="[C:1]([C:2](=[O:3])[C:4]1([H:10])[C:5]([H:11])([H:12])[C:6]1([H:13])[H:14])([H:7])([H:8])[H:9]>>[C:1]([H:7])([H:8])([H:9])[H:13].[C:2](#[O+:3])[C@@:4]1([H:10])[C:5]([H:11])([H:12])[C-:6]1[H:14]"
C       -1.72922545      -0.55891327       0.75079704
C       -0.53309697       1.01510281      -0.30851131
O       -0.66759081       2.06427107       0.18306202
C        0.41484047       0.17821459      -0.92643818
C        1.92460968       0.28259694      -0.75697249
C        1.18027314      -0.43896549       0.29731406
H       -2.59655076      -0.04976693       0.31148634
H       -1.91774893      -1.57944709       0.40830281
H       -1.94875335      -0.43176653       1.81218003
H        0.00611836      -0.54597332      -1.61941340
H        2.30923703       1.28508964      -0.59000488
H        2.43741693      -0.28898255      -1.52270410
H       -0.07455794      -1.12734920       0.77192550
H        1.19502859       0.19588933       1.18897656
14
Frame=11 idx=001382 GeodesicLength=0.8575723088363072 rxn_smarts="[C:1]([C:2](=[O:3])[C:4]1([H:10])[C:5]([H:11])([H:12])[C:6]1([H:13])[H:14])([H:7])([H:8])[H:9]>>[C:1]([H:7])([H:8])([H:9])[H:13].[C:2](#[O+:3])[C@@:4]1([H:10])[C:5]([H:11])([H:12])[C-:6]1[H:14]"
C       -1.73855796      -0.54681357       0.75568965
C       -0.53842963       1.00392414      -0.31779099
O       -0.64803117       2.05994911       0.16911332
C        0.41507648       0.16010294      -0.92281016
C        1.92362135       0.29141034      -0.75842546
C        1.19653525      -0.44382625       0.29738303
H       -2.60856906      -0.02664333       0.33440822
H       -1.92703560      -1.55380731       0.37626827
H       -1.96929268      -0.45301755       1.81823094
H        0.01388222      -0.56299437      -1.62159993
H        2.28246195       1.30483596      -0.59925586
H        2.44792888      -0.27244423      -1.52205546
H       -0.05969827      -1.14840234       0.79969455
H        1.21010822       0.18772648       1.19114989
14
Frame=12 idx=001382 GeodesicLength=0.9355676850630645 rxn_smarts="[C:1]([C:2](=[O:3])[C:4]1([H:10])[C:5]([H:11])([H:12])[C:6]1([H:13])[H:14])([H:7])([H:8])[H:9]>>[C:1]([H:7])([H:8])([H:9])[H:13].[C:2](#[O+:3])[C@@:4]1([H:10])[C:5]([H:11])([H:12])[C-:6]1[H:14]"
C       -1.74786175      -0.53450613       0.76076888
C       -0.54368674       0.99292419      -0.32673313
O       -0.62917870       2.05529810       0.15509864
C        0.41536182       0.14226255      -0.91873524
C        1.92232694       0.30007158      -0.76000293
C        1.21299807      -0.44859456       0.29735819
H       -2.61995261      -0.00401045       0.35636792
H       -1.93542635      -1.52708757       0.34558847
H       -1.99102836      -0.47447421       1.82307311
H        0.02158800      -0.57925991      -1.62368780
H        2.25572026       1.32345690      -0.60834192
H        2.45764604      -0.25571486      -1.52187370
H       -0.04412530      -1.16984457       0.82779546
H        1.22561869       0.17947893       1.19332403
14
Frame=13 idx=001382 GeodesicLength=1.0135813288790807 rxn_smarts="[C:1]([C:2](=[O:3])[C:4]1([H:10])[C:5]([H:11])([H:12])[C:6]1([H:13])[H:14])([H:7])([H:8])[H:9]>>[C:1]([H:7])([H:8])([H:9])[H:13].[C:2](#[O+:3])[C@@:4]1([H:10])[C:5]([H:11])([H:12])[C-:6]1[H:14]"
C       -1.75715324      -0.52199973       0.76600502
C       -0.54886777       0.98211855      -0.33531662
O       -0.61100258       2.05035136       0.14112187
C        0.41567849       0.12470070      -0.91420681
C        1.92073033       0.30857554      -0.76172246
C        1.22967995      -0.45326096       0.29722458
H       -2.63073407       0.01810433       0.37729328
H       -1.94298015      -1.49942360       0.31637974
H       -2.01399180      -0.49604147       1.82656219
H        0.02920375      -0.59476299      -1.62566112
H        2.22905804       1.34099501      -0.61727282
H        2.46654987      -0.23882018      -1.52218529
H       -0.02776609      -1.19169264       0.85629309
H        1.24159527       0.17115607       1.19548534
14
Frame=14 idx=001382 GeodesicLength=1.0916028441152545 rxn_smarts="[C:1]([C:2](=[O:3])[C:4]1([H:10])[C:5]([H:11])([H:12])[C:6]1([H:13])[H:14])([H:7])([H:8])[H:9]>>[C:1]([H:7])([H:8])([H:9])[H:13].[C:2](#[O+:3])[C@@:4]1([H:10])[C:5]([H:11])([H:12])[C-:6]1[H:14]"
C       -1.76645654      -0.50931594       0.77136398
C       -0.55397100       0.97151140      -0.34352412
O       -0.59347181       2.04513530       0.12726767
C        0.41601526       0.10741164      -0.90921376
C        1.91883581       0.31691841      -0.76359479
C        1.24659992      -0.45781342       0.29697407
H       -2.64103030       0.03974519       0.39714520
H       -1.94973620      -1.47098125       0.28866408
H       -2.03816106      -0.51762116       1.82860304
H        0.03670344      -0.60950834      -1.62748831
H        2.20250472       1.35749226      -0.62605645
H        2.47462730      -0.22178896      -1.52301152
H       -0.01053194      -1.21396231       0.88525301
H        1.25807242       0.16277716       1.19761792
14
Frame=15 idx=001382 GeodesicLength=1.1696201606422676 rxn_smarts="[C:1]([C:2](=[O:3])[C:4]1([H:10])[C:5]([H:11])([H:12])[C:6]1([H:13])[H:14])([H:7])([H:8])[H:9]>>[C:1]([H:7])([H:8])([H:9])[H:13].[C:2](#[O+:3])[C@@:4]1([H:10])[C:5]([H:11])([H:12])[C-:6]1[H:14]"
C       -1.77579824      -0.49647810       0.77680695
C       -0.55899610       0.96111014      -0.35133321
O       -0.57655717       2.03967553       0.11362572
C        0.41635889       0.09039527      -0.90374340
C        1.91664740       0.32509692      -0.76563114
C        1.26377453      -0.46224425       0.29659348
H       -2.65094512       0.06092764       0.41587780
H       -1.95573531      -1.44191208       0.26247220
H       -2.06350972      -0.53909559       1.82909577
H        0.04405755      -0.62349811      -1.62914257
H        2.17608806       1.37298648      -0.63469406
H        2.48186309      -0.20464836      -1.52437499
H        0.00766452      -1.23666829       0.91474335
H        1.27508763       0.15435280       1.19970410
14
Frame=16 idx=001382 GeodesicLength=1.2476159226668713 rxn_smarts="[C:1]([C:2](=[O:3])[C:4]1([H:10])[C:5]([H:11])([H:12])[C:6]1([H:13])[H:14])([H:7])([H:8])[H:9]>>[C:1]([H:7])([H:8])([H:9])[H:13].[C:2](#[O+:3])[C@@:4]1([H:10])[C:5]([H:11])([H:12])[C-:6]1[H:14]"
C       -1.78520892      -0.48350462       0.78228776
C       -0.56394387       0.95092895      -0.35872418
O       -0.56022790       2.03399928       0.10028698
C        0.41669482       0.07365359      -0.89778570
C        1.91416871       0.33310506      -0.76784296
C        1.28121577      -0.46654469       0.29606860
H       -2.66057793       0.08165776       0.43345950
H       -1.96101010      -1.41237932       0.23781268
H       -2.09001053      -0.56034693       1.82795253
H        0.05123317      -0.63672918      -1.63059697
H        2.14984408       1.38750743      -0.64318642
H        2.48824063      -0.18742900      -1.52629936
H        0.02690578      -1.25981348       0.94484125
H        1.29267630       0.14589514       1.20172629
