12
Frame=0 idx=007467 GeodesicLength=0.0 rxn_smarts="[N:1]([c:2]1[c:3]([H:10])[n:4]([H:11])[c:5](=[O:6])[n:7]1[H:12])([H:8])[H:9]>>[N+:1]([c:2]1[c:3]([H:10])[n:4]([H:11])[c:5]([O-:6])[n:7]1)([H:8])([H:9])[H:12]"
N        1.86584090      -0.44704380      -0.06417007
C        0.52388451       0.08661543      -0.03480044
C       -0.20982229       1.20692996      -0.10265520
N       -1.51001793       0.72063935       0.01821998
C       -1.54013256      -0.67821730       0.15421955
O       -2.54813268      -1.34751741       0.27355279
N       -0.21512653      -1.04714872       0.11707851
H        2.35943876      -0.35258073      -0.94427424
H        2.46109083      -0.19183329       0.71526051
H        0.03119900       2.24808386      -0.22043294
H       -2.35165646       1.26637986       0.01084572
H        1.13343441      -1.46430718       0.07715586
12
Frame=1 idx=007467 GeodesicLength=0.04464592061579986 rxn_smarts="[N:1]([c:2]1[c:3]([H:10])[n:4]([H:11])[c:5](=[O:6])[n:7]1[H:12])([H:8])[H:9]>>[N+:1]([c:2]1[c:3]([H:10])[n:4]([H:11])[c:5]([O-:6])[n:7]1)([H:8])([H:9])[H:12]"
N        1.86613662      -0.44630977      -0.06023748
C        0.52171864       0.08036591      -0.08142516
C       -0.20893261       1.20407032      -0.11210718
N       -1.50894210       0.72183405       0.02613344
C       -1.54002492      -0.67630123       0.16055627
O       -2.54735698      -1.34644378       0.28137379
N       -0.21835781      -1.05161354       0.08444813
H        2.37066015      -0.37723671      -0.93670814
H        2.44436187      -0.14709769       0.71617513
H        0.03879957       2.24740611      -0.19049726
H       -2.34992334       1.26846160       0.01754439
H        1.13186092      -1.47713527       0.09474407
12
Frame=2 idx=007467 GeodesicLength=0.08925166173036284 rxn_smarts="[N:1]([c:2]1[c:3]([H:10])[n:4]([H:11])[c:5](=[O:6])[n:7]1[H:12])([H:8])[H:9]>>[N+:1]([c:2]1[c:3]([H:10])[n:4]([H:11])[c:5]([O-:6])[n:7]1)([H:8])([H:9])[H:12]"
N        1.86561414      -0.44468811      -0.05713194
C        0.51986675       0.07488249      -0.12072088
C       -0.20714156       1.20148491      -0.11497116
N       -1.50780638       0.72232360       0.02849185
C       -1.53958203      -0.67487442       0.16423672
O       -2.54623996      -1.34566811       0.28779306
N       -0.22122751      -1.05533455       0.05868016
H        2.37712967      -0.40039320      -0.93138935
H        2.43083616      -0.10425879       0.71173185
H        0.04731149       2.24520922      -0.16045051
H       -2.34797562       1.27009190       0.02057553
H        1.12921486      -1.48877494       0.11315467
12
Frame=3 idx=007467 GeodesicLength=0.13381666316231433 rxn_smarts="[N:1]([c:2]1[c:3]([H:10])[n:4]([H:11])[c:5](=[O:6])[n:7]1[H:12])([H:8])[H:9]>>[N+:1]([c:2]1[c:3]([H:10])[n:4]([H:11])[c:5]([O-:6])[n:7]1)([H:8])([H:9])[H:12]"
N        1.86447908      -0.44222485      -0.05309940
C        0.51837970       0.07000452      -0.15550697
C       -0.20504196       1.19847400      -0.11839679
N       -1.50645481       0.72247574       0.02852965
C       -1.53905797      -0.67396550       0.16254279
O       -2.54445248      -1.34490889       0.29551011
N       -0.22392555      -1.05882852       0.03372540
H        2.38219469      -0.42156518      -0.92477080
H        2.41767982      -0.06336317       0.70622564
H        0.05607387       2.24143915      -0.13387456
H       -2.34535480       1.27208014       0.02811427
H        1.12548041      -1.49961744       0.13100067
12
Frame=4 idx=007467 GeodesicLength=0.17840220823633995 rxn_smarts="[N:1]([c:2]1[c:3]([H:10])[n:4]([H:11])[c:5](=[O:6])[n:7]1[H:12])([H:8])[H:9]>>[N+:1]([c:2]1[c:3]([H:10])[n:4]([H:11])[c:5]([O-:6])[n:7]1)([H:8])([H:9])[H:12]"
N        1.86318313      -0.43927289      -0.04925984
C        0.51723135       0.06575741      -0.18521389
C       -0.20267250       1.19544699      -0.12032757
N       -1.50521787       0.72237736       0.02639155
C       -1.53870493      -0.67327725       0.15875641
O       -2.54270424      -1.34455174       0.30067218
N       -0.22624127      -1.06180433       0.01315311
H        2.38463144      -0.44220915      -0.91915035
H        2.40700749      -0.02365871       0.69732683
H        0.06485131       2.23687071      -0.10803998
H       -2.34259953       1.27406322       0.03585200
H        1.12123563      -1.50974161       0.14983954
12
Frame=5 idx=007467 GeodesicLength=0.2231532601767801 rxn_smarts="[N:1]([c:2]1[c:3]([H:10])[n:4]([H:11])[c:5](=[O:6])[n:7]1[H:12])([H:8])[H:9]>>[N+:1]([c:2]1[c:3]([H:10])[n:4]([H:11])[c:5]([O-:6])[n:7]1)([H:8])([H:9])[H:12]"
N        1.86182988      -0.43595692      -0.04547077
C        0.51636842       0.06207244      -0.21105142
C       -0.20022168       1.19252776      -0.12104617
N       -1.50403592       0.72230540       0.02395102
C       -1.53844977      -0.67275384       0.15363451
O       -2.54094449      -1.34451468       0.30399162
N       -0.22821135      -1.06444369      -0.00451674
H        2.38526858      -0.46219155      -0.91404205
H        2.39818346       0.01469167       0.68597651
H        0.07349083       2.23180838      -0.08333964
H       -2.33986478       1.27595408       0.04294852
H        1.11658683      -1.51949905       0.16896462
12
Frame=6 idx=007467 GeodesicLength=0.2675840155310022 rxn_smarts="[N:1]([c:2]1[c:3]([H:10])[n:4]([H:11])[c:5](=[O:6])[n:7]1[H:12])([H:8])[H:9]>>[N+:1]([c:2]1[c:3]([H:10])[n:4]([H:11])[c:5]([O-:6])[n:7]1)([H:8])([H:9])[H:12]"
N        1.86039776      -0.43230051      -0.04155755
C        0.51578853       0.05886678      -0.23401869
C       -0.19766924       1.18960274      -0.12068343
N       -1.50288748       0.72215707       0.02102766
C       -1.53823036      -0.67225526       0.14749586
O       -2.53889675      -1.34443080       0.30796186
N       -0.22997159      -1.06676106      -0.02099393
H        2.38502100      -0.48086842      -0.90866071
H        2.39031029       0.05117455       0.67322552
H        0.08195185       2.22621021      -0.05938927
H       -2.33719286       1.27758482       0.04856072
H        1.11137885      -1.52898012       0.18703197
12
Frame=7 idx=007467 GeodesicLength=0.31209544377198106 rxn_smarts="[N:1]([c:2]1[c:3]([H:10])[n:4]([H:11])[c:5](=[O:6])[n:7]1[H:12])([H:8])[H:9]>>[N+:1]([c:2]1[c:3]([H:10])[n:4]([H:11])[c:5]([O-:6])[n:7]1)([H:8])([H:9])[H:12]"
N        1.85892691      -0.42835567      -0.03731141
C        0.51543962       0.05611337      -0.25504122
C       -0.19512943       1.18677228      -0.12025644
N       -1.50181681       0.72203029       0.01740605
C       -1.53810802      -0.67185818       0.13995570
O       -2.53651055      -1.34445459       0.31240032
N       -0.23152847      -1.06886622      -0.03682115
H        2.38427052      -0.49883413      -0.90270752
H        2.38311238       0.08635585       0.65954004
H        0.09013790       2.22031159      -0.03631282
H       -2.33449799       1.27919652       0.05461454
H        1.10570395      -1.53841110       0.20453392
12
Frame=8 idx=007467 GeodesicLength=0.3567144013365558 rxn_smarts="[N:1]([c:2]1[c:3]([H:10])[n:4]([H:11])[c:5](=[O:6])[n:7]1[H:12])([H:8])[H:9]>>[N+:1]([c:2]1[c:3]([H:10])[n:4]([H:11])[c:5]([O-:6])[n:7]1)([H:8])([H:9])[H:12]"
N        1.85736687      -0.42406067      -0.03256818
C        0.51535842       0.05369939      -0.27478478
C       -0.19263371       1.18390642      -0.12022292
N       -1.50083367       0.72184593       0.01254316
C       -1.53814012      -0.67155472       0.13023314
O       -2.53369300      -1.34450082       0.31740441
N       -0.23288715      -1.07078858      -0.05237286
H        2.38330144      -0.51638052      -0.89579418
H        2.37618153       0.12065501       0.64509211
H        0.09800378       2.21398709      -0.01435844
H       -2.33150055       1.28088893       0.06292672
H        1.09947616      -1.54769748       0.22190182
12
Frame=9 idx=007467 GeodesicLength=0.40131606812707504 rxn_smarts="[N:1]([c:2]1[c:3]([H:10])[n:4]([H:11])[c:5](=[O:6])[n:7]1[H:12])([H:8])[H:9]>>[N+:1]([c:2]1[c:3]([H:10])[n:4]([H:11])[c:5]([O-:6])[n:7]1)([H:8])([H:9])[H:12]"
N        1.85587204      -0.41946963      -0.02798112
C        0.51539107       0.05163270      -0.29269741
C       -0.19014702       1.18114417      -0.11935529
N       -1.49982065       0.72175948       0.00880747
C       -1.53812286      -0.67118243       0.12139472
O       -2.53102313      -1.34479423       0.32008487
N       -0.23401627      -1.07244527      -0.06611195
H        2.38140557      -0.53374298      -0.88909452
H        2.37049866       0.15409922       0.62866839
H        0.10564071       2.20748591       0.00713114
H       -2.32865305       1.28230585       0.06968921
H        1.09297492      -1.55679279       0.23946451
12
Frame=10 idx=007467 GeodesicLength=0.4459437928455043 rxn_smarts="[N:1]([c:2]1[c:3]([H:10])[n:4]([H:11])[c:5](=[O:6])[n:7]1[H:12])([H:8])[H:9]>>[N+:1]([c:2]1[c:3]([H:10])[n:4]([H:11])[c:5]([O-:6])[n:7]1)([H:8])([H:9])[H:12]"
N        1.85438191      -0.41454163      -0.02331999
C        0.51555710       0.04984437      -0.30944436
C       -0.18768635       1.17843515      -0.11830420
N       -1.49880765       0.72170895       0.00534119
C       -1.53808025      -0.67078243       0.11260220
O       -2.52835174      -1.34523997       0.32154127
N       -0.23492297      -1.07391240      -0.07886623
H        2.37901942      -0.55098037      -0.88203659
H        2.36551236       0.18685385       0.61073474
H        0.11305778       2.20073206       0.02822656
H       -2.32582411       1.28360678       0.07634489
H        1.08614451      -1.56572436       0.25718052
12
Frame=11 idx=007467 GeodesicLength=0.4906010074698039 rxn_smarts="[N:1]([c:2]1[c:3]([H:10])[n:4]([H:11])[c:5](=[O:6])[n:7]1[H:12])([H:8])[H:9]>>[N+:1]([c:2]1[c:3]([H:10])[n:4]([H:11])[c:5]([O-:6])[n:7]1)([H:8])([H:9])[H:12]"
N        1.85290483      -0.40924965      -0.01855374
C        0.51588719       0.04833446      -0.32526533
C       -0.18527316       1.17578949      -0.11735188
N       -1.49781779       0.72166873       0.00160097
C       -1.53802726      -0.67037666       0.10331248
O       -2.52555547      -1.34581363       0.32203959
N       -0.23560664      -1.07516230      -0.09074394
H        2.37619284      -0.56823078      -0.87447370
H        2.36100197       0.21893997       0.59136349
H        0.12019785       2.19370871       0.04902880
H       -2.32287831       1.28480326       0.08374036
H        1.07897396      -1.57441160       0.27530291
12
Frame=12 idx=007467 GeodesicLength=0.5352676674687363 rxn_smarts="[N:1]([c:2]1[c:3]([H:10])[n:4]([H:11])[c:5](=[O:6])[n:7]1[H:12])([H:8])[H:9]>>[N+:1]([c:2]1[c:3]([H:10])[n:4]([H:11])[c:5]([O-:6])[n:7]1)([H:8])([H:9])[H:12]"
N        1.85151990      -0.40357799      -0.01382986
C        0.51629198       0.04702619      -0.34006878
C       -0.18289089       1.17319397      -0.11611356
N       -1.49680984       0.72166271      -0.00146905
C       -1.53787146      -0.66990902       0.09486866
O       -2.52310454      -1.34664356       0.32008783
N       -0.23606764      -1.07624799      -0.10131581
H        2.37284767      -0.58549628      -0.86665669
H        2.35733457       0.25045402       0.57020646
H        0.12712753       2.18653377       0.06919845
H       -2.31995459       1.28585945       0.09117080
H        1.07157731      -1.58285525       0.29392154
12
Frame=13 idx=007467 GeodesicLength=0.5799163937096506 rxn_smarts="[N:1]([c:2]1[c:3]([H:10])[n:4]([H:11])[c:5](=[O:6])[n:7]1[H:12])([H:8])[H:9]>>[N+:1]([c:2]1[c:3]([H:10])[n:4]([H:11])[c:5]([O-:6])[n:7]1)([H:8])([H:9])[H:12]"
N        1.85022508      -0.39753282      -0.00912723
C        0.51677083       0.04591041      -0.35394588
C       -0.18053806       1.17065874      -0.11458517
N       -1.49578440       0.72168984      -0.00394386
C       -1.53759818      -0.66938834       0.08715723
O       -2.52094508      -1.34769609       0.31616547
N       -0.23631342      -1.07718386      -0.11076801
H        2.36909743      -0.60260509      -0.85848501
H        2.35431933       0.28123670       0.54748451
H        0.13385479       2.17927815       0.08871695
H       -2.31707561       1.28679634       0.09855060
H        1.06398728      -1.59116399       0.31278038
12
Frame=14 idx=007467 GeodesicLength=0.6246037371782576 rxn_smarts="[N:1]([c:2]1[c:3]([H:10])[n:4]([H:11])[c:5](=[O:6])[n:7]1[H:12])([H:8])[H:9]>>[N+:1]([c:2]1[c:3]([H:10])[n:4]([H:11])[c:5]([O-:6])[n:7]1)([H:8])([H:9])[H:12]"
N        1.84900056      -0.39105292      -0.00436837
C        0.51733270       0.04494991      -0.36713964
C       -0.17822104       1.16815866      -0.11309215
N       -1.49474072       0.72172395      -0.00614772
C       -1.53722808      -0.66884160       0.07976437
O       -2.51907940      -1.34894734       0.31010212
N       -0.23633678      -1.07799267      -0.11922203
H        2.36499912      -0.61971592      -0.84974410
H        2.35177025       0.31143446       0.52322354
H        0.14036565       2.17192755       0.10735462
H       -2.31402293       1.28758469       0.10705515
H        1.05616068      -1.59922875       0.33221421
12
Frame=15 idx=007467 GeodesicLength=0.6693039213540672 rxn_smarts="[N:1]([c:2]1[c:3]([H:10])[n:4]([H:11])[c:5](=[O:6])[n:7]1[H:12])([H:8])[H:9]>>[N+:1]([c:2]1[c:3]([H:10])[n:4]([H:11])[c:5]([O-:6])[n:7]1)([H:8])([H:9])[H:12]"
N        1.84783459      -0.38419524       0.00038698
C        0.51795906       0.04422608      -0.37960765
C       -0.17591067       1.16572607      -0.11116572
N       -1.49366001       0.72177994      -0.00782856
C       -1.53675043      -0.66825684       0.07275845
O       -2.51723759      -1.35028586       0.30342609
N       -0.23618990      -1.07864816      -0.12705981
H        2.36063833      -0.63639534      -0.84054575
H        2.34962754       0.34066939       0.49780073
H        0.14671608       2.16451749       0.12572679
H       -2.31111390       1.28822259       0.11472462
H        1.04808691      -1.60736012       0.35138385
12
Frame=16 idx=007467 GeodesicLength=0.7140020004517811 rxn_smarts="[N:1]([c:2]1[c:3]([H:10])[n:4]([H:11])[c:5](=[O:6])[n:7]1[H:12])([H:8])[H:9]>>[N+:1]([c:2]1[c:3]([H:10])[n:4]([H:11])[c:5]([O-:6])[n:7]1)([H:8])([H:9])[H:12]"
N        1.84674497      -0.37692071       0.00515951
C        0.51866292       0.04368437      -0.39153985
C       -0.17362768       1.16335844      -0.10913580
N       -1.49257747       0.72185339      -0.00928884
C       -1.53618925      -0.66764582       0.06594621
O       -2.51547989      -1.35172759       0.29586304
N       -0.23585426      -1.07917600      -0.13429286
H        2.35610468      -0.65278060      -0.83074226
H        2.34777348       0.36903523       0.47120420
H        0.15288678       2.15704425       0.14370959
H       -2.30821545       1.28873207       0.12252352
H        1.03977117      -1.61545704       0.37059353
