17
Frame=0 idx=011555 GeodesicLength=0.0 rxn_smarts="[C:1]([O:2][C:3]([C@@:4]1([H:13])[C:5]([H:14])([H:15])[C@:6]1([O:7][H:17])[H:16])([H:11])[H:12])([H:8])([H:9])[H:10]>>[C:1]([O:2][C:3]([C:4]1=[C:6]([O:7][H:17])[C:5]1([H:14])[H:15])([H:11])[H:12])([H:8])([H:9])[H:10].[H:13][H:16]"
C        2.43232479      -0.34259402       0.80060844
O        1.05697577      -0.14721846       0.60300465
C        0.64944306      -0.37844016      -0.77102174
C       -0.79451895      -0.18275266      -0.97318236
C       -1.95466270      -0.72287152      -0.22157333
C       -1.52196617       0.70339954      -0.11300090
O       -1.17569935       1.38693043       1.01636559
H        2.72000423      -1.37744895       0.57619178
H        2.65534797      -0.13439676       1.84676809
H        3.03093210       0.32663681       0.16833296
H        1.23523776       0.30641633      -1.39911382
H        0.93204456      -1.40112208      -1.04846309
H       -1.80155731       1.48496037      -1.06676610
H       -2.85506412      -1.02545668      -0.75684783
H       -1.85637135      -1.19249989       0.75969307
H       -2.52731170       1.48205706      -0.54584636
H       -0.22515854       1.21440069       1.12485091
17
Frame=1 idx=011555 GeodesicLength=0.12219916180968672 rxn_smarts="[C:1]([O:2][C:3]([C@@:4]1([H:13])[C:5]([H:14])([H:15])[C@:6]1([O:7][H:17])[H:16])([H:11])[H:12])([H:8])([H:9])[H:10]>>[C:1]([O:2][C:3]([C:4]1=[C:6]([O:7][H:17])[C:5]1([H:14])[H:15])([H:11])[H:12])([H:8])([H:9])[H:10].[H:13][H:16]"
C        2.43976861      -0.33635735       0.79137611
O        1.06303470      -0.14171417       0.60222748
C        0.64566168      -0.38179947      -0.76426199
C       -0.79884386      -0.17649796      -0.95634564
C       -1.96319385      -0.72933928      -0.21711590
C       -1.53408838       0.69553553      -0.09206375
O       -1.20371105       1.37353047       1.04486146
H        2.72570750      -1.37262868       0.57137237
H        2.66977097      -0.12116982       1.83455424
H        3.03389539       0.32896864       0.15088030
H        1.22887691       0.29334014      -1.40539753
H        0.92156585      -1.40803705      -1.03610381
H       -1.75332539       1.49491667      -1.08951113
H       -2.85956124      -1.02646834      -0.76165892
H       -1.85950427      -1.22111911       0.75235551
H       -2.50452290       1.51441811      -0.58105487
H       -0.25153066       1.21442167       1.15588605
17
Frame=2 idx=011555 GeodesicLength=0.24440671377517378 rxn_smarts="[C:1]([O:2][C:3]([C@@:4]1([H:13])[C:5]([H:14])([H:15])[C@:6]1([O:7][H:17])[H:16])([H:11])[H:12])([H:8])([H:9])[H:10]>>[C:1]([O:2][C:3]([C:4]1=[C:6]([O:7][H:17])[C:5]1([H:14])[H:15])([H:11])[H:12])([H:8])([H:9])[H:10].[H:13][H:16]"
C        2.44689608      -0.32962750       0.78187533
O        1.06883998      -0.13567205       0.60115613
C        0.64162903      -0.38537923      -0.75751142
C       -0.80330422      -0.17023665      -0.93938895
C       -1.97177775      -0.73600802      -0.21296554
C       -1.54689650       0.68756026      -0.07160772
O       -1.23260115       1.35947031       1.07302028
H        2.73103241      -1.36744062       0.56693527
H        2.68393294      -0.10683746       1.82182301
H        3.03649614       0.33129608       0.13276981
H        1.22211060       0.27946216      -1.41199989
H        0.91079505      -1.41526971      -1.02305254
H       -1.70312901       1.50459784      -1.11081570
H       -2.86390492      -1.02765024      -0.76689913
H       -1.86273958      -1.24967240       0.74417300
H       -2.47846956       1.54699349      -0.61422276
H       -0.27890954       1.21441375       1.18671081
17
Frame=3 idx=011555 GeodesicLength=0.36662791886927215 rxn_smarts="[C:1]([O:2][C:3]([C@@:4]1([H:13])[C:5]([H:14])([H:15])[C@:6]1([O:7][H:17])[H:16])([H:11])[H:12])([H:8])([H:9])[H:10]>>[C:1]([O:2][C:3]([C:4]1=[C:6]([O:7][H:17])[C:5]1([H:14])[H:15])([H:11])[H:12])([H:8])([H:9])[H:10].[H:13][H:16]"
C        2.45370902      -0.32242452       0.77209463
O        1.07439629      -0.12908134       0.59977878
C        0.63734091      -0.38916461      -0.75076235
C       -0.80789887      -0.16391720      -0.92231718
C       -1.98038047      -0.74287992      -0.20913257
C       -1.56038082       0.67946372      -0.05159860
O       -1.26235839       1.34482579       1.10079391
H        2.73596856      -1.36190254       0.56288604
H        2.69784106      -0.09141537       1.80854567
H        3.03874048       0.33356786       0.11398982
H        1.21493397       0.26476419      -1.41889750
H        0.89973162      -1.42279222      -1.00929578
H       -1.65104098       1.51391314      -1.13080388
H       -2.86804072      -1.02904230      -0.77258255
H       -1.86604226      -1.27812347       0.73515672
H       -2.44919916       1.57978681      -0.64517742
H       -0.30732024       1.21442198       1.21732226
17
Frame=4 idx=011555 GeodesicLength=0.48886868308382914 rxn_smarts="[C:1]([O:2][C:3]([C@@:4]1([H:13])[C:5]([H:14])([H:15])[C@:6]1([O:7][H:17])[H:16])([H:11])[H:12])([H:8])([H:9])[H:10]>>[C:1]([O:2][C:3]([C:4]1=[C:6]([O:7][H:17])[C:5]1([H:14])[H:15])([H:11])[H:12])([H:8])([H:9])[H:10].[H:13][H:16]"
C        2.46020894      -0.31477591       0.76202519
O        1.07970697      -0.12193783       0.59808735
C        0.63279277      -0.39313329      -0.74400654
C       -0.81262781      -0.15748055      -0.90513231
C       -1.98896563      -0.74996189      -0.20562692
C       -1.57454331       0.67123584      -0.03199664
O       -1.29297505       1.32966852       1.12814858
H        2.74050684      -1.35603887       0.55922530
H        2.71150270      -0.07493543       1.79469776
H        3.04063388       0.33573173       0.09453611
H        1.20734087       0.24924506      -1.42605939
H        0.88837825      -1.43056726      -0.99483060
H       -1.59714403       1.52275099      -1.14963146
H       -2.87191368      -1.03068797      -0.77872173
H       -1.86937261      -1.30644065       0.72532451
H       -2.41674811       1.61280214      -0.67373599
H       -0.33678100       1.21452538       1.24769675
17
Frame=5 idx=011555 GeodesicLength=0.6111485703924416 rxn_smarts="[C:1]([O:2][C:3]([C@@:4]1([H:13])[C:5]([H:14])([H:15])[C@:6]1([O:7][H:17])[H:16])([H:11])[H:12])([H:8])([H:9])[H:10]>>[C:1]([O:2][C:3]([C:4]1=[C:6]([O:7][H:17])[C:5]1([H:14])[H:15])([H:11])[H:12])([H:8])([H:9])[H:10].[H:13][H:16]"
C        2.46636922      -0.30675426       0.75166798
O        1.08475568      -0.11426840       0.59607933
C        0.62798503      -0.39722091      -0.73724153
C       -0.81748741      -0.15085182      -0.88782021
C       -1.99746236      -0.75725418      -0.20240194
C       -1.58938397       0.66287549      -0.01276383
O       -1.32442057       1.31412596       1.15500613
H        2.74461831      -1.34989048       0.55588450
H        2.72487204      -0.05756951       1.78028428
H        3.04216233       0.33774207       0.07447780
H        1.19932423       0.23299836      -1.43341174
H        0.87676038      -1.43848611      -0.97972311
H       -1.54157324       1.53095611      -1.16754633
H       -2.87543227      -1.03266289      -0.78524407
H       -1.87261310      -1.33456669       0.71475134
H       -2.38117832       1.64598812      -0.69975754
H       -0.36729598       1.21483914       1.27775895
17
Frame=6 idx=011555 GeodesicLength=0.73344570781358 rxn_smarts="[C:1]([O:2][C:3]([C@@:4]1([H:13])[C:5]([H:14])([H:15])[C@:6]1([O:7][H:17])[H:16])([H:11])[H:12])([H:8])([H:9])[H:10]>>[C:1]([O:2][C:3]([C:4]1=[C:6]([O:7][H:17])[C:5]1([H:14])[H:15])([H:11])[H:12])([H:8])([H:9])[H:10].[H:13][H:16]"
C        2.47220012      -0.29838136       0.74101631
O        1.08954873      -0.10608534       0.59375583
C        0.62290390      -0.40140517      -0.73044933
C       -0.82248496      -0.14396041      -0.87037186
C       -2.00584456      -0.76476468      -0.19948725
C       -1.60492159       0.65436313       0.00615425
O       -1.35669156       1.29822539       1.18138112
H        2.74830730      -1.34347450       0.55286913
H        2.73797627      -0.03933206       1.76527772
H        3.04332802       0.33955660       0.05380961
H        1.19086992       0.21602372      -1.44091075
H        0.86486589      -1.44651210      -0.96396770
H       -1.48442176       1.53837188      -1.18476994
H       -2.87856005      -1.03498824      -0.79218867
H       -1.87573295      -1.36248756       0.70343212
H       -2.34247093       1.67936175      -0.72301424
H       -0.39887179       1.21548895       1.30746364
17
Frame=7 idx=011555 GeodesicLength=0.8557560952776342 rxn_smarts="[C:1]([O:2][C:3]([C@@:4]1([H:13])[C:5]([H:14])([H:15])[C@:6]1([O:7][H:17])[H:16])([H:11])[H:12])([H:8])([H:9])[H:10]>>[C:1]([O:2][C:3]([C:4]1=[C:6]([O:7][H:17])[C:5]1([H:14])[H:15])([H:11])[H:12])([H:8])([H:9])[H:10].[H:13][H:16]"
C        2.47769064      -0.28971548       0.73007078
O        1.09407852      -0.09742173       0.59112546
C        0.61754098      -0.40562776      -0.72361627
C       -0.82762318      -0.13671984      -0.85276007
C       -2.01405704      -0.77249261      -0.19686503
C       -1.62117303       0.64568817       0.02481512
O       -1.38977285       1.28203636       1.20726338
H        2.75156159      -1.33682440       0.55012887
H        2.75080213      -0.02034859       1.74967542
H        3.04411974       0.34113668       0.03257979
H        1.18196370       0.19840044      -1.44848333
H        0.85270308      -1.45455160      -0.94761525
H       -1.42584569       1.54479771      -1.20162990
H       -2.88122592      -1.03770482      -0.79952896
H       -1.87863818      -1.39017438       0.69140510
H       -2.30060748       1.71289903      -0.74330841
H       -0.43151703       1.21662283       1.33674331
17
Frame=8 idx=011555 GeodesicLength=0.9780809405750766 rxn_smarts="[C:1]([O:2][C:3]([C@@:4]1([H:13])[C:5]([H:14])([H:15])[C@:6]1([O:7][H:17])[H:16])([H:11])[H:12])([H:8])([H:9])[H:10]>>[C:1]([O:2][C:3]([C:4]1=[C:6]([O:7][H:17])[C:5]1([H:14])[H:15])([H:11])[H:12])([H:8])([H:9])[H:10].[H:13][H:16]"
C        2.48283557      -0.28081792       0.71883727
O        1.09834174      -0.08831257       0.58820504
C        0.61188515      -0.40982205      -0.71672722
C       -0.83290833      -0.12903882      -0.83495077
C       -2.02204638      -0.78044064      -0.19452300
C       -1.63816445       0.63683723       0.04328529
O       -1.42365403       1.26560951       1.23267217
H        2.75437378      -1.32997953       0.54760769
H        2.76334870      -0.00075645       1.73348561
H        3.04452937       0.34245016       0.01084472
H        1.17258639       0.18022795      -1.45605277
H        0.84027903      -1.46250548      -0.93072920
H       -1.36603853       1.54999255      -1.21853336
H       -2.88336492      -1.04084951      -0.80724801
H       -1.88123619      -1.41760419       0.67870700
H       -2.25552426       1.74658540      -0.76040898
H       -0.46524265       1.21842438       1.36552853
17
Frame=9 idx=011555 GeodesicLength=1.1004607161115119 rxn_smarts="[C:1]([O:2][C:3]([C@@:4]1([H:13])[C:5]([H:14])([H:15])[C@:6]1([O:7][H:17])[H:16])([H:11])[H:12])([H:8])([H:9])[H:10]>>[C:1]([O:2][C:3]([C:4]1=[C:6]([O:7][H:17])[C:5]1([H:14])[H:15])([H:11])[H:12])([H:8])([H:9])[H:10].[H:13][H:16]"
C        2.48761952      -0.27177582       0.70733115
O        1.10232757      -0.07881436       0.58502206
C        0.60592832      -0.41389208      -0.70976605
C       -0.83834579      -0.12081038      -0.81688864
C       -2.02974230      -0.78860227      -0.19241362
C       -1.65592072       0.62779687       0.06163960
O       -1.45831428       1.24900741       1.25761615
H        2.75673304      -1.32298767       0.54519581
H        2.77559135       0.01921310       1.71674463
H        3.04454240       0.34348559      -0.01128543
H        1.16272283       0.16167272      -1.46351338
H        0.82761181      -1.47023060      -0.91341941
H       -1.30525623       1.55367834      -1.23601658
H       -2.88489485      -1.04446533      -0.81527695
H       -1.88339595      -1.44473689       0.66540077
H       -2.20714403       1.78036806      -0.77408945
H       -0.50006269       1.22109331       1.39371934
17
Frame=10 idx=011555 GeodesicLength=1.222868605182362 rxn_smarts="[C:1]([O:2][C:3]([C@@:4]1([H:13])[C:5]([H:14])([H:15])[C@:6]1([O:7][H:17])[H:16])([H:11])[H:12])([H:8])([H:9])[H:10]>>[C:1]([O:2][C:3]([C:4]1=[C:6]([O:7][H:17])[C:5]1([H:14])[H:15])([H:11])[H:12])([H:8])([H:9])[H:10].[H:13][H:16]"
C        2.49205354      -0.26260660       0.69554875
O        1.10604748      -0.06892142       0.58159560
C        0.59964707      -0.41778005      -0.70270367
C       -0.84394705      -0.11193275      -0.79851462
C       -2.03711583      -0.79697015      -0.19056858
C       -1.67448054       0.61853896       0.07997689
O       -1.49377360       1.23218414       1.28221310
H        2.75863271      -1.31586466       0.54288246
H        2.78756814       0.03952929       1.69943692
H        3.04415984       0.34421504      -0.03381382
H        1.15234067       0.14279123      -1.47081635
H        0.81468370      -1.47765742      -0.89570029
H       -1.24376832       1.55551270      -1.25465301
H       -2.88577495      -1.04852194      -0.82367346
H       -1.88507786      -1.47158282       0.65146013
H       -2.15515716       1.81428642      -0.78400022
H       -0.53603783       1.22478003       1.42133017
17
Frame=11 idx=011555 GeodesicLength=1.3453175913275814 rxn_smarts="[C:1]([O:2][C:3]([C@@:4]1([H:13])[C:5]([H:14])([H:15])[C@:6]1([O:7][H:17])[H:16])([H:11])[H:12])([H:8])([H:9])[H:10]>>[C:1]([O:2][C:3]([C:4]1=[C:6]([O:7][H:17])[C:5]1([H:14])[H:15])([H:11])[H:12])([H:8])([H:9])[H:10].[H:13][H:16]"
C        2.49613847      -0.25332900       0.68348672
O        1.10950702      -0.05861937       0.57794578
C        0.59301697      -0.42140684      -0.69550509
C       -0.84972334      -0.10228802      -0.77974167
C       -2.04413129      -0.80551661      -0.18899445
C       -1.69388006       0.60903568       0.09840661
O       -1.53005250       1.21508789       1.30657847
H        2.76005869      -1.30861439       0.54062256
H        2.79929729       0.06011765       1.68155543
H        3.04337502       0.34463193      -0.05671701
H        1.14140373       0.12367309      -1.47789671
H        0.80148077      -1.48468585      -0.87759725
H       -1.18193796       1.55510008      -1.27517599
H       -2.88595219      -1.05296821      -0.83246075
H       -1.88622619      -1.49813496       0.63686093
H       -2.09911410       1.84833951      -0.78976252
H       -0.57326032       1.22957742       1.44839494
17
Frame=12 idx=011555 GeodesicLength=1.467831903048519 rxn_smarts="[C:1]([O:2][C:3]([C@@:4]1([H:13])[C:5]([H:14])([H:15])[C@:6]1([O:7][H:17])[H:16])([H:11])[H:12])([H:8])([H:9])[H:10]>>[C:1]([O:2][C:3]([C:4]1=[C:6]([O:7][H:17])[C:5]1([H:14])[H:15])([H:11])[H:12])([H:8])([H:9])[H:10].[H:13][H:16]"
C        2.49989344      -0.24387173       0.67110966
O        1.11272895      -0.04780282       0.57406882
C        0.58599700      -0.42473046      -0.68811018
C       -0.85569118      -0.09175726      -0.76046630
C       -2.05080043      -0.81419007      -0.18777087
C       -1.71416345       0.59925152       0.11705393
O       -1.56721640       1.19756341       1.33090231
H        2.76099593      -1.30117501       0.53846579
H        2.81084702       0.08111995       1.66301321
H        3.04219019       0.34471926      -0.08009221
H        1.12985596       0.10427157      -1.48473674
H        0.78795242      -1.49127958      -0.85899904
H       -1.12016521       1.55196301      -1.29838386
H       -2.88541517      -1.05765188      -0.84177434
H       -1.88689555      -1.52441010       0.62147752
H       -2.03822504       1.88256974      -0.79085870
H       -0.61188850       1.23541046       1.47510100
17
Frame=13 idx=011555 GeodesicLength=1.5904522960412197 rxn_smarts="[C:1]([O:2][C:3]([C@@:4]1([H:13])[C:5]([H:14])([H:15])[C@:6]1([O:7][H:17])[H:16])([H:11])[H:12])([H:8])([H:9])[H:10]>>[C:1]([O:2][C:3]([C:4]1=[C:6]([O:7][H:17])[C:5]1([H:14])[H:15])([H:11])[H:12])([H:8])([H:9])[H:10].[H:13][H:16]"
C        2.50333234      -0.23409892       0.65835901
O        1.11573316      -0.03629706       0.56993543
C        0.57853175      -0.42771900      -0.68044641
C       -0.86187372      -0.08022129      -0.74057123
C       -2.05716330      -0.82290461      -0.18700534
C       -1.73537985       0.58915856       0.13603969
O       -1.60536910       1.17942000       1.35538857
H        2.76142438      -1.29342183       0.53649448
H        2.82228768       0.10278790       1.64367551
H        3.04059294       0.34447993      -0.10409033
H        1.11761350       0.08447530      -1.49133694
H        0.77403320      -1.49741910      -0.83971565
H       -1.05896486       1.54552890      -1.32517590
H       -2.88417703      -1.06234528      -0.85178752
H       -1.88719667      -1.55040939       0.60513321
H       -1.97127747       1.91696106      -0.78665626
H       -0.65214695       1.24202483       1.50175967
17
Frame=14 idx=011555 GeodesicLength=1.713241881663862 rxn_smarts="[C:1]([O:2][C:3]([C@@:4]1([H:13])[C:5]([H:14])([H:15])[C@:6]1([O:7][H:17])[H:16])([H:11])[H:12])([H:8])([H:9])[H:10]>>[C:1]([O:2][C:3]([C:4]1=[C:6]([O:7][H:17])[C:5]1([H:14])[H:15])([H:11])[H:12])([H:8])([H:9])[H:10].[H:13][H:16]"
C        2.50646164      -0.22377856       0.64513767
O        1.11853274      -0.02383320       0.56547127
C        0.57054604      -0.43036410      -0.67242863
C       -0.86830532      -0.06756835      -0.71994296
C       -2.06330401      -0.83152714      -0.18685349
C       -1.75758495       0.57875042       0.15545276
O       -1.64468070       1.16045407       1.38022202
H        2.76131746      -1.28513807       0.53485638
H        2.83369438       0.12556033       1.62332219
H        3.03855105       0.34393008      -0.12895573
H        1.10455627       0.06406490      -1.49772737
H        0.75963695      -1.50311729      -0.81943808
H       -0.99896173       1.53515142      -1.35642268
H       -2.88229292      -1.06672584      -0.86273187
H       -1.88732968      -1.57610156       0.58758662
H       -1.89650276       1.95134820      -0.77640659
H       -0.69433447       1.24889469       1.52885850
17
Frame=15 idx=011555 GeodesicLength=1.8363084462899417 rxn_smarts="[C:1]([O:2][C:3]([C@@:4]1([H:13])[C:5]([H:14])([H:15])[C@:6]1([O:7][H:17])[H:16])([H:11])[H:12])([H:8])([H:9])[H:10]>>[C:1]([O:2][C:3]([C:4]1=[C:6]([O:7][H:17])[C:5]1([H:14])[H:15])([H:11])[H:12])([H:8])([H:9])[H:10].[H:13][H:16]"
C        2.50925325      -0.21260576       0.63131180
O        1.12110710      -0.01009561       0.56055222
C        0.56194637      -0.43267178      -0.66398263
C       -0.87503223      -0.05370662      -0.69850996
C       -2.06933025      -0.83987208      -0.18748208
C       -1.78083237       0.56806901       0.17529511
O       -1.68539743       1.14057680       1.40545798
H        2.76064517      -1.27601521       0.53370395
H        2.84509528       0.14997951       1.60166985
H        3.03597788       0.34313320      -0.15497583
H        1.09052751       0.04276645      -1.50395161
H        0.74467331      -1.50839257      -0.79780203
H       -0.94085539       1.52021728      -1.39271587
H       -2.87984317      -1.07042581      -0.87483125
H       -1.88753347      -1.60137084       0.56860505
H       -1.81160206       1.98519369      -0.75935803
H       -0.73879950       1.25522034       1.55701331
17
Frame=16 idx=011555 GeodesicLength=1.959842040919738 rxn_smarts="[C:1]([O:2][C:3]([C@@:4]1([H:13])[C:5]([H:14])([H:15])[C@:6]1([O:7][H:17])[H:16])([H:11])[H:12])([H:8])([H:9])[H:10]>>[C:1]([O:2][C:3]([C:4]1=[C:6]([O:7][H:17])[C:5]1([H:14])[H:15])([H:11])[H:12])([H:8])([H:9])[H:10].[H:13][H:16]"
C        2.51165055      -0.20027765       0.61672354
O        1.12339599       0.00516627       0.55501842
C        0.55264181      -0.43467046      -0.65507664
C       -0.88210546      -0.03858101      -0.67631319
C       -2.07533882      -0.84771914      -0.18903569
C       -1.80515299       0.55722771       0.19541553
O       -1.72783245       1.12001546       1.43086696
H        2.75941047      -1.26571574       0.53312835
H        2.85645969       0.17655971       1.57840949
H        3.03273596       0.34219746      -0.18241553
H        1.07537355       0.02031022      -1.51004376
H        0.72907660      -1.51326749      -0.77449323
H       -0.88518934       1.50049367      -1.43378086
H       -2.87691344      -1.07312454      -0.88823353
H       -1.88802131      -1.62597425       0.54806244
H       -1.71432654       2.01726101      -0.73502996
H       -0.78586429       1.26009877       1.58679765
