14
Frame=0 idx=005507 GeodesicLength=0.0 rxn_smarts="[C:1]([C:2]1([O:3][H:10])[C:4]([H:11])([H:12])[O:5][C:6]1([H:13])[H:14])([H:7])([H:8])[H:9]>>[C:1]([C:2](=[O:3])[C:4]([O:5][C:6]([H:10])([H:13])[H:14])([H:11])[H:12])([H:7])([H:8])[H:9]"
C        1.55498514       0.09265881      -0.19508249
C        0.25897658      -0.43151879       0.35315427
O        0.26639500      -0.93461947       1.57744377
C       -0.76251519      -0.91160083      -0.69275115
O       -1.41979112       0.33138979      -0.88506663
C       -1.00505446       1.00703181       0.28532814
H        1.42630616       0.63983948      -1.12878742
H        2.17198911      -0.79090011      -0.38464924
H        2.06210688       0.70514573       0.54762849
H       -0.43470198       0.14066011       1.31429190
H       -1.42667020      -1.66389933      -0.25678279
H       -0.33134401      -1.28370103      -1.62551904
H       -1.82641937       1.13147421       1.00942830
H       -0.53426248       1.96803959       0.08136385
14
Frame=1 idx=005507 GeodesicLength=0.08663141667820057 rxn_smarts="[C:1]([C:2]1([O:3][H:10])[C:4]([H:11])([H:12])[O:5][C:6]1([H:13])[H:14])([H:7])([H:8])[H:9]>>[C:1]([C:2](=[O:3])[C:4]([O:5][C:6]([H:10])([H:13])[H:14])([H:11])[H:12])([H:7])([H:8])[H:9]"
C        1.56194220       0.08926118      -0.19652563
C        0.26601380      -0.43417169       0.35191110
O        0.27344010      -0.93425223       1.57599794
C       -0.76065754      -0.91209571      -0.68889901
O       -1.40627913       0.33474101      -0.89458345
C       -1.00981370       1.00823910       0.28422525
H        1.42963233       0.65912942      -1.11604782
H        2.17056558      -0.79327682      -0.41461235
H        2.08182444       0.68276114       0.55282349
H       -0.44308035       0.15121103       1.33357416
H       -1.43298029      -1.65366034      -0.24667301
H       -0.33277155      -1.29760194      -1.61757404
H       -1.84600038       1.12330389       0.99227374
H       -0.55183552       1.97641197       0.08410965
14
Frame=2 idx=005507 GeodesicLength=0.17313779921353878 rxn_smarts="[C:1]([C:2]1([O:3][H:10])[C:4]([H:11])([H:12])[O:5][C:6]1([H:13])[H:14])([H:7])([H:8])[H:9]>>[C:1]([C:2](=[O:3])[C:4]([O:5][C:6]([H:10])([H:13])[H:14])([H:11])[H:12])([H:7])([H:8])[H:9]"
C        1.56905073       0.08573073      -0.19805452
C        0.27325287      -0.43710433       0.35049567
O        0.28031651      -0.93333326       1.57472590
C       -0.75877861      -0.91258564      -0.68508281
O       -1.39267957       0.33795098      -0.90374078
C       -1.01451064       1.00932437       0.28316946
H        1.43326657       0.67841245      -1.10253015
H        2.16887611      -0.79497717      -0.44495448
H        2.10173047       0.65962773       0.55762070
H       -0.45209046       0.16196514       1.35335147
H       -1.43900255      -1.64340997      -0.23667724
H       -0.33445688      -1.31125319      -1.60967703
H       -1.86514654       1.11507344       0.97483761
H       -0.56982800       1.98457871       0.08651620
14
Frame=3 idx=005507 GeodesicLength=0.25955801633077014 rxn_smarts="[C:1]([C:2]1([O:3][H:10])[C:4]([H:11])([H:12])[O:5][C:6]1([H:13])[H:14])([H:7])([H:8])[H:9]>>[C:1]([C:2](=[O:3])[C:4]([O:5][C:6]([H:10])([H:13])[H:14])([H:11])[H:12])([H:7])([H:8])[H:9]"
C        1.57631823       0.08206616      -0.19968254
C        0.28071096      -0.44034292       0.34889108
O        0.28701846      -0.93181129       1.57363680
C       -0.75687469      -0.91307636      -0.68130557
O       -1.37898681       0.34102542      -0.91253604
C       -1.01913064       1.01028204       0.28217289
H        1.43721371       0.69767316      -1.08820886
H        2.16692413      -0.79597071      -0.47569014
H        2.12181677       0.63573365       0.56198787
H       -0.46180905       0.17292912       1.37365302
H       -1.44473247      -1.63315849      -0.22678942
H       -0.33639903      -1.32465994      -1.60184009
H       -1.88384375       1.10679031       0.95712381
H       -0.58822582       1.99251985       0.08858718
14
Frame=4 idx=005507 GeodesicLength=0.34593193420736185 rxn_smarts="[C:1]([C:2]1([O:3][H:10])[C:4]([H:11])([H:12])[O:5][C:6]1([H:13])[H:14])([H:7])([H:8])[H:9]>>[C:1]([C:2](=[O:3])[C:4]([O:5][C:6]([H:10])([H:13])[H:14])([H:11])[H:12])([H:7])([H:8])[H:9]"
C        1.58375409       0.07826299      -0.20142423
C        0.28840734      -0.44391853       0.34707965
O        0.29353931      -0.92962372       1.57274261
C       -0.75494181      -0.91357563      -0.67756919
O       -1.36519176       0.34396907      -0.92096509
C       -1.02365668       1.01110478       0.28124850
H        1.44147700       0.71689673      -1.07305523
H        2.16471222      -0.79621249      -0.50684385
H        2.14208215       0.61105849       0.56589146
H       -0.47232877       0.18410558       1.39450951
H       -1.45016527      -1.62291693      -0.21700090
H       -0.33859728      -1.33782971      -1.59407430
H       -1.90207931       1.09846893       0.93913058
H       -0.60701125       2.00021043       0.09033047
14
Frame=5 idx=005507 GeodesicLength=0.4322732772813245 rxn_smarts="[C:1]([C:2]1([O:3][H:10])[C:4]([H:11])([H:12])[O:5][C:6]1([H:13])[H:14])([H:7])([H:8])[H:9]>>[C:1]([C:2](=[O:3])[C:4]([O:5][C:6]([H:10])([H:13])[H:14])([H:11])[H:12])([H:7])([H:8])[H:9]"
C        1.59136444       0.07432148      -0.20329223
C        0.29635777      -0.44785851       0.34504663
O        0.29987396      -0.92671298       1.57205063
C       -0.75297473      -0.91408972      -0.67387574
O       -1.35128598       0.34678854      -0.92902829
C       -1.02807674       1.01178818       0.28040813
H        1.44606155       0.73606026      -1.05703963
H        2.16223959      -0.79566019      -0.53843137
H        2.16252354       0.58558321       0.56929081
H       -0.48373514       0.19550402       1.41594921
H       -1.45529695      -1.61269519      -0.20730495
H       -0.34104951      -1.35077072      -1.58638747
H       -1.91983726       1.09011100       0.92086182
H       -0.62616453       2.00763063       0.09175244
14
Frame=6 idx=005507 GeodesicLength=0.5186183036317342 rxn_smarts="[C:1]([C:2]1([O:3][H:10])[C:4]([H:11])([H:12])[O:5][C:6]1([H:13])[H:14])([H:7])([H:8])[H:9]>>[C:1]([C:2](=[O:3])[C:4]([O:5][C:6]([H:10])([H:13])[H:14])([H:11])[H:12])([H:7])([H:8])[H:9]"
C        1.59915963       0.07023287      -0.20530559
C        0.30458546      -0.45220258       0.34277488
O        0.30601611      -0.92299403       1.57157151
C       -0.75096834      -0.91462880      -0.67022463
O       -1.33725399       0.34948828      -0.93671985
C       -1.03237081       1.01232297       0.27966790
H        1.45097864       0.75513949      -1.04012092
H        2.15950534      -0.79424877      -0.57048768
H        2.18314349       0.55928303       0.57213913
H       -0.49615146       0.20712059       1.43800407
H       -1.46012215      -1.60250413      -0.19768915
H       -0.34375728      -1.36349259      -1.57878864
H       -1.93710687       1.08173335       0.90231356
H       -0.64565775       2.01475032       0.09286542
14
Frame=7 idx=005507 GeodesicLength=0.6049932588337311 rxn_smarts="[C:1]([C:2]1([O:3][H:10])[C:4]([H:11])([H:12])[O:5][C:6]1([H:13])[H:14])([H:7])([H:8])[H:9]>>[C:1]([C:2](=[O:3])[C:4]([O:5][C:6]([H:10])([H:13])[H:14])([H:11])[H:12])([H:7])([H:8])[H:9]"
C        1.60714507       0.06599329      -0.20748144
C        0.31311232      -0.45698961       0.34024985
O        0.31195850      -0.91838460       1.57130583
C       -0.74891614      -0.91520005      -0.66661500
O       -1.32308134       0.35207388      -0.94403609
C       -1.03652349       1.01270240       0.27904402
H        1.45623909       0.77410128      -1.02226086
H        2.15651064      -0.79191498      -0.60303314
H        2.20394499       0.53212994       0.57437920
H       -0.50969583       0.21896399       1.46070704
H       -1.46463509      -1.59235372      -0.18814435
H       -0.34672077      -1.37600527      -1.57128395
H       -1.95387618       1.07333908       0.88348680
H       -0.66546177       2.02154437       0.09368209
14
Frame=8 idx=005507 GeodesicLength=0.6913993296920558 rxn_smarts="[C:1]([C:2]1([O:3][H:10])[C:4]([H:11])([H:12])[O:5][C:6]1([H:13])[H:14])([H:7])([H:8])[H:9]>>[C:1]([C:2](=[O:3])[C:4]([O:5][C:6]([H:10])([H:13])[H:14])([H:11])[H:12])([H:7])([H:8])[H:9]"
C        1.61533035       0.06159438      -0.20983800
C        0.32196094      -0.46226312       0.33746185
O        0.31769746      -0.91278007       1.57125764
C       -0.74681080      -0.91581426      -0.66304255
O       -1.30874987       0.35454894      -0.95097062
C       -1.04052090       1.01291758       0.27855503
H        1.46185274       0.79291509      -1.00340745
H        2.15324791      -0.78857603      -0.63610227
H        2.22494153       0.50408102       0.57594886
H       -0.52451227       0.23103026       1.48407857
H       -1.46882894      -1.58225494      -0.17865451
H       -0.34993952      -1.38831888      -1.56387831
H       -1.97012849       1.06493808       0.86437774
H       -0.68554015       2.02798195       0.09421402
14
Frame=9 idx=005507 GeodesicLength=0.7779790494883158 rxn_smarts="[C:1]([C:2]1([O:3][H:10])[C:4]([H:11])([H:12])[O:5][C:6]1([H:13])[H:14])([H:7])([H:8])[H:9]>>[C:1]([C:2](=[O:3])[C:4]([O:5][C:6]([H:10])([H:13])[H:14])([H:11])[H:12])([H:7])([H:8])[H:9]"
C        1.62373110       0.05702807      -0.21242902
C        0.33119496      -0.46810269       0.33439342
O        0.32324705      -0.90593625       1.57136694
C       -0.74462244      -0.91648367      -0.65948595
O       -1.29418968       0.35692767      -0.95751311
C       -1.04432953       1.01294943       0.27824952
H        1.46781462       0.81157552      -0.98351848
H        2.14970042      -0.78417317      -0.66974313
H        2.24618162       0.47504526       0.57675379
H       -0.54086245       0.24326635       1.50819239
H       -1.47268018      -1.57221728      -0.16918820
H       -0.35341412      -1.40045441      -1.55655121
H       -1.98596709       1.05655239       0.84493548
H       -0.70580428       2.03402279       0.09453756
14
Frame=10 idx=005507 GeodesicLength=0.8645564237316603 rxn_smarts="[C:1]([C:2]1([O:3][H:10])[C:4]([H:11])([H:12])[O:5][C:6]1([H:13])[H:14])([H:7])([H:8])[H:9]>>[C:1]([C:2](=[O:3])[C:4]([O:5][C:6]([H:10])([H:13])[H:14])([H:11])[H:12])([H:7])([H:8])[H:9]"
C        1.63234405       0.05228635      -0.21524052
C        0.34079998      -0.47451952       0.33104866
O        0.32859757      -0.89786355       1.57167993
C       -0.74235643      -0.91721530      -0.65595168
O       -1.27942821       0.35919709      -0.96365742
C       -1.04795701       1.01280189       0.27811312
H        1.47415003       0.83001837      -0.96251508
H        2.14584036      -0.77859832      -0.70397314
H        2.26764558       0.44500716       0.57675060
H       -0.55876979       0.25572238       1.53301304
H       -1.47618553      -1.56225539      -0.15974347
H       -0.35713784      -1.41240944      -1.54932380
H       -2.00127574       1.04818066       0.82519466
H       -0.72626702       2.03964761       0.09460509
14
Frame=11 idx=005507 GeodesicLength=0.9511147419406991 rxn_smarts="[C:1]([C:2]1([O:3][H:10])[C:4]([H:11])([H:12])[O:5][C:6]1([H:13])[H:14])([H:7])([H:8])[H:9]>>[C:1]([C:2](=[O:3])[C:4]([O:5][C:6]([H:10])([H:13])[H:14])([H:11])[H:12])([H:7])([H:8])[H:9]"
C        1.64117536       0.04736502      -0.21829184
C        0.35080433      -0.48155701       0.32742393
O        0.33375018      -0.88844664       1.57217992
C       -0.73999671      -0.91801623      -0.65243081
O       -1.26444091       0.36135859      -0.96939671
C       -1.05138991       1.01247094       0.27816181
H        1.48086366       0.84819660      -0.94035147
H        2.14163778      -0.77178084      -0.73881240
H        2.28933371       0.41393045       0.57587220
H       -0.57837285       0.26839307       1.55856374
H       -1.47932829      -1.55237877      -0.15030430
H       -0.36110714      -1.42419196      -1.54219652
H       -2.01604582       1.03982649       0.80515062
H       -0.74688340       2.04483033       0.09443181
14
Frame=12 idx=005507 GeodesicLength=1.0376383502267295 rxn_smarts="[C:1]([C:2]1([O:3][H:10])[C:4]([H:11])([H:12])[O:5][C:6]1([H:13])[H:14])([H:7])([H:8])[H:9]>>[C:1]([C:2](=[O:3])[C:4]([O:5][C:6]([H:10])([H:13])[H:14])([H:11])[H:12])([H:7])([H:8])[H:9]"
C        1.65023229       0.04225589      -0.22160932
C        0.36123671      -0.48926675       0.32351861
O        0.33871959      -0.87753972       1.57284166
C       -0.73752587      -0.91889464      -0.64891230
O       -1.24920210       0.36341183      -0.97471684
C       -1.05461595       1.01195080       0.27841705
H        1.48796270       0.86606108      -0.91697008
H        2.13705978      -0.76364631      -0.77427691
H        2.31125598       0.38176629       0.57403969
H       -0.59984059       0.28126497       1.58485016
H       -1.48208817      -1.54259871      -0.14085074
H       -0.36531717      -1.43580702      -1.53516783
H       -2.03026945       1.03150005       0.78479577
H       -0.76760777       2.04954225       0.09404108
14
Frame=13 idx=005507 GeodesicLength=1.1241034550651923 rxn_smarts="[C:1]([C:2]1([O:3][H:10])[C:4]([H:11])([H:12])[O:5][C:6]1([H:13])[H:14])([H:7])([H:8])[H:9]>>[C:1]([C:2](=[O:3])[C:4]([O:5][C:6]([H:10])([H:13])[H:14])([H:11])[H:12])([H:7])([H:8])[H:9]"
C        1.65951826       0.03695238      -0.22521261
C        0.37212259      -0.49769552       0.31934020
O        0.34351905      -0.86501687       1.57362987
C       -0.73492498      -0.91985691      -0.64538247
O       -1.23368518       0.36535718      -0.97960734
C       -1.05762692       1.01123890       0.27889616
H        1.49545734       0.88354265      -0.89231691
H        2.13206140      -0.75410097      -0.81036869
H        2.33341247       0.34846657       0.57116859
H       -0.62331643       0.29433905       1.61187169
H       -1.48444700      -1.53292449      -0.13136444
H       -0.36976005      -1.44726081      -1.52823273
H       -2.04394084       1.02319835       0.76412755
H       -0.78838971       2.05376049       0.09345113
14
Frame=14 idx=005507 GeodesicLength=1.2104938931618836 rxn_smarts="[C:1]([C:2]1([O:3][H:10])[C:4]([H:11])([H:12])[O:5][C:6]1([H:13])[H:14])([H:7])([H:8])[H:9]>>[C:1]([C:2](=[O:3])[C:4]([O:5][C:6]([H:10])([H:13])[H:14])([H:11])[H:12])([H:7])([H:8])[H:9]"
C        1.66903587       0.03144548      -0.22912259
C        0.38349088      -0.50689849       0.31489977
O        0.34816274      -0.85071857       1.57450547
C       -0.73217234      -0.92091075      -0.64182344
O       -1.21785803       0.36719345      -0.98405270
C       -1.06041706       1.01033110       0.27961937
H        1.50336825       0.90056567      -0.86631856
H        2.12658918      -0.74303267      -0.84708934
H        2.35580891       0.31396790       0.56714774
H       -0.64897015       0.30759806       1.63961475
H       -1.48638246      -1.52336668      -0.12182144
H       -0.37442794      -1.45855898      -1.52138219
H       -2.05705210       1.01492435       0.74314134
H       -0.80917576       2.05746013       0.09268180
14
Frame=15 idx=005507 GeodesicLength=1.296792415501634 rxn_smarts="[C:1]([C:2]1([O:3][H:10])[C:4]([H:11])([H:12])[O:5][C:6]1([H:13])[H:14])([H:7])([H:8])[H:9]>>[C:1]([C:2](=[O:3])[C:4]([O:5][C:6]([H:10])([H:13])[H:14])([H:11])[H:12])([H:7])([H:8])[H:9]"
C        1.67878281       0.02572251      -0.23336486
C        0.39536512      -0.51692830       0.31021538
O        0.35267373      -0.83450261       1.57540769
C       -0.72924688      -0.92206017      -0.63821593
O       -1.20169310       0.36892089      -0.98803423
C       -1.06298294       1.00922712       0.28060690
H        1.51171481       0.91702893      -0.83892068
H        2.12059642      -0.73032569      -0.88439416
H        2.37843152       0.27822631       0.56186237
H       -0.67695026       0.32103008       1.66804972
H       -1.48787430      -1.51393452      -0.11220051
H       -0.37931263      -1.46970095      -1.51460870
H       -2.06959674       1.00667487       0.72184371
H       -0.82990756       2.06062153       0.09175331
14
Frame=16 idx=005507 GeodesicLength=1.3830048096221836 rxn_smarts="[C:1]([C:2]1([O:3][H:10])[C:4]([H:11])([H:12])[O:5][C:6]1([H:13])[H:14])([H:7])([H:8])[H:9]>>[C:1]([C:2](=[O:3])[C:4]([O:5][C:6]([H:10])([H:13])[H:14])([H:11])[H:12])([H:7])([H:8])[H:9]"
C        1.68875081       0.01977623      -0.23795916
C        0.40776716      -0.52783641       0.30531226
O        0.35708033      -0.81621994       1.57627313
C       -0.72612349      -0.92331212      -0.63453754
O       -1.18516023       0.37053777      -0.99153698
C       -1.06532915       1.00792865       0.28187129
H        1.52053230       0.93282504      -0.81004462
H        2.11401164      -0.71584061      -0.92224370
H        2.40127311       0.24117025       0.55518336
H       -0.70739486       0.33462438       1.69713893
H       -1.48889893      -1.50463969      -0.10247690
H       -0.38440082      -1.48068944      -1.50789705
H       -2.08157287       0.99844711       0.70024092
H       -0.85053498       2.06322878       0.09067605
