10
Frame=0 idx=000808 GeodesicLength=0.0 rxn_smarts="[O:1]([c:2]1[c:3]([H:8])[n:4][c:5]([H:9])[n:6]1[H:10])[H:7]>>[O:1](/[C:2]([C:3](=[N+:4]=[C-:5][H:9])[H:8])=[N:6]\[H:10])[H:7]"
O       -1.78992122      -0.98749496      -0.14716813
C       -0.53835151      -0.48277115      -0.05359657
C       -0.36577902       0.95783553      -0.04147833
N        0.87074761       1.29582833       0.14416862
C        1.89923136       0.71700721       0.44414079
N        0.49711447      -1.21812834       0.03579168
H       -2.43605750      -0.27713698      -0.13730217
H       -1.15368493       1.68986280      -0.13501348
H        2.74345738       0.51017748      -0.20374201
H        0.27324337      -2.20517992       0.09419958
10
Frame=1 idx=000808 GeodesicLength=0.04193895061591808 rxn_smarts="[O:1]([c:2]1[c:3]([H:8])[n:4][c:5]([H:9])[n:6]1[H:10])[H:7]>>[O:1](/[C:2]([C:3](=[N+:4]=[C-:5][H:9])[H:8])=[N:6]\[H:10])[H:7]"
O       -1.79102194      -0.98933447      -0.14081030
C       -0.54019414      -0.47832261      -0.07694629
C       -0.36641260       0.95973030      -0.05036389
N        0.87163285       1.29601719       0.14413959
C        1.89056218       0.69469168       0.44048864
N        0.49932222      -1.20800970       0.04219354
H       -2.43934841      -0.28098143      -0.13528072
H       -1.15483382       1.69338684      -0.12465701
H        2.74582791       0.50960653      -0.19925241
H        0.28446575      -2.19678433       0.10048886
10
Frame=2 idx=000808 GeodesicLength=0.08388301455994057 rxn_smarts="[O:1]([c:2]1[c:3]([H:8])[n:4][c:5]([H:9])[n:6]1[H:10])[H:7]>>[O:1](/[C:2]([C:3](=[N+:4]=[C-:5][H:9])[H:8])=[N:6]\[H:10])[H:7]"
O       -1.79205522      -0.99093284      -0.13470040
C       -0.54266697      -0.47402416      -0.09438494
C       -0.36695321       0.96148723      -0.06019960
N        0.87253365       1.29616107       0.14326121
C        1.88171610       0.67333990       0.43673456
N        0.50120832      -1.19787077       0.04723816
H       -2.44277331      -0.28481464      -0.13170853
H       -1.15556469       1.69651225      -0.11692792
H        2.74857122       0.50867525      -0.19272956
H        0.29598410      -2.18853328       0.10341704
10
Frame=3 idx=000808 GeodesicLength=0.12583643739433767 rxn_smarts="[O:1]([c:2]1[c:3]([H:8])[n:4][c:5]([H:9])[n:6]1[H:10])[H:7]>>[O:1](/[C:2]([C:3](=[N+:4]=[C-:5][H:9])[H:8])=[N:6]\[H:10])[H:7]"
O       -1.79276396      -0.99251625      -0.13215240
C       -0.54537562      -0.46975047      -0.10728204
C       -0.36772454       0.96321729      -0.06653533
N        0.87362287       1.29630533       0.14298089
C        1.87382728       0.65274870       0.43068468
N        0.50281143      -1.18784060       0.05351994
H       -2.44607789      -0.28884167      -0.13282687
H       -1.15617646       1.69946241      -0.10741844
H        2.75063568       0.50744126      -0.18948175
H        0.30722122      -2.18022600       0.10851132
10
Frame=4 idx=000808 GeodesicLength=0.16777853043924779 rxn_smarts="[O:1]([c:2]1[c:3]([H:8])[n:4][c:5]([H:9])[n:6]1[H:10])[H:7]>>[O:1](/[C:2]([C:3](=[N+:4]=[C-:5][H:9])[H:8])=[N:6]\[H:10])[H:7]"
O       -1.79363669      -0.99399610      -0.12861906
C       -0.54839798      -0.46558152      -0.11842200
C       -0.36840204       0.96488148      -0.07448804
N        0.87466403       1.29641926       0.14169258
C        1.86539144       0.63298174       0.42544597
N        0.50430787      -1.17791286       0.05811539
H       -2.44955600      -0.29280309      -0.12950768
H       -1.15641033       1.70226065      -0.10148822
H        2.75327496       0.50588471      -0.18263505
H        0.31876474      -2.17213426       0.10990611
10
Frame=5 idx=000808 GeodesicLength=0.2097381145066478 rxn_smarts="[O:1]([c:2]1[c:3]([H:8])[n:4][c:5]([H:9])[n:6]1[H:10])[H:7]>>[O:1](/[C:2]([C:3](=[N+:4]=[C-:5][H:9])[H:8])=[N:6]\[H:10])[H:7]"
O       -1.79459133      -0.99545568      -0.12497560
C       -0.55163438      -0.46149406      -0.12840406
C       -0.36906955       0.96651453      -0.08314620
N        0.87564693       1.29651732       0.13993722
C        1.85671552       0.61388286       0.42055972
N        0.50571808      -1.16812810       0.06145852
H       -2.45312032      -0.29675802      -0.12299335
H       -1.15638324       1.70501666      -0.09811088
H        2.75629425       0.50407493      -0.17347752
H        0.33042404      -2.16417044       0.10915215
10
Frame=6 idx=000808 GeodesicLength=0.2516347883225851 rxn_smarts="[O:1]([c:2]1[c:3]([H:8])[n:4][c:5]([H:9])[n:6]1[H:10])[H:7]>>[O:1](/[C:2]([C:3](=[N+:4]=[C-:5][H:9])[H:8])=[N:6]\[H:10])[H:7]"
O       -1.79533550      -0.99694596      -0.12370005
C       -0.55482070      -0.45739561      -0.13647652
C       -0.36986282       0.96807853      -0.08890300
N        0.87685866       1.29657160       0.13888664
C        1.84893276       0.59541422       0.41353819
N        0.50692540      -1.15853261       0.06626382
H       -2.45652258      -0.30082469      -0.12144376
H       -1.15636065       1.70761468      -0.09194586
H        2.75852407       0.50211372      -0.16758892
H        0.34166136      -2.15609389       0.11136946
10
Frame=7 idx=000808 GeodesicLength=0.29354084923355667 rxn_smarts="[O:1]([c:2]1[c:3]([H:8])[n:4][c:5]([H:9])[n:6]1[H:10])[H:7]>>[O:1](/[C:2]([C:3](=[N+:4]=[C-:5][H:9])[H:8])=[N:6]\[H:10])[H:7]"
O       -1.79619790      -0.99843983      -0.12149264
C       -0.55817117      -0.45336271      -0.14342720
C       -0.37067749       0.96961176      -0.09480350
N        0.87803780       1.29662248       0.13763474
C        1.84111390       0.57756200       0.40656604
N        0.50803166      -1.14907516       0.07071411
H       -2.46000917      -0.30487069      -0.11883995
H       -1.15614715       1.71024282      -0.08756400
H        2.76094973       0.49991107      -0.16035263
H        0.35306979      -2.14820174       0.11156504
10
Frame=8 idx=000808 GeodesicLength=0.335457674834063 rxn_smarts="[O:1]([c:2]1[c:3]([H:8])[n:4][c:5]([H:9])[n:6]1[H:10])[H:7]>>[O:1](/[C:2]([C:3](=[N+:4]=[C-:5][H:9])[H:8])=[N:6]\[H:10])[H:7]"
O       -1.79717253      -0.99988325      -0.11811703
C       -0.56170644      -0.44941494      -0.14979257
C       -0.37145481       0.97107860      -0.10172895
N        0.87919489       1.29668073       0.13542713
C        1.83293243       0.56039549       0.40009551
N        0.50905194      -1.13974725       0.07441724
H       -2.46354400      -0.30883727      -0.11343592
H       -1.15574270       1.71285138      -0.08539434
H        2.76366338       0.49733755      -0.15038851
H        0.36477783      -2.14046103       0.10891743
10
Frame=9 idx=000808 GeodesicLength=0.3773827525434312 rxn_smarts="[O:1]([c:2]1[c:3]([H:8])[n:4][c:5]([H:9])[n:6]1[H:10])[H:7]>>[O:1](/[C:2]([C:3](=[N+:4]=[C-:5][H:9])[H:8])=[N:6]\[H:10])[H:7]"
O       -1.79818750      -1.00133377      -0.11463066
C       -0.56533574      -0.44551568      -0.15548434
C       -0.37226737       0.97250819      -0.10860774
N        0.88037079       1.29675044       0.13286492
C        1.82481072       0.54379383       0.39339627
N        0.50997439      -1.13057591       0.07797169
H       -2.46708620      -0.31280680      -0.10746227
H       -1.15526178       1.71544971      -0.08387444
H        2.76644172       0.49448937      -0.13955199
H        0.37654095      -2.13275939       0.10537856
10
Frame=10 idx=000808 GeodesicLength=0.4192388271229694 rxn_smarts="[O:1]([c:2]1[c:3]([H:8])[n:4][c:5]([H:9])[n:6]1[H:10])[H:7]>>[O:1](/[C:2]([C:3](=[N+:4]=[C-:5][H:9])[H:8])=[N:6]\[H:10])[H:7]"
O       -1.79911744      -1.00283621      -0.11242417
C       -0.56890929      -0.44162358      -0.16025697
C       -0.37310858       0.97389435      -0.11401566
N        0.88167846       1.29676811       0.13087339
C        1.81724541       0.52765814       0.38540407
N        0.51073026      -1.12155388       0.08239111
H       -2.47057150      -0.31686128      -0.10400503
H       -1.15473729       1.71800528      -0.08097377
H        2.76875408       0.49157190      -0.13045289
H        0.38803589      -2.12502283       0.10345992
10
Frame=11 idx=000808 GeodesicLength=0.46110101349612476 rxn_smarts="[O:1]([c:2]1[c:3]([H:8])[n:4][c:5]([H:9])[n:6]1[H:10])[H:7]>>[O:1](/[C:2]([C:3](=[N+:4]=[C-:5][H:9])[H:8])=[N:6]\[H:10])[H:7]"
O       -1.80010720      -1.00432621      -0.10977953
C       -0.57258660      -0.43778280      -0.16455664
C       -0.37397623       0.97524424      -0.11979182
N        0.88299955       1.29683765       0.12816633
C        1.80958416       0.51209557       0.37747572
N        0.51137473      -1.11266759       0.08671092
H       -2.47407262      -0.32090909      -0.09921812
H       -1.15413786       1.72054105      -0.07908308
H        2.77119795       0.48826395      -0.11982985
H        0.39972412      -2.11729676       0.09990607
10
Frame=12 idx=000808 GeodesicLength=0.502969841546031 rxn_smarts="[O:1]([c:2]1[c:3]([H:8])[n:4][c:5]([H:9])[n:6]1[H:10])[H:7]>>[O:1](/[C:2]([C:3](=[N+:4]=[C-:5][H:9])[H:8])=[N:6]\[H:10])[H:7]"
O       -1.80107970      -1.00584458      -0.10763952
C       -0.57625766      -0.43395999      -0.16819870
C       -0.37486170       0.97654792      -0.12482867
N        0.88435858       1.29685141       0.12581987
C        1.80226040       0.49692386       0.36875787
N        0.51190193      -1.10391389       0.09145935
H       -2.47755832      -0.32499534      -0.09549420
H       -1.15347419       1.72307322      -0.07687273
H        2.77340941       0.48487227      -0.10981167
H        0.41130126      -2.10955488       0.09680841
10
Frame=13 idx=000808 GeodesicLength=0.544819104743141 rxn_smarts="[O:1]([c:2]1[c:3]([H:8])[n:4][c:5]([H:9])[n:6]1[H:10])[H:7]>>[O:1](/[C:2]([C:3](=[N+:4]=[C-:5][H:9])[H:8])=[N:6]\[H:10])[H:7]"
O       -1.80209731      -1.00735812      -0.10522744
C       -0.57999989      -0.43019099      -0.17154368
C       -0.37571949       0.97779144      -0.13002721
N        0.88568850       1.29682763       0.12354308
C        1.79495315       0.48212586       0.35991429
N        0.51237308      -1.09535051       0.09573565
H       -2.48103017      -0.32905211      -0.09070284
H       -1.15269061       1.72562939      -0.07573380
H        2.77559244       0.48138088      -0.09878886
H        0.42293031      -2.10180346       0.09283081
10
Frame=14 idx=000808 GeodesicLength=0.5866602915813163 rxn_smarts="[O:1]([c:2]1[c:3]([H:8])[n:4][c:5]([H:9])[n:6]1[H:10])[H:7]>>[O:1](/[C:2]([C:3](=[N+:4]=[C-:5][H:9])[H:8])=[N:6]\[H:10])[H:7]"
O       -1.80313647      -1.00888062      -0.10294103
C       -0.58377344      -0.42645921      -0.17451691
C       -0.37657143       0.97898429      -0.13516687
N        0.88702983       1.29678093       0.12122825
C        1.78776165       0.46773089       0.35069203
N        0.51273413      -1.08692697       0.10016730
H       -2.48447019      -0.33310987      -0.08550539
H       -1.15184012       1.72818527      -0.07501642
H        2.77768085       0.47772216      -0.08724673
H        0.43458519      -2.09402686       0.08830577
10
Frame=15 idx=000808 GeodesicLength=0.6285036971892453 rxn_smarts="[O:1]([c:2]1[c:3]([H:8])[n:4][c:5]([H:9])[n:6]1[H:10])[H:7]>>[O:1](/[C:2]([C:3](=[N+:4]=[C-:5][H:9])[H:8])=[N:6]\[H:10])[H:7]"
O       -1.80425872      -1.01039649      -0.10039563
C       -0.58763407      -0.42278469      -0.17738809
C       -0.37738155       0.98010206      -0.14074718
N        0.88834485       1.29668318       0.11882107
C        1.78054161       0.45367502       0.34140222
N        0.51306023      -1.07868420       0.10396650
H       -2.48788044      -0.33712768      -0.07855419
H       -1.15087698       1.73076321      -0.07557815
H        2.77979782       0.47401119      -0.07417210
H        0.44628727      -2.08624160       0.08264555
10
Frame=16 idx=000808 GeodesicLength=0.6703569200732555 rxn_smarts="[O:1]([c:2]1[c:3]([H:8])[n:4][c:5]([H:9])[n:6]1[H:10])[H:7]>>[O:1](/[C:2]([C:3](=[N+:4]=[C-:5][H:9])[H:8])=[N:6]\[H:10])[H:7]"
O       -1.80539841      -1.01185252      -0.09726381
C       -0.59160674      -0.41917615      -0.18035099
C       -0.37812426       0.98111691      -0.14717400
N        0.88952652       1.29648418       0.11632447
C        1.77312316       0.43988354       0.33228621
N        0.51336983      -1.07068456       0.10651493
H       -2.49111143      -0.34102205      -0.06871342
H       -1.14975089       1.73339427      -0.07819053
H        2.78184979       0.47027281      -0.05872407
H        0.45812243      -2.07841644       0.07529120
