17
Frame=0 idx=010756 GeodesicLength=0.0 rxn_smarts="[O:1]=[C:2]([C:3]([C:4]([C:5]1([H:13])[C:6]([H:14])([H:15])[C:7]1([H:16])[H:17])([H:11])[H:12])([H:9])[H:10])[H:8]>>[O:1](/[C:2](=[C:3](\[C:4]([C:5]1([H:13])[C:6]([H:14])([H:15])[C:7]1([H:16])[H:17])([H:11])[H:12])[H:9])[H:8])[H:10]"
O        1.93408586      -1.88829632       1.02216807
C        2.47834073      -0.76377886       0.75022713
C        1.65620614       0.02299551      -0.07425715
C        0.33099089       0.55747918       0.48643304
C       -0.75325414       0.65718909      -0.55814670
C       -1.62982162      -0.52093376      -0.84259846
C       -2.18977941       0.68201777      -0.13575385
H        3.49410540      -0.57244276       1.10628606
H        2.14567363       0.71376707      -0.75788455
H        1.24253303      -1.40831294       0.06737384
H        0.49293258       1.54970152       0.92399693
H       -0.01674815      -0.08769890       1.29843013
H       -0.49854208       1.27451282      -1.41355104
H       -1.93579621      -0.70530832      -1.86383754
H       -1.47018645      -1.41917780      -0.25697983
H       -2.87792811       1.32023110      -0.67419401
H       -2.40281202       0.58805558       0.92228793
17
Frame=1 idx=010756 GeodesicLength=0.04518160147316197 rxn_smarts="[O:1]=[C:2]([C:3]([C:4]([C:5]1([H:13])[C:6]([H:14])([H:15])[C:7]1([H:16])[H:17])([H:11])[H:12])([H:9])[H:10])[H:8]>>[O:1](/[C:2](=[C:3](\[C:4]([C:5]1([H:13])[C:6]([H:14])([H:15])[C:7]1([H:16])[H:17])([H:11])[H:12])[H:9])[H:8])[H:10]"
O        1.94997109      -1.87686170       1.05693578
C        2.48302859      -0.75202785       0.76384142
C        1.64864099       0.01356426      -0.06968145
C        0.32713433       0.55357408       0.49044516
C       -0.75455495       0.66031332      -0.55618031
C       -1.63044476      -0.51569421      -0.85187732
C       -2.19253041       0.68241476      -0.13864541
H        3.52061057      -0.57084421       1.05644141
H        2.13620184       0.69669503      -0.76253665
H        1.23595861      -1.42094730       0.09024844
H        0.49314000       1.54319727       0.93183121
H       -0.02574531      -0.09157146       1.30038752
H       -0.49763107       1.28392316      -1.40639992
H       -1.93253832      -0.69294898      -1.87553232
H       -1.47298527      -1.41798109      -0.27198404
H       -2.87885121       1.32415107      -0.67521302
H       -2.40940475       0.58104384       0.91791948
17
Frame=2 idx=010756 GeodesicLength=0.09028514609954097 rxn_smarts="[O:1]=[C:2]([C:3]([C:4]([C:5]1([H:13])[C:6]([H:14])([H:15])[C:7]1([H:16])[H:17])([H:11])[H:12])([H:9])[H:10])[H:8]>>[O:1](/[C:2](=[C:3](\[C:4]([C:5]1([H:13])[C:6]([H:14])([H:15])[C:7]1([H:16])[H:17])([H:11])[H:12])[H:9])[H:8])[H:10]"
O        1.96599692      -1.86420414       1.09166524
C        2.48819382      -0.73975922       0.77699220
C        1.64121475       0.00425194      -0.06492951
C        0.32342373       0.54982992       0.49453786
C       -0.75569938       0.66345405      -0.55409474
C       -1.63066434      -0.51049426      -0.86108158
C       -2.19511394       0.68260556      -0.14147979
H        3.54371148      -0.57089771       1.00593831
H        2.12655812       0.67942132      -0.76732979
H        1.22955426      -1.43324864       0.11343921
H        0.49344599       1.53685237       0.93966740
H       -0.03448182      -0.09526658       1.30245142
H       -0.49662480       1.29334474      -1.39906658
H       -1.92880151      -0.68061874      -1.88710566
H       -1.47517217      -1.41677491      -0.28698765
H       -2.87970302       1.32775557      -0.67614594
H       -2.41583810       0.57374873       0.91352961
17
Frame=3 idx=010756 GeodesicLength=0.13519801133232004 rxn_smarts="[O:1]=[C:2]([C:3]([C:4]([C:5]1([H:13])[C:6]([H:14])([H:15])[C:7]1([H:16])[H:17])([H:11])[H:12])([H:9])[H:10])[H:8]>>[O:1](/[C:2](=[C:3](\[C:4]([C:5]1([H:13])[C:6]([H:14])([H:15])[C:7]1([H:16])[H:17])([H:11])[H:12])[H:9])[H:8])[H:10]"
O        1.98210819      -1.85079075       1.12528946
C        2.49384327      -0.72736121       0.78905117
C        1.63404994      -0.00491304      -0.06034056
C        0.32000005       0.54620627       0.49851816
C       -0.75667315       0.66652586      -0.55196646
C       -1.63060236      -0.50541412      -0.86997362
C       -2.19746837       0.68268244      -0.14414235
H        3.56284939      -0.57170474       0.95719734
H        2.11698463       0.66224212      -0.77225168
H        1.22328267      -1.44523397       0.13607291
H        0.49401676       1.53063128       0.94731103
H       -0.04269485      -0.09884896       1.30447002
H       -0.49556200       1.30252970      -1.39176762
H       -1.92487243      -0.66856571      -1.89824580
H       -1.47690830      -1.41556197      -0.30161170
H       -2.88044959       1.33109856      -0.67689795
H       -2.42190386       0.56647824       0.90928763
17
Frame=4 idx=010756 GeodesicLength=0.18002471789690258 rxn_smarts="[O:1]=[C:2]([C:3]([C:4]([C:5]1([H:13])[C:6]([H:14])([H:15])[C:7]1([H:16])[H:17])([H:11])[H:12])([H:9])[H:10])[H:8]>>[O:1](/[C:2](=[C:3](\[C:4]([C:5]1([H:13])[C:6]([H:14])([H:15])[C:7]1([H:16])[H:17])([H:11])[H:12])[H:9])[H:8])[H:10]"
O        1.99838197      -1.83650958       1.15816371
C        2.49995234      -0.71475914       0.80013001
C        1.62705660      -0.01402622      -0.05587089
C        0.31680453       0.54266324       0.50243254
C       -0.75750631       0.66956663      -0.54977476
C       -1.63027307      -0.50038710      -0.87867875
C       -2.19963388       0.68263742      -0.14666652
H        3.57864269      -0.57326877       0.90976183
H        2.10733118       0.64495377      -0.77739157
H        1.21709252      -1.45698299       0.15851310
H        0.49482690       1.52447743       0.95482683
H       -0.05049910      -0.10235339       1.30647148
H       -0.49445371       1.31160311      -1.38441405
H       -1.92072023      -0.65662227      -1.90911313
H       -1.47820706      -1.41432454      -0.31606141
H       -2.88111190       1.33421655      -0.67747168
H       -2.42768347       0.55911583       0.90514325
17
Frame=5 idx=010756 GeodesicLength=0.22465974833382207 rxn_smarts="[O:1]=[C:2]([C:3]([C:4]([C:5]1([H:13])[C:6]([H:14])([H:15])[C:7]1([H:16])[H:17])([H:11])[H:12])([H:9])[H:10])[H:8]>>[O:1](/[C:2](=[C:3](\[C:4]([C:5]1([H:13])[C:6]([H:14])([H:15])[C:7]1([H:16])[H:17])([H:11])[H:12])[H:9])[H:8])[H:10]"
O        2.01462264      -1.82176170       1.18952324
C        2.50637891      -0.70218685       0.81006932
C        1.62033029      -0.02293030      -0.05160162
C        0.31387828       0.53924725       0.50619994
C       -0.75820122       0.67250785      -0.54758468
C       -1.62974788      -0.49551791      -0.88699671
C       -2.20160032       0.68252677      -0.14903877
H        3.59128977      -0.57536937       0.86473672
H        2.09786587       0.62799543      -0.78246375
H        1.21092937      -1.46841209       0.18005521
H        0.49586258       1.51845900       0.96211277
H       -0.05779048      -0.10573740       1.30840919
H       -0.49330936       1.32032547      -1.37721485
H       -1.91650030      -0.64508540      -1.91945876
H       -1.47920581      -1.41307908      -0.32995934
H       -2.88169669       1.33708657      -0.67794253
H       -2.43310566       0.55193175       0.90115461
17
Frame=6 idx=010756 GeodesicLength=0.26911137218106657 rxn_smarts="[O:1]=[C:2]([C:3]([C:4]([C:5]1([H:13])[C:6]([H:14])([H:15])[C:7]1([H:16])[H:17])([H:11])[H:12])([H:9])[H:10])[H:8]>>[O:1](/[C:2](=[C:3](\[C:4]([C:5]1([H:13])[C:6]([H:14])([H:15])[C:7]1([H:16])[H:17])([H:11])[H:12])[H:9])[H:8])[H:10]"
O        2.03092258      -1.80653156       1.21957321
C        2.51305505      -0.68958495       0.81898138
C        1.61377840      -0.03171627      -0.04748126
C        0.31116142       0.53589961       0.50986396
C       -0.75876018       0.67535579      -0.54536915
C       -1.62903822      -0.49076318      -0.89500796
C       -2.20335935       0.68237160      -0.15128969
H        3.60120820      -0.57780582       0.82172216
H        2.08843669       0.61118396      -0.78751918
H        1.20475626      -1.47961440       0.20096742
H        0.49707587       1.51250620       0.96924183
H       -0.06467444      -0.10906869       1.31028148
H       -0.49209579       1.32874566      -1.37008265
H       -1.91218163      -0.63384731      -1.92937820
H       -1.47994901      -1.41181360      -0.34345078
H       -2.88213679       1.33978086      -0.67831839
H       -2.43819906       0.54490210       0.89726583
17
Frame=7 idx=010756 GeodesicLength=0.3134901021776022 rxn_smarts="[O:1]=[C:2]([C:3]([C:4]([C:5]1([H:13])[C:6]([H:14])([H:15])[C:7]1([H:16])[H:17])([H:11])[H:12])([H:9])[H:10])[H:8]>>[O:1](/[C:2](=[C:3](\[C:4]([C:5]1([H:13])[C:6]([H:14])([H:15])[C:7]1([H:16])[H:17])([H:11])[H:12])[H:9])[H:8])[H:10]"
O        2.04730395      -1.79073409       1.24858705
C        2.52000659      -0.67691289       0.82697855
C        1.60738710      -0.04041202      -0.04347713
C        0.30862789       0.53262704       0.51344595
C       -0.75922837       0.67815272      -0.54313309
C       -1.62816823      -0.48607966      -0.90279993
C       -2.20499116       0.68214737      -0.15343887
H        3.60891272      -0.58077356       0.78042309
H        2.07901657       0.59443525      -0.79261205
H        1.19855333      -1.49060878       0.22145880
H        0.49846028       1.50661724       0.97622824
H       -0.07121372      -0.11232573       1.31212948
H       -0.49086322       1.33698055      -1.36299713
H       -1.90776789      -0.62279345      -1.93899409
H       -1.48042659      -1.41052371      -0.35665976
H       -2.88254071       1.34229844      -0.67860218
H       -2.44306854       0.53790529       0.89346306
17
Frame=8 idx=010756 GeodesicLength=0.3578278266068507 rxn_smarts="[O:1]=[C:2]([C:3]([C:4]([C:5]1([H:13])[C:6]([H:14])([H:15])[C:7]1([H:16])[H:17])([H:11])[H:12])([H:9])[H:10])[H:8]>>[O:1](/[C:2](=[C:3](\[C:4]([C:5]1([H:13])[C:6]([H:14])([H:15])[C:7]1([H:16])[H:17])([H:11])[H:12])[H:9])[H:8])[H:10]"
O        2.06385600      -1.77435237       1.27670872
C        2.52720911      -0.66413411       0.83410613
C        1.60110042      -0.04911138      -0.03957858
C        0.30624812       0.52938086       0.51696552
C       -0.75961166       0.68090957      -0.54086063
C       -1.62716182      -0.48142743      -0.91044248
C       -2.20650258       0.68186872      -0.15549458
H        3.61467714      -0.58406035       0.74067918
H        2.06950480       0.57755842      -0.79783844
H        1.19229410      -1.50148109       0.24174251
H        0.50001657       1.50073967       0.98310807
H       -0.07747543      -0.11556092       1.31395231
H       -0.48959433       1.34508788      -1.35589479
H       -1.90326324      -0.61181883      -1.94839055
H       -1.48067333      -1.40920176      -0.36971497
H       -2.88288217       1.34470005      -0.67877154
H       -2.44774170       0.53090308       0.88972414
17
Frame=9 idx=010756 GeodesicLength=0.4021922433006988 rxn_smarts="[O:1]=[C:2]([C:3]([C:4]([C:5]1([H:13])[C:6]([H:14])([H:15])[C:7]1([H:16])[H:17])([H:11])[H:12])([H:9])[H:10])[H:8]>>[O:1](/[C:2](=[C:3](\[C:4]([C:5]1([H:13])[C:6]([H:14])([H:15])[C:7]1([H:16])[H:17])([H:11])[H:12])[H:9])[H:8])[H:10]"
O        2.08066046      -1.75730041       1.30416175
C        2.53469286      -0.65121335       0.84042085
C        1.59489151      -0.05787538      -0.03575830
C        0.30399396       0.52614925       0.52044800
C       -0.75994106       0.68366144      -0.53854323
C       -1.62602241      -0.47675779      -0.91801572
C       -2.20794788       0.68152901      -0.15746958
H        3.61879183      -0.58773780       0.70222947
H        2.05982880       0.56039815      -0.80327765
H        1.18598603      -1.51226906       0.26204984
H        0.50172970       1.49485374       0.98991050
H       -0.08351516      -0.11877518       1.31578372
H       -0.48831861       1.35315943      -1.34873439
H       -1.89864372      -0.60080513      -1.95767532
H       -1.48065847      -1.40783314      -0.38274451
H       -2.88323099       1.34700686      -0.67881838
H       -2.45229684       0.52380937       0.88603293
17
Frame=10 idx=010756 GeodesicLength=0.44654254902983426 rxn_smarts="[O:1]=[C:2]([C:3]([C:4]([C:5]1([H:13])[C:6]([H:14])([H:15])[C:7]1([H:16])[H:17])([H:11])[H:12])([H:9])[H:10])[H:8]>>[O:1](/[C:2](=[C:3](\[C:4]([C:5]1([H:13])[C:6]([H:14])([H:15])[C:7]1([H:16])[H:17])([H:11])[H:12])[H:9])[H:8])[H:10]"
O        2.09766107      -1.73938813       1.33111783
C        2.54238524      -0.63806736       0.84590767
C        1.58867010      -0.06677539      -0.03202583
C        0.30185790       0.52292539       0.52387670
C       -0.76020739       0.68643227      -0.53615252
C       -1.62471711      -0.47203483      -0.92559290
C       -2.20927772       0.68107377      -0.15934144
H        3.62138357      -0.59182982       0.66493451
H        2.04985500       0.54275801      -0.80901942
H        1.17953832      -1.52298808       0.28261150
H        0.50365223       1.48894798       0.99660471
H       -0.08936897      -0.12194298       1.31758813
H       -0.48703706       1.36128936      -1.34140207
H       -1.89387160      -0.58962755      -1.96690597
H       -1.48031535      -1.40641661      -0.39593282
H       -2.88352918       1.34918803      -0.67863087
H       -2.45667905       0.51645593       0.88236279
17
Frame=11 idx=010756 GeodesicLength=0.4907658410932437 rxn_smarts="[O:1]=[C:2]([C:3]([C:4]([C:5]1([H:13])[C:6]([H:14])([H:15])[C:7]1([H:16])[H:17])([H:11])[H:12])([H:9])[H:10])[H:8]>>[O:1](/[C:2](=[C:3](\[C:4]([C:5]1([H:13])[C:6]([H:14])([H:15])[C:7]1([H:16])[H:17])([H:11])[H:12])[H:9])[H:8])[H:10]"
O        2.11470081      -1.72115327       1.35683411
C        2.55013409      -0.62488596       0.85062073
C        1.58254646      -0.07554935      -0.02829377
C        0.29982667       0.51975774       0.52728239
C       -0.76037705       0.68912419      -0.53372762
C       -1.62326827      -0.46741099      -0.93291235
C       -2.21046701       0.68059993      -0.16118302
H        3.62247352      -0.59622105       0.62909715
H        2.03985679       0.52527088      -0.81457661
H        1.17296236      -1.53352793       0.30269013
H        0.50562605       1.48309557       1.00322860
H       -0.09499399      -0.12507759       1.31938511
H       -0.48566867       1.36916184      -1.33411024
H       -1.88896482      -0.57872316      -1.97578788
H       -1.47982136      -1.40498059      -0.40874328
H       -2.88369420       1.35124025      -0.67849792
H       -2.46087138       0.50927949       0.87869447
17
Frame=12 idx=010756 GeodesicLength=0.5349601098698974 rxn_smarts="[O:1]=[C:2]([C:3]([C:4]([C:5]1([H:13])[C:6]([H:14])([H:15])[C:7]1([H:16])[H:17])([H:11])[H:12])([H:9])[H:10])[H:8]>>[O:1](/[C:2](=[C:3](\[C:4]([C:5]1([H:13])[C:6]([H:14])([H:15])[C:7]1([H:16])[H:17])([H:11])[H:12])[H:9])[H:8])[H:10]"
O        2.13188611      -1.70245546       1.38160838
C        2.55802815      -0.61163032       0.85460618
C        1.57651859      -0.08429780      -0.02457504
C        0.29789615       0.51662891       0.53066794
C       -0.76049807       0.69178000      -0.53127495
C       -1.62171118      -0.46281508      -0.94009640
C       -2.21159905       0.68009028      -0.16298219
H        3.62236017      -0.60097495       0.59459265
H        2.02978881       0.50770140      -0.82010828
H        1.16627962      -1.54393812       0.32255125
H        0.50768801       1.47726694       1.00978744
H       -0.10042552      -0.12816304       1.32120568
H       -0.48427796       1.37689769      -1.32682668
H       -1.88397034      -0.56791280      -1.98448234
H       -1.47914318      -1.40350047      -0.42137684
H       -2.88385814       1.35318998      -0.67834403
H       -2.46496215       0.50213284       0.87504720
17
Frame=13 idx=010756 GeodesicLength=0.5791499293101059 rxn_smarts="[O:1]=[C:2]([C:3]([C:4]([C:5]1([H:13])[C:6]([H:14])([H:15])[C:7]1([H:16])[H:17])([H:11])[H:12])([H:9])[H:10])[H:8]>>[O:1](/[C:2](=[C:3](\[C:4]([C:5]1([H:13])[C:6]([H:14])([H:15])[C:7]1([H:16])[H:17])([H:11])[H:12])[H:9])[H:8])[H:10]"
O        2.14924531      -1.68320164       1.40559255
C        2.56604658      -0.59824427       0.85787010
C        1.57053121      -0.09308191      -0.02085588
C        0.29605031       0.51351737       0.53404843
C       -0.76056326       0.69441810      -0.52877211
C       -1.62003323      -0.45821655      -0.94720446
C       -2.21265707       0.67952934      -0.16473738
H        3.62113745      -0.60603077       0.56122692
H        2.01954500       0.48988322      -0.82570138
H        1.15945228      -1.55426147       0.34239890
H        0.50985436       1.47143871       1.01630347
H       -0.10570992      -0.13121904       1.32305040
H       -0.48284394       1.38456555      -1.31947838
H       -1.87885410      -0.55710181      -1.99305364
H       -1.47826559      -1.40197743      -0.43395868
H       -2.88398468       1.35504970      -0.67812841
H       -2.46895071       0.49493289       0.87139956
17
Frame=14 idx=010756 GeodesicLength=0.6233656604269131 rxn_smarts="[O:1]=[C:2]([C:3]([C:4]([C:5]1([H:13])[C:6]([H:14])([H:15])[C:7]1([H:16])[H:17])([H:11])[H:12])([H:9])[H:10])[H:8]>>[O:1](/[C:2](=[C:3](\[C:4]([C:5]1([H:13])[C:6]([H:14])([H:15])[C:7]1([H:16])[H:17])([H:11])[H:12])[H:9])[H:8])[H:10]"
O        2.16683324      -1.66326759       1.42895309
C        2.57420178      -0.58468330       0.86040838
C        1.56454405      -0.10196044      -0.01711806
C        0.29427365       0.51041102       0.53744034
C       -0.76058174       0.69706614      -0.52619927
C       -1.61821557      -0.45357369      -0.95430065
C       -2.21365248       0.67889776      -0.16645096
H        3.61889334      -0.61143452       0.52880226
H        2.00902669       0.47164610      -0.83143359
H        1.15247192      -1.56451857       0.36244987
H        0.51213546       1.46559211       1.02279087
H       -0.11088455      -0.13424578       1.32493385
H       -0.48137507       1.39224578      -1.31199878
H       -1.87357245      -0.54617871      -2.00157636
H       -1.47714182      -1.40039862      -0.44661324
H       -2.88409279       1.35682071      -0.67781694
H       -2.47286366       0.48758160       0.86772919
17
Frame=15 idx=010756 GeodesicLength=0.6676401398014356 rxn_smarts="[O:1]=[C:2]([C:3]([C:4]([C:5]1([H:13])[C:6]([H:14])([H:15])[C:7]1([H:16])[H:17])([H:11])[H:12])([H:9])[H:10])[H:8]>>[O:1](/[C:2](=[C:3](\[C:4]([C:5]1([H:13])[C:6]([H:14])([H:15])[C:7]1([H:16])[H:17])([H:11])[H:12])[H:9])[H:8])[H:10]"
O        2.18471474      -1.64248977       1.45185412
C        2.58251719      -0.57089931       0.86219550
C        1.55851660      -0.11098739      -0.01333639
C        0.29255181       0.50729876       0.54086452
C       -0.76056364       0.69975169      -0.52353154
C       -1.61623425      -0.44884163      -0.96145023
C       -2.21459783       0.67817027      -0.16812865
H        3.61567392      -0.61728713       0.49710933
H        1.99812177       0.45281497      -0.83737154
H        1.14534152      -1.57471205       0.38293322
H        0.51454115       1.45970547       1.02926898
H       -0.11598157      -0.13723919       1.32687377
H       -0.47988414       1.40001862      -1.30431044
H       -1.86807436      -0.53502840      -2.01012440
H       -1.47571389      -1.39874371      -0.45946953
H       -2.88419896       1.35849902      -0.67738098
H       -2.47673006       0.47996978       0.86400425
17
Frame=16 idx=010756 GeodesicLength=0.7119337982867099 rxn_smarts="[O:1]=[C:2]([C:3]([C:4]([C:5]1([H:13])[C:6]([H:14])([H:15])[C:7]1([H:16])[H:17])([H:11])[H:12])([H:9])[H:10])[H:8]>>[O:1](/[C:2](=[C:3](\[C:4]([C:5]1([H:13])[C:6]([H:14])([H:15])[C:7]1([H:16])[H:17])([H:11])[H:12])[H:9])[H:8])[H:10]"
O        2.20281801      -1.62107284       1.47402871
C        2.59092082      -0.55695879       0.86325507
C        1.55248784      -0.12009443      -0.00950458
C        0.29088756       0.50418753       0.54431287
C       -0.76049833       0.70243592      -0.52079378
C       -1.61411885      -0.44407006      -0.96857379
C       -2.21548096       0.67738244      -0.16978081
H        3.61156962      -0.62344272       0.46636623
H        1.98693898       0.43357395      -0.84336952
H        1.13804346      -1.58482666       0.40357862
H        0.51703778       1.45379526       1.03573451
H       -0.12098565      -0.14020658       1.32886157
H       -0.47834490       1.40777233      -1.29649824
H       -1.86241383      -0.52378707      -2.01860458
H       -1.47406030      -1.39702572      -0.47236635
H       -2.88427291       1.36009816      -0.67688245
H       -2.48052835       0.47223929       0.86023651
