17
Frame=0 idx=011296 GeodesicLength=0.0 rxn_smarts="[C:1]([C:2]1([O:3][H:11])[C:4]([H:12])([H:13])[C:5]([H:14])=[C:6]([H:15])[C:7]1([H:16])[H:17])([H:8])([H:9])[H:10]>>[C:1]([O:3][H:11])([H:8])([H:9])[H:10].[C:2]1[C:4]([H:12])([H:13])[C:5]([H:14])=[C:6]([H:15])[C:7]1([H:16])[H:17]"
C       -2.22192574      -0.71754376       0.22663679
C       -0.28795474      -0.29096078      -0.38706718
O       -0.69902805      -0.69890064       1.07129585
C        0.02750386       1.19946038      -0.32714846
C        1.48248018       1.25764377       0.09401318
C        2.05827851       0.07146756      -0.05883834
C        1.07226766      -0.94238683      -0.60084250
H       -2.76923122      -0.75818931       1.17790929
H       -2.28262697      -1.65107719      -0.31028252
H       -2.55164860       0.11965701      -0.37514609
H       -0.53939353       0.01948487       1.70598504
H       -0.09845583       1.64744423      -1.32049632
H       -0.65176329       1.75501523       0.33014560
H        1.98425643       2.15919269       0.42558487
H        3.10275455      -0.14133851       0.13798277
H        1.12832994      -1.92031548      -0.11931949
H        1.24615692      -1.10865322      -1.67041241
17
Frame=1 idx=011296 GeodesicLength=0.05503089219756646 rxn_smarts="[C:1]([C:2]1([O:3][H:11])[C:4]([H:12])([H:13])[C:5]([H:14])=[C:6]([H:15])[C:7]1([H:16])[H:17])([H:8])([H:9])[H:10]>>[C:1]([O:3][H:11])([H:8])([H:9])[H:10].[C:2]1[C:4]([H:12])([H:13])[C:5]([H:14])=[C:6]([H:15])[C:7]1([H:16])[H:17]"
C       -2.21701825      -0.72388086       0.22411971
C       -0.28727883      -0.28221632      -0.38261337
O       -0.70539617      -0.68872050       1.08972682
C        0.03366282       1.20636127      -0.33237359
C        1.48901616       1.26049773       0.08609808
C        2.05948897       0.07085194      -0.06009312
C        1.06830096      -0.94218143      -0.59290812
H       -2.77599905      -0.82380945       1.16404420
H       -2.27605133      -1.63317001      -0.35444825
H       -2.56501378       0.13425051      -0.33750708
H       -0.53951710       0.02740608       1.72379532
H       -0.09556222       1.64606602      -1.32911570
H       -0.64311092       1.76742810       0.32237851
H        1.99522200       2.16222042       0.41029404
H        3.10367941      -0.14514078       0.13455949
H        1.11973379      -1.91679184      -0.10407161
H        1.23584355      -1.11917088      -1.66188533
17
Frame=2 idx=011296 GeodesicLength=0.10988606292133815 rxn_smarts="[C:1]([C:2]1([O:3][H:11])[C:4]([H:12])([H:13])[C:5]([H:14])=[C:6]([H:15])[C:7]1([H:16])[H:17])([H:8])([H:9])[H:10]>>[C:1]([O:3][H:11])([H:8])([H:9])[H:10].[C:2]1[C:4]([H:12])([H:13])[C:5]([H:14])=[C:6]([H:15])[C:7]1([H:16])[H:17]"
C       -2.21204158      -0.73009213       0.22162526
C       -0.28664655      -0.27361446      -0.37834629
O       -0.71211766      -0.67863771       1.10814859
C        0.03961525       1.21306452      -0.33778213
C        1.49529430       1.26327462       0.07813269
C        2.06050555       0.07022172      -0.06105537
C        1.06432617      -0.94200144      -0.58480108
H       -2.78024478      -0.88934684       1.14762664
H       -2.27042330      -1.61253712      -0.39847259
H       -2.57847318       0.14736811      -0.29790527
H       -0.53928224       0.03482741       1.74179494
H       -0.09289615       1.64443492      -1.33784844
H       -0.63469373       1.77958967       0.31438071
H        2.00592521       2.16524063       0.39453195
H        3.10439502      -0.14887939       0.13153740
H        1.11111374      -1.91315521      -0.08855366
H        1.22564394      -1.12975730      -1.65301338
17
Frame=3 idx=011296 GeodesicLength=0.1646380866210654 rxn_smarts="[C:1]([C:2]1([O:3][H:11])[C:4]([H:12])([H:13])[C:5]([H:14])=[C:6]([H:15])[C:7]1([H:16])[H:17])([H:8])([H:9])[H:10]>>[C:1]([O:3][H:11])([H:8])([H:9])[H:10].[C:2]1[C:4]([H:12])([H:13])[C:5]([H:14])=[C:6]([H:15])[C:7]1([H:16])[H:17]"
C       -2.20699864      -0.73617066       0.21910288
C       -0.28604605      -0.26517609      -0.37425730
O       -0.71923193      -0.66869008       1.12656092
C        0.04536547       1.21955287      -0.34336218
C        1.50130225       1.26597241       0.07015490
C        2.06132513       0.06958841      -0.06168151
C        1.06035844      -0.94185294      -0.57647529
H       -2.78191243      -0.95476923       1.12859636
H       -2.26590480      -1.58897785      -0.44234372
H       -2.59197643       0.15890801      -0.25629481
H       -0.53870687       0.04166713       1.75999232
H       -0.09042779       1.64252858      -1.34668555
H       -0.62652901       1.79147064       0.30614724
H        2.01639382       2.16829121       0.37811570
H        3.10491582      -0.15250665       0.12887282
H        1.10247538      -1.90940044      -0.07270190
H        1.21559765      -1.14043532      -1.64374088
17
Frame=4 idx=011296 GeodesicLength=0.21928062115052993 rxn_smarts="[C:1]([C:2]1([O:3][H:11])[C:4]([H:12])([H:13])[C:5]([H:14])=[C:6]([H:15])[C:7]1([H:16])[H:17])([H:8])([H:9])[H:10]>>[C:1]([O:3][H:11])([H:8])([H:9])[H:10].[C:2]1[C:4]([H:12])([H:13])[C:5]([H:14])=[C:6]([H:15])[C:7]1([H:16])[H:17]"
C       -2.20188786      -0.74210058       0.21652708
C       -0.28546932      -0.25693515      -0.37038770
O       -0.72671105      -0.65890601       1.14494440
C        0.05089157       1.22580710      -0.34914128
C        1.50702873       1.26859371       0.06214536
C        2.06196821       0.06896776      -0.06201679
C        1.05642848      -0.94173817      -0.56799705
H       -2.78101226      -1.01950205       1.10700530
H       -2.26257474      -1.56256694      -0.48566531
H       -2.60547192       0.16858474      -0.21297196
H       -0.53771743       0.04785566       1.77837907
H       -0.08818299       1.64033442      -1.35565579
H       -0.61867265       1.80303601       0.29764271
H        2.02651960       2.17130104       0.36136846
H        3.10526055      -0.15601139       0.12658038
H        1.09387421      -1.90553997      -0.05660910
H        1.20572886      -1.15118020      -1.63414779
17
Frame=5 idx=011296 GeodesicLength=0.27385708830417027 rxn_smarts="[C:1]([C:2]1([O:3][H:11])[C:4]([H:12])([H:13])[C:5]([H:14])=[C:6]([H:15])[C:7]1([H:16])[H:17])([H:8])([H:9])[H:10]>>[C:1]([O:3][H:11])([H:8])([H:9])[H:10].[C:2]1[C:4]([H:12])([H:13])[C:5]([H:14])=[C:6]([H:15])[C:7]1([H:16])[H:17]"
C       -2.19670588      -0.74784800       0.21385080
C       -0.28490739      -0.24890347      -0.36673759
O       -0.73457269      -0.64931693       1.16328870
C        0.05618762       1.23181425      -0.35510262
C        1.51245730       1.27113038       0.05414042
C        2.06243033       0.06836171      -0.06201758
C        1.05255217      -0.94165959      -0.55933635
H       -2.77749732      -1.08346466       1.08281993
H       -2.26055674      -1.53313978      -0.52833733
H       -2.61893286       0.17627070      -0.16799797
H       -0.53631159       0.05330459       1.79695375
H       -0.08615463       1.63784315      -1.36473849
H       -0.61114959       1.81425911       0.28887368
H        2.03633064       2.17429707       0.34410139
H        3.10542969      -0.15938106       0.12467512
H        1.08532438      -1.90156844      -0.04024107
H        1.19607657      -1.16199904      -1.62419480
17
Frame=6 idx=011296 GeodesicLength=0.32836423770080353 rxn_smarts="[C:1]([C:2]1([O:3][H:11])[C:4]([H:12])([H:13])[C:5]([H:14])=[C:6]([H:15])[C:7]1([H:16])[H:17])([H:8])([H:9])[H:10]>>[C:1]([O:3][H:11])([H:8])([H:9])[H:10].[C:2]1[C:4]([H:12])([H:13])[C:5]([H:14])=[C:6]([H:15])[C:7]1([H:16])[H:17]"
C       -2.19146446      -0.75338526       0.21104243
C       -0.28435450      -0.24110486      -0.36334344
O       -0.74281435      -0.63995459       1.18156991
C        0.06125971       1.23756403      -0.36125557
C        1.51759351       1.27358843       0.04614865
C        2.06272502       0.06779052      -0.06171124
C        1.04874184      -0.94161075      -0.55054447
H       -2.77147691      -1.14611768       1.05612693
H       -2.25988341      -1.50089057      -0.56990120
H       -2.63229523       0.18171868      -0.12177219
H       -0.53444544       0.05792900       1.81570055
H       -0.08432212       1.63505819      -1.37393981
H       -0.60397821       1.82510647       0.27982628
H        2.04576155       2.17723046       0.32660288
H        3.10545651      -0.16257022       0.12306481
H        1.07683884      -1.89748947      -0.02367341
H        1.18665763      -1.17286241      -1.61394111
17
Frame=7 idx=011296 GeodesicLength=0.38279645105151533 rxn_smarts="[C:1]([C:2]1([O:3][H:11])[C:4]([H:12])([H:13])[C:5]([H:14])=[C:6]([H:15])[C:7]1([H:16])[H:17])([H:8])([H:9])[H:10]>>[C:1]([O:3][H:11])([H:8])([H:9])[H:10].[C:2]1[C:4]([H:12])([H:13])[C:5]([H:14])=[C:6]([H:15])[C:7]1([H:16])[H:17]"
C       -2.18616236      -0.75866002       0.20811523
C       -0.28380451      -0.23354158      -0.36025787
O       -0.75140947      -0.63081872       1.19976205
C        0.06610792       1.24305566      -0.36764155
C        1.52243669       1.27596198       0.03812547
C        2.06286388       0.06725794      -0.06116551
C        1.04501525      -0.94157927      -0.54170123
H       -2.76303716      -1.20698971       1.02712999
H       -2.26053049      -1.46603514      -0.60989707
H       -2.64552873       0.18473038      -0.07474142
H       -0.53207409       0.06167272       1.83458481
H       -0.08266799       1.63199785      -1.38329746
H       -0.59718929       1.83555959       0.27045522
H        2.05470602       2.18001473       0.30925387
H        3.10533336      -0.16559834       0.12175998
H        1.06843783      -1.89330202      -0.00701032
H        1.17750314      -1.18372604      -1.60347417
17
Frame=8 idx=011296 GeodesicLength=0.4372696814083652 rxn_smarts="[C:1]([C:2]1([O:3][H:11])[C:4]([H:12])([H:13])[C:5]([H:14])=[C:6]([H:15])[C:7]1([H:16])[H:17])([H:8])([H:9])[H:10]>>[C:1]([O:3][H:11])([H:8])([H:9])[H:10].[C:2]1[C:4]([H:12])([H:13])[C:5]([H:14])=[C:6]([H:15])[C:7]1([H:16])[H:17]"
C       -2.18079929      -0.76361809       0.20503355
C       -0.28326249      -0.22622801      -0.35754239
O       -0.76030168      -0.62191850       1.21788685
C        0.07070931       1.24834262      -0.37428286
C        1.52698051       1.27828861       0.03009145
C        2.06286309       0.06674387      -0.06039584
C        1.04138368      -0.94162176      -0.53287901
H       -2.75228241      -1.26571816       0.99599556
H       -2.26248003      -1.42891759      -0.64800071
H       -2.65859357       0.18528107      -0.02731412
H       -0.52911817       0.06450517       1.85366535
H       -0.08125014       1.62873016      -1.39287962
H       -0.59080787       1.84570681       0.26077115
H        2.06310089       2.18269448       0.29232533
H        3.10509221      -0.16850279       0.12077312
H        1.06016543      -1.88910677       0.00967629
H        1.16860052      -1.19466111      -1.59292410
17
Frame=9 idx=011296 GeodesicLength=0.4914142486784893 rxn_smarts="[C:1]([C:2]1([O:3][H:11])[C:4]([H:12])([H:13])[C:5]([H:14])=[C:6]([H:15])[C:7]1([H:16])[H:17])([H:8])([H:9])[H:10]>>[C:1]([O:3][H:11])([H:8])([H:9])[H:10].[C:2]1[C:4]([H:12])([H:13])[C:5]([H:14])=[C:6]([H:15])[C:7]1([H:16])[H:17]"
C       -2.17539094      -0.76825987       0.20181596
C       -0.28272406      -0.21908248      -0.35511957
O       -0.76962113      -0.61321217       1.23579603
C        0.07518950       1.25331432      -0.38107191
C        1.53129107       1.28045563       0.02207327
C        2.06268082       0.06632458      -0.05942304
C        1.03776708      -0.94152483      -0.52401140
H       -2.73947905      -1.32204328       0.96279814
H       -2.26552570      -1.38975843      -0.68376813
H       -2.67147083       0.18307092       0.02010195
H       -0.52570923       0.06629275       1.87269015
H       -0.07982671       1.62515766      -1.40241315
H       -0.58470226       1.85529084       0.25080536
H        2.07111841       2.18508115       0.27559227
H        3.10467538      -0.17115565       0.11984244
H        1.05181876      -1.88458345       0.02636259
H        1.15990890      -1.20536769      -1.58207098
17
Frame=10 idx=011296 GeodesicLength=0.5457293426402344 rxn_smarts="[C:1]([C:2]1([O:3][H:11])[C:4]([H:12])([H:13])[C:5]([H:14])=[C:6]([H:15])[C:7]1([H:16])[H:17])([H:8])([H:9])[H:10]>>[C:1]([O:3][H:11])([H:8])([H:9])[H:10].[C:2]1[C:4]([H:12])([H:13])[C:5]([H:14])=[C:6]([H:15])[C:7]1([H:16])[H:17]"
C       -2.16995695      -0.77252525       0.19842865
C       -0.28220671      -0.21211939      -0.35307788
O       -0.77927438      -0.60473618       1.25364295
C        0.07946216       1.25814582      -0.38806521
C        1.53533835       1.28257442       0.01412890
C        2.06236473       0.06591095      -0.05820463
C        1.03421871      -0.94147518      -0.51517309
H       -2.72451255      -1.37612382       0.92761957
H       -2.26973685      -1.34865431      -0.71731280
H       -2.68425437       0.17832802       0.06749003
H       -0.52179058       0.06704269       1.89191877
H       -0.07856111       1.62149380      -1.41211803
H       -0.57897237       1.86462399       0.24059349
H        2.07877874       2.18742268       0.25888836
H        3.10411501      -0.17376854       0.11935334
H        1.04352980      -1.88004368       0.04304232
H        1.15145837      -1.21609603      -1.57115475
17
Frame=11 idx=011296 GeodesicLength=0.6001348105677617 rxn_smarts="[C:1]([C:2]1([O:3][H:11])[C:4]([H:12])([H:13])[C:5]([H:14])=[C:6]([H:15])[C:7]1([H:16])[H:17])([H:8])([H:9])[H:10]>>[C:1]([O:3][H:11])([H:8])([H:9])[H:10].[C:2]1[C:4]([H:12])([H:13])[C:5]([H:14])=[C:6]([H:15])[C:7]1([H:16])[H:17]"
C       -2.16452198      -0.77639351       0.19488027
C       -0.28171286      -0.20528982      -0.35138652
O       -0.78933025      -0.59646723       1.27138418
C        0.08358704       1.26282079      -0.39520274
C        1.53916379       1.28461310       0.00629433
C        2.06190646       0.06553121      -0.05673540
C        1.03070255      -0.94139072      -0.50633808
H       -2.70757727      -1.42782045       0.89052816
H       -2.27496461      -1.30586733      -0.74840724
H       -2.69696352       0.17097334       0.11458316
H       -0.51742904       0.06666272       1.91127140
H       -0.07735115       1.61772869      -1.42187856
H       -0.57355188       1.87364139       0.23018053
H        2.08620036       2.18966362       0.24203087
H        3.10340857      -0.17629639       0.11918616
H        1.03520617      -1.87536760       0.05970878
H        1.14322762      -1.22674182      -1.56009929
17
Frame=12 idx=011296 GeodesicLength=0.6546356832921791 rxn_smarts="[C:1]([C:2]1([O:3][H:11])[C:4]([H:12])([H:13])[C:5]([H:14])=[C:6]([H:15])[C:7]1([H:16])[H:17])([H:8])([H:9])[H:10]>>[C:1]([O:3][H:11])([H:8])([H:9])[H:10].[C:2]1[C:4]([H:12])([H:13])[C:5]([H:14])=[C:6]([H:15])[C:7]1([H:16])[H:17]"
C       -2.15908046      -0.77984026       0.19120193
C       -0.28125698      -0.19855293      -0.35006629
O       -0.79976947      -0.58834772       1.28901828
C        0.08758947       1.26737503      -0.40249135
C        1.54278774       1.28657459      -0.00143527
C        2.06129122       0.06517917      -0.05504784
C        1.02717495      -0.94125673      -0.49753977
H       -2.68870951      -1.47700670       0.85166925
H       -2.28108359      -1.26171482      -0.77686218
H       -2.70962657       0.16098300       0.16109719
H       -0.51261939       0.06514837       1.93072487
H       -0.07616321       1.61390926      -1.43169923
H       -0.56839614       1.88238913       0.21956344
H        2.09340800       2.19177509       0.22511674
H        3.10251594      -0.17878348       0.11937363
H        1.02678411      -1.87054113       0.07631799
H        1.13515389      -1.23728987      -1.54894138
17
Frame=13 idx=011296 GeodesicLength=0.7092452679143211 rxn_smarts="[C:1]([C:2]1([O:3][H:11])[C:4]([H:12])([H:13])[C:5]([H:14])=[C:6]([H:15])[C:7]1([H:16])[H:17])([H:8])([H:9])[H:10]>>[C:1]([O:3][H:11])([H:8])([H:9])[H:10].[C:2]1[C:4]([H:12])([H:13])[C:5]([H:14])=[C:6]([H:15])[C:7]1([H:16])[H:17]"
C       -2.15365456      -0.78284622       0.18742137
C       -0.28084767      -0.19186403      -0.34912302
O       -0.81060827      -0.58035687       1.30655163
C        0.09149490       1.27184626      -0.40990803
C        1.54623907       1.28845850      -0.00903088
C        2.06052954       0.06485064      -0.05315535
C        1.02362020      -0.94104685      -0.48880128
H       -2.66808975      -1.52348629       0.81121300
H       -2.28793217      -1.21663097      -0.80251016
H       -2.72226964       0.14838736       0.20673854
H       -0.50741378       0.06243936       1.95027086
H       -0.07495817       1.61010173      -1.44155319
H       -0.56347556       1.89090193       0.20877958
H        2.10046330       2.19373896       0.20812396
H        3.10145512      -0.18125257       0.11986444
H        1.01822765      -1.86554683       0.09282956
H        1.12721979      -1.24769412      -1.53771102
17
Frame=14 idx=011296 GeodesicLength=0.763977828382624 rxn_smarts="[C:1]([C:2]1([O:3][H:11])[C:4]([H:12])([H:13])[C:5]([H:14])=[C:6]([H:15])[C:7]1([H:16])[H:17])([H:8])([H:9])[H:10]>>[C:1]([O:3][H:11])([H:8])([H:9])[H:10].[C:2]1[C:4]([H:12])([H:13])[C:5]([H:14])=[C:6]([H:15])[C:7]1([H:16])[H:17]"
C       -2.14824748      -0.78540465       0.18357840
C       -0.28049666      -0.18517746      -0.34856712
O       -0.82184512      -0.57244746       1.32399702
C        0.09532726       1.27627637      -0.41744369
C        1.54954139       1.29026998      -0.01648165
C        2.05961784       0.06453871      -0.05107736
C        1.02000838      -0.94074285      -0.48014897
H       -2.64582651      -1.56714206       0.76934345
H       -2.29536414      -1.17099457      -0.82527891
H       -2.73492058       0.13322802       0.25127458
H       -0.50183781       0.05850277       1.96990232
H       -0.07370507       1.60636677      -1.45143232
H       -0.55875059       1.89923113       0.19785254
H        2.10741791       2.19554025       0.19104827
H        3.10020990      -0.18374314       0.12067129
H        1.00948630      -1.86037216       0.10920577
H        1.11938498      -1.25792964      -1.52644361
17
Frame=15 idx=011296 GeodesicLength=0.8188713620087577 rxn_smarts="[C:1]([C:2]1([O:3][H:11])[C:4]([H:12])([H:13])[C:5]([H:14])=[C:6]([H:15])[C:7]1([H:16])[H:17])([H:8])([H:9])[H:10]>>[C:1]([O:3][H:11])([H:8])([H:9])[H:10].[C:2]1[C:4]([H:12])([H:13])[C:5]([H:14])=[C:6]([H:15])[C:7]1([H:16])[H:17]"
C       -2.14286843      -0.78753421       0.17973014
C       -0.28022205      -0.17845237      -0.34841922
O       -0.83347090      -0.56455614       1.34137559
C        0.09913272       1.28071309      -0.42512182
C        1.55274080       1.29203414      -0.02381071
C        2.05854897       0.06425048      -0.04884837
C        1.01628611      -0.94032961      -0.47161382
H       -2.62196873      -1.60797288       0.72624052
H       -2.30331380      -1.12514293      -0.84515130
H       -2.74759130       0.11554192       0.29455460
H       -0.49590274       0.05333794       1.98960474
H       -0.07234596       1.60275977      -1.46136880
H       -0.55414435       1.90744345       0.18676448
H        2.11433306       2.19718261       0.17396802
H        3.09874274      -0.18628233       0.12186009
H        1.00046975      -1.85500809       0.12541516
H        1.11157409      -1.26798483      -1.51517931
17
Frame=16 idx=011296 GeodesicLength=0.8738137911899366 rxn_smarts="[C:1]([C:2]1([O:3][H:11])[C:4]([H:12])([H:13])[C:5]([H:14])=[C:6]([H:15])[C:7]1([H:16])[H:17])([H:8])([H:9])[H:10]>>[C:1]([O:3][H:11])([H:8])([H:9])[H:10].[C:2]1[C:4]([H:12])([H:13])[C:5]([H:14])=[C:6]([H:15])[C:7]1([H:16])[H:17]"
C       -2.13748693      -0.78920380       0.17589622
C       -0.28002171      -0.17163240      -0.34864700
O       -0.84549057      -0.55663859       1.35867291
C        0.10289277       1.28517113      -0.43286842
C        1.55580878       1.29370816      -0.03094508
C        2.05731069       0.06395570      -0.04644747
C        1.01245576      -0.93977365      -0.46317763
H       -2.59668166      -1.64575595       0.68207621
H       -2.31151446      -1.07944260      -0.86214625
H       -2.76029305       0.09542409       0.33635427
H       -0.48967861       0.04685183       2.00934420
H       -0.07090606       1.59932056      -1.47125663
H       -0.54967625       1.91554677       0.17559579
H        2.12123752       2.19859639       0.15667382
H        3.09706587      -0.18891327       0.12331161
H        0.99119117      -1.84940796       0.14144377
H        1.10378672      -1.27780641      -1.50388033
