11
Frame=0 idx=001620 GeodesicLength=0.0 rxn_smarts="[N:1]([C:2](=[O:3])[C:4]([C:5](=[O:6])[H:11])([H:9])[H:10])([H:7])[H:8]>>[C:4](=[C:5]([O:6][H:7])[H:11])([H:9])[H:10].[N:1](=[C:2]=[O:3])[H:8]"
N       -1.45158780      -0.46519073      -0.30095744
C       -1.10283677       0.62635434       0.25383876
O       -1.39418867       1.69224110       0.66958938
C        0.79265483       0.25893047       0.73247702
C        1.28912282      -0.21331862      -0.46296031
O        0.78407906      -1.21843779      -1.09330934
H       -0.22573295      -1.22461994      -0.78512300
H       -2.41263542      -0.46424678      -0.61748242
H        0.39729138      -0.45333485       1.44766399
H        1.23563680       1.15324613       1.14713486
H        2.08819670       0.30837662      -0.99087145
11
Frame=1 idx=001620 GeodesicLength=0.11091462489466125 rxn_smarts="[N:1]([C:2](=[O:3])[C:4]([C:5](=[O:6])[H:11])([H:9])[H:10])([H:7])[H:8]>>[C:4](=[C:5]([O:6][H:7])[H:11])([H:9])[H:10].[N:1](=[C:2]=[O:3])[H:8]"
N       -1.45941925      -0.46037913      -0.30457700
C       -1.11593690       0.63091421       0.25572849
O       -1.40702265       1.71085609       0.63356318
C        0.79877161       0.25390687       0.73549401
C        1.30788006      -0.21790558      -0.45771726
O        0.79756600      -1.21409997      -1.09668947
H       -0.24175732      -1.20978313      -0.79885391
H       -2.43009949      -0.48696679      -0.58697217
H        0.40063062      -0.46167129       1.44600060
H        1.25362299       1.13678997       1.16237182
H        2.09576434       0.31833873      -0.98834828
11
Frame=2 idx=001620 GeodesicLength=0.22179362033418662 rxn_smarts="[N:1]([C:2](=[O:3])[C:4]([C:5](=[O:6])[H:11])([H:9])[H:10])([H:7])[H:8]>>[C:4](=[C:5]([O:6][H:7])[H:11])([H:9])[H:10].[N:1](=[C:2]=[O:3])[H:8]"
N       -1.46774432      -0.45485599      -0.30846060
C       -1.12969259       0.63598489       0.25789220
O       -1.41981868       1.72958058       0.59506915
C        0.80473686       0.24876594       0.73832245
C        1.32649224      -0.22200884      -0.45281394
O        0.81111456      -1.20881523      -1.10100223
H       -0.25821919      -1.19422216      -0.81246830
H       -2.44663130      -0.51107608      -0.55374847
H        0.40373941      -0.47050629       1.44366745
H        1.27167991       1.11920234       1.17827640
H        2.10434309       0.32795083      -0.98473411
11
Frame=3 idx=001620 GeodesicLength=0.3326692409067776 rxn_smarts="[N:1]([C:2](=[O:3])[C:4]([C:5](=[O:6])[H:11])([H:9])[H:10])([H:7])[H:8]>>[C:4](=[C:5]([O:6][H:7])[H:11])([H:9])[H:10].[N:1](=[C:2]=[O:3])[H:8]"
N       -1.47660662      -0.44855135      -0.31246232
C       -1.14403017       0.64183632       0.26003869
O       -1.43289547       1.74799021       0.55488446
C        0.81055328       0.24359383       0.74089087
C        1.34496975      -0.22575993      -0.44823738
O        0.82475624      -1.20280418      -1.10606601
H       -0.27523882      -1.17809052      -0.82569574
H       -2.46167774      -0.53628912      -0.51840423
H        0.40655369      -0.47963948       1.44067212
H        1.28983288       1.10053140       1.19465271
H        2.11378297       0.33718282      -0.98027315
11
Frame=4 idx=001620 GeodesicLength=0.44348222513243085 rxn_smarts="[N:1]([C:2](=[O:3])[C:4]([C:5](=[O:6])[H:11])([H:9])[H:10])([H:7])[H:8]>>[C:4](=[C:5]([O:6][H:7])[H:11])([H:9])[H:10].[N:1](=[C:2]=[O:3])[H:8]"
N       -1.48602423      -0.44148173      -0.31652330
C       -1.15886621       0.64862112       0.26182531
O       -1.44645919       1.76585171       0.51362995
C        0.81623724       0.23842174       0.74317196
C        1.36333920      -0.22928828      -0.44393744
O        0.83854496      -1.19624864      -1.11172957
H       -0.29287537      -1.16165884      -0.83824538
H       -2.47479293      -0.56223271      -0.48140478
H        0.40902537      -0.48891113       1.43703236
H        1.30809430       1.08075711       1.21137454
H        2.12377687       0.34616964      -0.97519366
11
Frame=5 idx=001620 GeodesicLength=0.5542842688463465 rxn_smarts="[N:1]([C:2](=[O:3])[C:4]([C:5](=[O:6])[H:11])([H:9])[H:10])([H:7])[H:8]>>[C:4](=[C:5]([O:6][H:7])[H:11])([H:9])[H:10].[N:1](=[C:2]=[O:3])[H:8]"
N       -1.49608689      -0.43402911      -0.31980401
C       -1.17418283       0.65636401       0.26333500
O       -1.46128076       1.78261577       0.47276906
C        0.82190456       0.23352846       0.74498181
C        1.38152957      -0.23263755      -0.44005661
O        0.85243851      -1.18950970      -1.11770703
H       -0.31127738      -1.14531958      -0.84949598
H       -2.48558533      -0.58789541      -0.44497266
H        0.41149682      -0.49793386       1.43286145
H        1.32660116       1.06026454       1.22792194
H        2.13444255       0.35455242      -0.96983297
11
Frame=6 idx=001620 GeodesicLength=0.665062789389034 rxn_smarts="[N:1]([C:2](=[O:3])[C:4]([C:5](=[O:6])[H:11])([H:9])[H:10])([H:7])[H:8]>>[C:4](=[C:5]([O:6][H:7])[H:11])([H:9])[H:10].[N:1](=[C:2]=[O:3])[H:8]"
N       -1.50670858      -0.42600188      -0.32287006
C       -1.18983549       0.66523948       0.26391161
O       -1.47740673       1.79847792       0.43245570
C        0.82752320       0.22883536       0.74634528
C        1.39971320      -0.23593441      -0.43644579
O        0.86672432      -1.18268056      -1.12393951
H       -0.33039348      -1.12914862      -0.85967838
H       -2.49417879      -0.61346004      -0.40811532
H        0.41369051      -0.50667595       1.42807211
H        1.34528049       1.03881723       1.24443021
H        2.14559134       0.36253145      -0.96416586
11
Frame=7 idx=001620 GeodesicLength=0.775824935485453 rxn_smarts="[N:1]([C:2](=[O:3])[C:4]([C:5](=[O:6])[H:11])([H:9])[H:10])([H:7])[H:8]>>[C:4](=[C:5]([O:6][H:7])[H:11])([H:9])[H:10].[N:1](=[C:2]=[O:3])[H:8]"
N       -1.51792696      -0.41791411      -0.32483745
C       -1.20586896       0.67499415       0.26403878
O       -1.49513877       1.81326704       0.39307927
C        0.83324816       0.22447589       0.74723262
C        1.41783554      -0.23908455      -0.43323339
O        0.88142422      -1.17594750      -1.13029315
H       -0.35029439      -1.11355546      -0.86822101
H       -2.50075752      -0.63795236      -0.37275278
H        0.41603574      -0.51504069       1.42282059
H        1.36426329       1.01662041       1.26067177
H        2.15717964       0.37013720      -0.95850525
11
Frame=8 idx=001620 GeodesicLength=0.8867899027515417 rxn_smarts="[N:1]([C:2](=[O:3])[C:4]([C:5](=[O:6])[H:11])([H:9])[H:10])([H:7])[H:8]>>[C:4](=[C:5]([O:6][H:7])[H:11])([H:9])[H:10].[N:1](=[C:2]=[O:3])[H:8]"
N       -1.52975473      -0.40970725      -0.32592071
C       -1.22227323       0.68569256       0.26357367
O       -1.51437207       1.82725698       0.35415438
C        0.83909062       0.22038275       0.74771840
C        1.43605367      -0.24202606      -0.43040706
O        0.89677866      -1.16923622      -1.13697532
H       -0.37098526      -1.09856899      -0.87531145
H       -2.50586115      -0.66164840      -0.33805027
H        0.41837071      -0.52316849       1.41704474
H        1.38352968       0.99346151       1.27692373
H        2.16942309       0.37756161      -0.95275011
11
Frame=9 idx=001620 GeodesicLength=0.9975053199500712 rxn_smarts="[N:1]([C:2](=[O:3])[C:4]([C:5](=[O:6])[H:11])([H:9])[H:10])([H:7])[H:8]>>[C:4](=[C:5]([O:6][H:7])[H:11])([H:9])[H:10].[N:1](=[C:2]=[O:3])[H:8]"
N       -1.54208058      -0.40049332      -0.32762760
C       -1.23879805       0.69788043       0.26116642
O       -1.53520282       1.84099029       0.31552870
C        0.84464749       0.21625403       0.74767470
C        1.45438988      -0.24496175      -0.42767447
O        0.91310893      -1.16248770      -1.14387250
H       -0.39247088      -1.08357712      -0.88200928
H       -2.50801750      -0.68572414      -0.30037115
H        0.41981486      -0.53128815       1.41019205
H        1.40244303       0.96866690       1.29331394
H        2.18216563       0.38474053      -0.94632082
11
Frame=10 idx=001620 GeodesicLength=1.108442236908759 rxn_smarts="[N:1]([C:2](=[O:3])[C:4]([C:5](=[O:6])[H:11])([H:9])[H:10])([H:7])[H:8]>>[C:4](=[C:5]([O:6][H:7])[H:11])([H:9])[H:10].[N:1](=[C:2]=[O:3])[H:8]"
N       -1.55502558      -0.39144090      -0.32806636
C       -1.25565425       0.71083906       0.25827066
O       -1.55761895       1.85399776       0.27727477
C        0.85043290       0.21232888       0.74729442
C        1.47289610      -0.24760519      -0.42532246
O        0.93042429      -1.15596576      -1.15092239
H       -0.41485924      -1.06952053      -0.88705232
H       -2.50882152      -0.70825301      -0.26397767
H        0.42143918      -0.53927655       1.40284907
H        1.42153777       0.94280052       1.30967540
H        2.19524930       0.39209571      -0.94002312
11
Frame=11 idx=001620 GeodesicLength=1.2193940381858592 rxn_smarts="[N:1]([C:2](=[O:3])[C:4]([C:5](=[O:6])[H:11])([H:9])[H:10])([H:7])[H:8]>>[C:4](=[C:5]([O:6][H:7])[H:11])([H:9])[H:10].[N:1](=[C:2]=[O:3])[H:8]"
N       -1.56851370      -0.38238283      -0.32749531
C       -1.27274792       0.72464944       0.25460622
O       -1.58153459       1.86641512       0.23905765
C        0.85639298       0.20846384       0.74658505
C        1.49161925      -0.24991892      -0.42327918
O        0.94893741      -1.14960669      -1.15812637
H       -0.43815848      -1.05635794      -0.89058568
H       -2.50824352      -0.72935281      -0.22796915
H        0.42309735      -0.54732148       1.39484391
H        1.44059903       0.91558787       1.32607740
H        2.20855218       0.39982439      -0.93371455
11
Frame=12 idx=001620 GeodesicLength=1.3303789587047403 rxn_smarts="[N:1]([C:2](=[O:3])[C:4]([C:5](=[O:6])[H:11])([H:9])[H:10])([H:7])[H:8]>>[C:4](=[C:5]([O:6][H:7])[H:11])([H:9])[H:10].[N:1](=[C:2]=[O:3])[H:8]"
N       -1.58254679      -0.37325560      -0.32600956
C       -1.29003198       0.73935841       0.25002010
O       -1.60690455       1.87833874       0.20063978
C        0.86252347       0.20455370       0.74557954
C        1.51064636      -0.25185142      -0.42151833
O        0.96887887      -1.14341139      -1.16551769
H       -0.46242564      -1.04413718      -0.89269058
H       -2.50636130      -0.74900415      -0.19182404
H        0.42470903      -0.55557916       1.38607409
H        1.45947618       0.88686745       1.34258438
H        2.22203634       0.40812060      -0.92733770
11
Frame=13 idx=001620 GeodesicLength=1.4413649050091448 rxn_smarts="[N:1]([C:2](=[O:3])[C:4]([C:5](=[O:6])[H:11])([H:9])[H:10])([H:7])[H:8]>>[C:4](=[C:5]([O:6][H:7])[H:11])([H:9])[H:10].[N:1](=[C:2]=[O:3])[H:8]"
N       -1.59711218      -0.36410430      -0.32348373
C       -1.30746583       0.75493424       0.24450751
O       -1.63367172       1.88974906       0.16181469
C        0.86886778       0.20050879       0.74431197
C        1.53004849      -0.25331260      -0.42004447
O        0.99045769      -1.13736653      -1.17312243
H       -0.48772174      -1.03301506      -0.89324560
H       -2.50342597      -0.76694708      -0.15551724
H        0.42632895      -0.56420045       1.37647690
H        1.47805641       0.85655274       1.35919220
H        2.23563813       0.41720118      -0.92088981
11
Frame=14 idx=001620 GeodesicLength=1.5523850208406043 rxn_smarts="[N:1]([C:2](=[O:3])[C:4]([C:5](=[O:6])[H:11])([H:9])[H:10])([H:7])[H:8]>>[C:4](=[C:5]([O:6][H:7])[H:11])([H:9])[H:10].[N:1](=[C:2]=[O:3])[H:8]"
N       -1.61222681      -0.35485384      -0.31995855
C       -1.32499874       0.77143308       0.23791426
O       -1.66181450       1.90068761       0.12236974
C        0.87541559       0.19620252       0.74280407
C        1.54991773      -0.25424579      -0.41883641
O        1.01393660      -1.13147569      -1.18097577
H       -0.51414272      -1.02300761      -0.89231942
H       -2.49947144      -0.78312597      -0.11855011
H        0.42789203      -0.57336920       1.36593222
H        1.49615630       0.82450849       1.37591880
H        2.24933597       0.42724640      -0.91429882
11
Frame=15 idx=001620 GeodesicLength=1.6634380821728472 rxn_smarts="[N:1]([C:2](=[O:3])[C:4]([C:5](=[O:6])[H:11])([H:9])[H:10])([H:7])[H:8]>>[C:4](=[C:5]([O:6][H:7])[H:11])([H:9])[H:10].[N:1](=[C:2]=[O:3])[H:8]"
N       -1.62791723      -0.34545803      -0.31541461
C       -1.34257507       0.78889482       0.23008724
O       -1.69127991       1.91116807       0.08205705
C        0.88215563       0.19148967       0.74107856
C        1.57034078      -0.25457645      -0.41787773
O        1.03957990      -1.12569954      -1.18914132
H       -0.54180392      -1.01417377      -0.88992565
H       -2.49453013      -0.79741673      -0.08046704
H        0.42935571      -0.58329582       1.35430775
H        1.51358426       0.79060148       1.39277253
H        2.26308998       0.43846630      -0.90747677
11
Frame=16 idx=001620 GeodesicLength=1.7745223001810877 rxn_smarts="[N:1]([C:2](=[O:3])[C:4]([C:5](=[O:6])[H:11])([H:9])[H:10])([H:7])[H:8]>>[C:4](=[C:5]([O:6][H:7])[H:11])([H:9])[H:10].[N:1](=[C:2]=[O:3])[H:8]"
N       -1.64420632      -0.33588925      -0.30975068
C       -1.36014664       0.80733644       0.22091237
O       -1.72205884       1.92114393       0.04068976
C        0.88908599       0.18622846       0.73913595
C        1.59140717      -0.25422271      -0.41716190
O        1.06767776      -1.11999917      -1.19767421
H       -0.57084089      -1.00659402      -0.88600188
H       -2.48869197      -0.80959739      -0.04098716
H        0.43073312      -0.59418907       1.34146457
H        1.53015015       0.75474269       1.40970559
H        2.27689047       0.45104009      -0.90033241
