12
Frame=0 idx=006786 GeodesicLength=0.0 rxn_smarts="[O:1]=[C:2]([C@@:3]1([H:9])[C:4]([H:10])([H:11])[N:5]1[C:6](=[O:7])[H:12])[H:8]>>[O:1]1[C@@:2]2([H:8])[C@@:3]([H:9])([C:4]1([H:10])[H:11])[N:5]=[C:6]([H:12])[O:7]2"
O        1.18901387       0.71822410      -1.42689673
C        1.11498461      -0.28409023      -0.70090538
C        0.54350171       0.15579276       0.61913581
C       -0.11448441       1.35468942       0.06593296
N       -0.62241280      -0.42599483       1.20906574
C       -1.20893393      -1.17096160       0.27043456
O       -0.74717701      -1.35618863      -0.87419373
H        1.62999466      -1.21054688      -0.95249065
H        1.32601507       0.36349530       1.35004641
H       -0.90788579       1.17492411      -0.64315742
H       -0.05672377       2.33997612       0.52132294
H       -2.14589224      -1.65931963       0.56170545
12
Frame=1 idx=006786 GeodesicLength=0.04931720485306002 rxn_smarts="[O:1]=[C:2]([C@@:3]1([H:9])[C:4]([H:10])([H:11])[N:5]1[C:6](=[O:7])[H:12])[H:8]>>[O:1]1[C@@:2]2([H:8])[C@@:3]([H:9])([C:4]1([H:10])[H:11])[N:5]=[C:6]([H:12])[O:7]2"
O        1.20671790       0.72009959      -1.41676805
C        1.10658244      -0.29054738      -0.69960264
C        0.54588683       0.15894664       0.62163439
C       -0.11406102       1.35718668       0.06484245
N       -0.64156939      -0.39762339       1.19283383
C       -1.20996340      -1.17086555       0.26758583
O       -0.75922986      -1.35110877      -0.88372327
H        1.61188873      -1.22058511      -0.95798938
H        1.32249118       0.36061657       1.35949171
H       -0.90810405       1.19761170      -0.64889741
H       -0.04652670       2.34184625       0.52050733
H       -2.11411265      -1.70557724       0.58008521
12
Frame=2 idx=006786 GeodesicLength=0.09854974334124744 rxn_smarts="[O:1]=[C:2]([C@@:3]1([H:9])[C:4]([H:10])([H:11])[N:5]1[C:6](=[O:7])[H:12])[H:8]>>[O:1]1[C@@:2]2([H:8])[C@@:3]([H:9])([C:4]1([H:10])[H:11])[N:5]=[C:6]([H:12])[O:7]2"
O        1.22425355       0.72135389      -1.40634556
C        1.09790815      -0.29700230      -0.69818924
C        0.54778366       0.16190784       0.62423152
C       -0.11391498       1.35957929       0.06361276
N       -0.66029272      -0.37026297       1.17578444
C       -1.21093936      -1.17105024       0.26479037
O       -0.77160982      -1.34635678      -0.89325537
H        1.59354835      -1.23044061      -0.96352000
H        1.31813285       0.35755279       1.36923530
H       -0.90829291       1.22053411      -0.65459418
H       -0.03665230       2.34347646       0.51974622
H       -2.07992448      -1.74929149       0.59850373
12
Frame=3 idx=006786 GeodesicLength=0.14786392602550208 rxn_smarts="[O:1]=[C:2]([C@@:3]1([H:9])[C:4]([H:10])([H:11])[N:5]1[C:6](=[O:7])[H:12])[H:8]>>[O:1]1[C@@:2]2([H:8])[C@@:3]([H:9])([C:4]1([H:10])[H:11])[N:5]=[C:6]([H:12])[O:7]2"
O        1.24210594       0.72174269      -1.39532399
C        1.08856237      -0.30361932      -0.69652049
C        0.54872993       0.16471770       0.62688768
C       -0.11361090       1.36227238       0.06202445
N       -0.67948562      -0.34312218       1.15746465
C       -1.21318489      -1.17013656       0.26129742
O       -0.78517118      -1.34095015      -0.90324474
H        1.57414573      -1.24047299      -0.96873305
H        1.31233779       0.35378322       1.37952513
H       -0.90783825       1.24466224      -0.66075258
H       -0.02637284       2.34507392       0.51900486
H       -2.04021807      -1.79395097       0.61837066
12
Frame=4 idx=006786 GeodesicLength=0.19715831461494396 rxn_smarts="[O:1]=[C:2]([C@@:3]1([H:9])[C:4]([H:10])([H:11])[N:5]1[C:6](=[O:7])[H:12])[H:8]>>[O:1]1[C@@:2]2([H:8])[C@@:3]([H:9])([C:4]1([H:10])[H:11])[N:5]=[C:6]([H:12])[O:7]2"
O        1.25962598       0.72136184      -1.38391038
C        1.07877736      -0.31030451      -0.69466288
C        0.54908885       0.16728600       0.62964161
C       -0.11356376       1.36485290       0.06028906
N       -0.69831901      -0.31686816       1.13836564
C       -1.21575660      -1.16906398       0.25774389
O       -0.79912937      -1.33573787      -0.91312103
H        1.55426490      -1.25039206      -0.97383346
H        1.30558459       0.34967627       1.39007243
H       -0.90725059       1.26916221      -0.66685696
H       -0.01623876       2.34635744       0.51824481
H       -1.99708361      -1.83633008       0.63802728
12
Frame=5 idx=006786 GeodesicLength=0.2464427351466904 rxn_smarts="[O:1]=[C:2]([C@@:3]1([H:9])[C:4]([H:10])([H:11])[N:5]1[C:6](=[O:7])[H:12])[H:8]>>[O:1]1[C@@:2]2([H:8])[C@@:3]([H:9])([C:4]1([H:10])[H:11])[N:5]=[C:6]([H:12])[O:7]2"
O        1.27671236       0.72051806      -1.37238749
C        1.06893308      -0.31690108      -0.69289869
C        0.54929242       0.16957047       0.63243697
C       -0.11398027       1.36700417       0.05849725
N       -0.71613547      -0.29208594       1.11884813
C       -1.21794175      -1.16867431       0.25445722
O       -0.81273539      -1.33169751      -0.92260025
H        1.53473834      -1.25983989      -0.97920038
H        1.29839422       0.34555879       1.40070208
H       -0.90687744       1.29330532      -0.67264600
H       -0.00709124       2.34703966       0.51781852
H       -1.95330888      -1.87379773       0.65697262
12
Frame=6 idx=006786 GeodesicLength=0.2957666472475245 rxn_smarts="[O:1]=[C:2]([C@@:3]1([H:9])[C:4]([H:10])([H:11])[N:5]1[C:6](=[O:7])[H:12])[H:8]>>[O:1]1[C@@:2]2([H:8])[C@@:3]([H:9])([C:4]1([H:10])[H:11])[N:5]=[C:6]([H:12])[O:7]2"
O        1.29327884       0.71903704      -1.36062248
C        1.05883728      -0.32345412      -0.69102744
C        0.54919343       0.17162957       0.63531868
C       -0.11473624       1.36883110       0.05660665
N       -0.73319680      -0.26840645       1.09886014
C       -1.22010851      -1.16837177       0.25131378
O       -0.82635075      -1.32823357      -0.93173737
H        1.51510254      -1.26892381      -0.98455190
H        1.29063376       0.34131842       1.41147578
H       -0.90656341       1.31740598      -0.67821077
H        0.00167491       2.34718855       0.51741152
H       -1.90776505      -1.90802095       0.67516341
12
Frame=7 idx=006786 GeodesicLength=0.3452947057010147 rxn_smarts="[O:1]=[C:2]([C@@:3]1([H:9])[C:4]([H:10])([H:11])[N:5]1[C:6](=[O:7])[H:12])[H:8]>>[O:1]1[C@@:2]2([H:8])[C@@:3]([H:9])([C:4]1([H:10])[H:11])[N:5]=[C:6]([H:12])[O:7]2"
O        1.30967008       0.71694275      -1.34862105
C        1.04848674      -0.33006535      -0.68916283
C        0.54865713       0.17347326       0.63823516
C       -0.11570149       1.37056945       0.05458622
N       -0.74984876      -0.24564954       1.07833989
C       -1.22268851      -1.16805643       0.24812768
O       -0.84010899      -1.32540472      -0.94069492
H        1.49531241      -1.27790024      -0.99001770
H        1.28205651       0.33683490       1.42244096
H       -0.90610233       1.34179932      -0.68360740
H        0.01007808       2.34708584       0.51722646
H       -1.85981087      -1.93962926       0.69314752
12
Frame=8 idx=006786 GeodesicLength=0.3950260565044712 rxn_smarts="[O:1]=[C:2]([C@@:3]1([H:9])[C:4]([H:10])([H:11])[N:5]1[C:6](=[O:7])[H:12])[H:8]>>[O:1]1[C@@:2]2([H:8])[C@@:3]([H:9])([C:4]1([H:10])[H:11])[N:5]=[C:6]([H:12])[O:7]2"
O        1.32563796       0.71421091      -1.33634850
C        1.03790160      -0.33667675      -0.68720158
C        0.54781385       0.17510766       0.64121704
C       -0.11696117       1.37203690       0.05245092
N       -0.76585400      -0.22386263       1.05741802
C       -1.22535351      -1.16781082       0.24510467
O       -0.85392171      -1.32311327      -0.94929492
H        1.47536260      -1.28660755      -0.99551626
H        1.27288567       0.33222286       1.43351620
H       -0.90564408       1.36621282      -0.68874173
H        0.01814607       2.34651053       0.51707455
H       -1.81001327      -1.96823065       0.71032159
12
Frame=9 idx=006786 GeodesicLength=0.4449571886861472 rxn_smarts="[O:1]=[C:2]([C@@:3]1([H:9])[C:4]([H:10])([H:11])[N:5]1[C:6](=[O:7])[H:12])[H:8]>>[O:1]1[C@@:2]2([H:8])[C@@:3]([H:9])([C:4]1([H:10])[H:11])[N:5]=[C:6]([H:12])[O:7]2"
O        1.34117743       0.71099847      -1.32394937
C        1.02722800      -0.34322967      -0.68528539
C        0.54681827       0.17652258       0.64420323
C       -0.11852555       1.37319060       0.05022228
N       -0.78103145      -0.20319324       1.03620800
C       -1.22796092      -1.16781200       0.24227655
O       -0.86747427      -1.32174057      -0.95745654
H        1.45560543      -1.29494120      -1.00116107
H        1.26328673       0.32752975       1.44461297
H       -0.90526870       1.39050864      -0.69349383
H        0.02563147       2.34543422       0.51711190
H       -1.75948643      -1.99326757       0.72671127
12
Frame=10 idx=006786 GeodesicLength=0.4951045925149397 rxn_smarts="[O:1]=[C:2]([C@@:3]1([H:9])[C:4]([H:10])([H:11])[N:5]1[C:6](=[O:7])[H:12])[H:8]>>[O:1]1[C@@:2]2([H:8])[C@@:3]([H:9])([C:4]1([H:10])[H:11])[N:5]=[C:6]([H:12])[O:7]2"
O        1.35636731       0.70737921      -1.31155635
C        1.01654234      -0.34973205      -0.68344432
C        0.54570531       0.17781026       0.64725920
C       -0.12035540       1.37414430       0.04793048
N       -0.79543795      -0.18360482       1.01490567
C       -1.23049035      -1.16820510       0.23979312
O       -0.88082327      -1.32132898      -0.96519613
H        1.43605077      -1.30299239      -1.00704948
H        1.25332847       0.32295195       1.45579059
H       -0.90494894       1.41471903      -0.69783779
H        0.03271635       2.34409504       0.51727697
H       -1.70865464      -2.01523647       0.74212803
12
Frame=11 idx=006786 GeodesicLength=0.5454127721220765 rxn_smarts="[O:1]=[C:2]([C@@:3]1([H:9])[C:4]([H:10])([H:11])[N:5]1[C:6](=[O:7])[H:12])[H:8]>>[O:1]1[C@@:2]2([H:8])[C@@:3]([H:9])([C:4]1([H:10])[H:11])[N:5]=[C:6]([H:12])[O:7]2"
O        1.37093367       0.70336447      -1.29901522
C        1.00587078      -0.35608452      -0.68162106
C        0.54463600       0.17886670       0.65023036
C       -0.12252653       1.37462192       0.04553533
N       -0.80874881      -0.16516119       0.99336952
C       -1.23259674      -1.16882161       0.23757324
O       -0.89361415      -1.32184547      -0.97229930
H        1.41690131      -1.31045704      -1.01300554
H        1.24321620       0.31830368       1.46676297
H       -0.90486785       1.43857889      -0.70163169
H        0.03909582       2.34200920       0.51755659
H       -1.65829971      -2.03337503       0.75654479
12
Frame=12 idx=006786 GeodesicLength=0.5958135480604221 rxn_smarts="[O:1]=[C:2]([C@@:3]1([H:9])[C:4]([H:10])([H:11])[N:5]1[C:6](=[O:7])[H:12])[H:8]>>[O:1]1[C@@:2]2([H:8])[C@@:3]([H:9])([C:4]1([H:10])[H:11])[N:5]=[C:6]([H:12])[O:7]2"
O        1.38506409       0.69912256      -1.28661863
C        0.99537769      -0.36229274      -0.67993620
C        0.54367071       0.17983076       0.65319947
C       -0.12496164       1.37484059       0.04309112
N       -0.82106376      -0.14786146       0.97188352
C       -1.23433252      -1.16988588       0.23575814
O       -0.90586735      -1.32351147      -0.97885446
H        1.39828899      -1.31749245      -1.01922657
H        1.23304536       0.31388207       1.47764676
H       -0.90497632       1.46219745      -0.70484562
H        0.04495331       2.33960491       0.51796963
H       -1.60919857      -2.04843433       0.76993283
12
Frame=13 idx=006786 GeodesicLength=0.6463744029329626 rxn_smarts="[O:1]=[C:2]([C@@:3]1([H:9])[C:4]([H:10])([H:11])[N:5]1[C:6](=[O:7])[H:12])[H:8]>>[O:1]1[C@@:2]2([H:8])[C@@:3]([H:9])([C:4]1([H:10])[H:11])[N:5]=[C:6]([H:12])[O:7]2"
O        1.39884863       0.69461340      -1.27427534
C        0.98499864      -0.36838537      -0.67835671
C        0.54273904       0.18071062       0.65614989
C       -0.12760423       1.37484653       0.04055140
N       -0.83253952      -0.13154014       0.95036296
C       -1.23582616      -1.17126599       0.23428560
O       -0.91772643      -1.32614136      -0.98491158
H        1.38006783      -1.32414856      -1.02567282
H        1.22271359       0.30959731       1.48846123
H       -0.90520173       1.48568046      -0.70752777
H        0.05039218       2.33689084       0.51848688
H       -1.56086183      -2.06085774       0.78244625
12
Frame=14 idx=006786 GeodesicLength=0.6971200557653269 rxn_smarts="[O:1]=[C:2]([C@@:3]1([H:9])[C:4]([H:10])([H:11])[N:5]1[C:6](=[O:7])[H:12])[H:8]>>[O:1]1[C@@:2]2([H:8])[C@@:3]([H:9])([C:4]1([H:10])[H:11])[N:5]=[C:6]([H:12])[O:7]2"
O        1.41222326       0.68981723      -1.26190839
C        0.97471229      -0.37435102      -0.67683624
C        0.54184745       0.18147371       0.65903040
C       -0.13044979       1.37459123       0.03788024
N       -0.84315828      -0.11613334       0.92872514
C       -1.23701691      -1.17283877       0.23310046
O       -0.92913915      -1.32961075      -0.99043396
H        1.36220772      -1.33037348      -1.03225807
H        1.21221469       0.30533753       1.49913257
H       -0.90556692       1.50903295      -0.70964692
H        0.05539640       2.33373991       0.51906384
H       -1.51327077      -2.07068522       0.79415093
12
Frame=15 idx=006786 GeodesicLength=0.7479411819127196 rxn_smarts="[O:1]=[C:2]([C@@:3]1([H:9])[C:4]([H:10])([H:11])[N:5]1[C:6](=[O:7])[H:12])[H:8]>>[O:1]1[C@@:2]2([H:8])[C@@:3]([H:9])([C:4]1([H:10])[H:11])[N:5]=[C:6]([H:12])[O:7]2"
O        1.42524657       0.68486317      -1.24967193
C        0.96463855      -0.38015713      -0.67544728
C        0.54108631       0.18219133       0.66185300
C       -0.13346849       1.37413263       0.03510488
N       -0.85289292      -0.10166320       0.90710974
C       -1.23784205      -1.17470961       0.23226391
O       -0.94002102      -1.33407626      -0.99542729
H        1.34486849      -1.33616765      -1.03907533
H        1.20169280       0.30127542       1.50965364
H       -0.90609849       1.53221880      -0.71114302
H        0.05999314       2.33029186       0.51972616
H       -1.46720288      -2.07819935       0.80505353
12
Frame=16 idx=006786 GeodesicLength=0.798824558387597 rxn_smarts="[O:1]=[C:2]([C@@:3]1([H:9])[C:4]([H:10])([H:11])[N:5]1[C:6](=[O:7])[H:12])[H:8]>>[O:1]1[C@@:2]2([H:8])[C@@:3]([H:9])([C:4]1([H:10])[H:11])[N:5]=[C:6]([H:12])[O:7]2"
O        1.43791972       0.67976210      -1.23754492
C        0.95477850      -0.38579801      -0.67417567
C        0.54046083       0.18286415       0.66459140
C       -0.13664158       1.37347165       0.03220458
N       -0.86176578      -0.08806770       0.88548915
C       -1.23829831      -1.17679819       0.23174181
O       -0.95035833      -1.33946436      -0.99988678
H        1.32804327      -1.34151905      -1.04608492
H        1.19115934       0.29737604       1.51998422
H       -0.90680330       1.55525030      -0.71199370
H        0.06420484       2.32652026       0.52044715
H       -1.42269919      -2.08359719       0.81522767
