11
Frame=0 idx=001318 GeodesicLength=0.0 rxn_smarts="[C:1]([C:2]([C:3]#[C:4][C:5]#[N:6])([H:10])[H:11])([H:7])([H:8])[H:9]>>[C:1]([C:2](=[C:3]=[C:4]=[C:5]=[N:6][H:10])[H:11])([H:7])([H:8])[H:9]"
C       -1.37514091      -0.61408392       0.39034024
C       -0.38378634       0.00573173      -0.57073194
C        0.85258951      -0.52581831      -0.78321320
C        2.10693867      -0.47446307      -0.61284032
C        2.20682256       0.64430207       0.13542572
N        1.73805387       1.58161445       0.68843236
H       -0.86690064      -1.09403754       1.22681302
H       -1.99806646      -1.36226529      -0.10420358
H       -2.03654115       0.15529249       0.79007646
H        0.56785546       1.12598882       0.24594551
H       -0.81182462       0.55773855      -1.40604425
11
Frame=1 idx=001318 GeodesicLength=0.12095267215818663 rxn_smarts="[C:1]([C:2]([C:3]#[C:4][C:5]#[N:6])([H:10])[H:11])([H:7])([H:8])[H:9]>>[C:1]([C:2](=[C:3]=[C:4]=[C:5]=[N:6][H:10])[H:11])([H:7])([H:8])[H:9]"
C       -1.38526737      -0.62095277       0.38747510
C       -0.39326178       0.01469672      -0.56339966
C        0.84124198      -0.52483882      -0.77910716
C        2.09480777      -0.47329168      -0.61194119
C        2.23676366       0.64609925       0.12773237
N        1.79268963       1.58525030       0.69907095
H       -0.87941242      -1.09266630       1.22999200
H       -1.99319802      -1.38064391      -0.10834966
H       -2.06477678       0.13700116       0.77869995
H        0.57738824       1.16727820       0.25184208
H       -0.82697491       0.54206785      -1.41201477
11
Frame=2 idx=001318 GeodesicLength=0.2418602292873408 rxn_smarts="[C:1]([C:2]([C:3]#[C:4][C:5]#[N:6])([H:10])[H:11])([H:7])([H:8])[H:9]>>[C:1]([C:2](=[C:3]=[C:4]=[C:5]=[N:6][H:10])[H:11])([H:7])([H:8])[H:9]"
C       -1.39572284      -0.62812487       0.38441639
C       -0.40319477       0.02381818      -0.55586173
C        0.82958749      -0.52350445      -0.77457227
C        2.08231151      -0.47129697      -0.61028599
C        2.26723162       0.64727939       0.12030390
N        1.84859285       1.58884311       0.70803513
H       -0.89254887      -1.09170313       1.23296707
H       -1.98826680      -1.39907711      -0.11281595
H       -2.09320709       0.11789893       0.76698067
H        0.58748700       1.20978680       0.25817404
H       -0.84227009       0.52608012      -1.41734125
11
Frame=3 idx=001318 GeodesicLength=0.36272619246122817 rxn_smarts="[C:1]([C:2]([C:3]#[C:4][C:5]#[N:6])([H:10])[H:11])([H:7])([H:8])[H:9]>>[C:1]([C:2](=[C:3]=[C:4]=[C:5]=[N:6][H:10])[H:11])([H:7])([H:8])[H:9]"
C       -1.40653495      -0.63565709       0.38114190
C       -0.41363055       0.03301200      -0.54813537
C        0.81762758      -0.52181032      -0.76958903
C        2.06944585      -0.46842764      -0.60782651
C        2.29821677       0.64761626       0.11342514
N        1.90589242       1.59271897       0.71487652
H       -0.90635109      -1.09125680       1.23569613
H       -1.98332431      -1.41758106      -0.11764069
H       -2.12182233       0.09793798       0.75490960
H        0.59813706       1.25348190       0.26506450
H       -0.85765645       0.50996579      -1.42192221
11
Frame=4 idx=001318 GeodesicLength=0.4835609820408766 rxn_smarts="[C:1]([C:2]([C:3]#[C:4][C:5]#[N:6])([H:10])[H:11])([H:7])([H:8])[H:9]>>[C:1]([C:2](=[C:3]=[C:4]=[C:5]=[N:6][H:10])[H:11])([H:7])([H:8])[H:9]"
C       -1.41773035      -0.64359486       0.37763977
C       -0.42461462       0.04218334      -0.54024630
C        0.80536908      -0.51976514      -0.76413085
C        2.05621022      -0.46463136      -0.60450642
C        2.32972808       0.64700295       0.10720319
N        1.96469641       1.59702137       0.71939979
H       -0.92085488      -1.09139057       1.23816943
H       -1.97841092      -1.43618541      -0.12283168
H       -2.15062010       0.07709598       0.74246304
H        0.60932025       1.29839546       0.27255814
H       -0.87309318       0.49386824      -1.42571812
11
Frame=5 idx=001318 GeodesicLength=0.6043469670667742 rxn_smarts="[C:1]([C:2]([C:3]#[C:4][C:5]#[N:6])([H:10])[H:11])([H:7])([H:8])[H:9]>>[C:1]([C:2](=[C:3]=[C:4]=[C:5]=[N:6][H:10])[H:11])([H:7])([H:8])[H:9]"
C       -1.42934392      -0.65198989       0.37388878
C       -0.43619360       0.05123755      -0.53219787
C        0.79281361      -0.51736271      -0.75815162
C        2.04258692      -0.45989746      -0.60013868
C        2.36179811       0.64542178       0.10159930
N        2.02513840       1.60186130       0.72141543
H       -0.93610693      -1.09218828       1.24034632
H       -1.97358168      -1.45490853      -0.12841745
H       -2.17959836       0.05533315       0.72961075
H        0.62103025       1.34455670       0.28072098
H       -0.88854281       0.47793638      -1.42867595
11
Frame=6 idx=001318 GeodesicLength=0.7251088348011041 rxn_smarts="[C:1]([C:2]([C:3]#[C:4][C:5]#[N:6])([H:10])[H:11])([H:7])([H:8])[H:9]>>[C:1]([C:2](=[C:3]=[C:4]=[C:5]=[N:6][H:10])[H:11])([H:7])([H:8])[H:9]"
C       -1.44140063      -0.66086993       0.36989444
C       -0.44841407       0.06008975      -0.52401934
C        0.77997251      -0.51461885      -0.75161138
C        2.02858274      -0.45411130      -0.59471131
C        2.39444930       0.64287359       0.09656511
N        2.08731034       1.60711349       0.72100922
H       -0.95213814      -1.09364155       1.24226972
H       -1.96884421      -1.47380641      -0.13436216
H       -2.20877915       0.03265303       0.71630809
H        0.63325713       1.39210874       0.28951821
H       -0.90399581       0.46220945      -1.43086059
11
Frame=7 idx=001318 GeodesicLength=0.8458211034610531 rxn_smarts="[C:1]([C:2]([C:3]#[C:4][C:5]#[N:6])([H:10])[H:11])([H:7])([H:8])[H:9]>>[C:1]([C:2](=[C:3]=[C:4]=[C:5]=[N:6][H:10])[H:11])([H:7])([H:8])[H:9]"
C       -1.45394191      -0.67028735       0.36563300
C       -0.46132580       0.06866936      -0.51569283
C        0.76684174      -0.51150797      -0.74444306
C        2.01416830      -0.44723147      -0.58799395
C        2.42772322       0.63936589       0.09201395
N        2.15138510       1.61280520       0.71799000
H       -0.96900705      -1.09582609       1.24389875
H       -1.96423794      -1.49290521      -0.14070448
H       -2.23818279       0.00900117       0.70251155
H        0.64601285       1.44113098       0.29904267
H       -0.91943573       0.44678550      -1.43225559
11
Frame=8 idx=001318 GeodesicLength=0.9666338761966242 rxn_smarts="[C:1]([C:2]([C:3]#[C:4][C:5]#[N:6])([H:10])[H:11])([H:7])([H:8])[H:9]>>[C:1]([C:2](=[C:3]=[C:4]=[C:5]=[N:6][H:10])[H:11])([H:7])([H:8])[H:9]"
C       -1.46702322      -0.68030811       0.36111648
C       -0.47497936       0.07695815      -0.50723222
C        0.75344644      -0.50805256      -0.73663779
C        1.99935762      -0.43927000      -0.57985897
C        2.46167881       0.63482868       0.08789783
N        2.21753261       1.61899614       0.71220143
H       -0.98680274      -1.09884719       1.24533750
H       -1.95973918      -1.51232904      -0.14748717
H       -2.26791856      -0.01563438       0.68820193
H        0.65929379       1.49183758       0.30944939
H       -0.93484621       0.43182072      -1.43298842
11
Frame=9 idx=001318 GeodesicLength=1.0871551479563546 rxn_smarts="[C:1]([C:2]([C:3]#[C:4][C:5]#[N:6])([H:10])[H:11])([H:7])([H:8])[H:9]>>[C:1]([C:2](=[C:3]=[C:4]=[C:5]=[N:6][H:10])[H:11])([H:7])([H:8])[H:9]"
C       -1.48056772      -0.69082935       0.35634011
C       -0.48946162       0.08480931      -0.49867786
C        0.73969228      -0.50413084      -0.72803054
C        1.98406364      -0.42937881      -0.57081566
C        2.49621644       0.62939075       0.08421505
N        2.28573015       1.62450226       0.70456544
H       -1.00538341      -1.10210631       1.24654239
H       -1.95521971      -1.53207394      -0.15433754
H       -2.29789212      -0.04132993       0.67309067
H        0.67320716       1.54443017       0.32019829
H       -0.95038507       0.41671671      -1.43309034
11
Frame=10 idx=001318 GeodesicLength=1.2077509141877905 rxn_smarts="[C:1]([C:2]([C:3]#[C:4][C:5]#[N:6])([H:10])[H:11])([H:7])([H:8])[H:9]>>[C:1]([C:2](=[C:3]=[C:4]=[C:5]=[N:6][H:10])[H:11])([H:7])([H:8])[H:9]"
C       -1.49470017      -0.70200175       0.35129978
C       -0.50481248       0.09225833      -0.49002727
C        0.72566303      -0.49980738      -0.71863185
C        1.96832020      -0.41795316      -0.56024592
C        2.53147670       0.62294535       0.08080504
N        2.35627628       1.62996969       0.69430391
H       -1.02496069      -1.10613611       1.24758676
H       -1.95077801      -1.55223682      -0.16154212
H       -2.32824102      -0.06807164       0.65733626
H        0.68770526       1.59914380       0.33184656
H       -0.96594908       0.40188969      -1.43273117
11
Frame=11 idx=001318 GeodesicLength=1.3283255851172246 rxn_smarts="[C:1]([C:2]([C:3]#[C:4][C:5]#[N:6])([H:10])[H:11])([H:7])([H:8])[H:9]>>[C:1]([C:2](=[C:3]=[C:4]=[C:5]=[N:6][H:10])[H:11])([H:7])([H:8])[H:9]"
C       -1.50947525      -0.71387561       0.34593230
C       -0.52110630       0.09927731      -0.48121812
C        0.71132134      -0.49498179      -0.70826876
C        1.95202865      -0.40480461      -0.54775270
C        2.56749868       0.61556776       0.07745418
N        2.42948643       1.63523672       0.68104390
H       -1.04564433      -1.11094433       1.24839200
H       -1.94639710      -1.57284795      -0.16916442
H       -2.35903208      -0.09599641       0.64077948
H        0.70285895       1.65609606       0.34469665
H       -0.98153899       0.38727284      -1.43189452
11
Frame=12 idx=001318 GeodesicLength=1.4492019451114915 rxn_smarts="[C:1]([C:2]([C:3]#[C:4][C:5]#[N:6])([H:10])[H:11])([H:7])([H:8])[H:9]>>[C:1]([C:2](=[C:3]=[C:4]=[C:5]=[N:6][H:10])[H:11])([H:7])([H:8])[H:9]"
C       -1.52485311      -0.72648190       0.34030873
C       -0.53850720       0.10594327      -0.47239831
C        0.69656664      -0.48961357      -0.69707954
C        1.93511015      -0.38940032      -0.53407808
C        2.60417208       0.60662710       0.07496012
N        2.50559206       1.63998222       0.66499895
H       -1.06735286      -1.11622726       1.24929907
H       -1.94172980      -1.59428876      -0.17696733
H       -2.39041054      -0.12520167       0.62325154
H        0.71880507       1.71592213       0.35866151
H       -0.99739249       0.37273877      -1.43095665
11
Frame=13 idx=001318 GeodesicLength=1.5693974186961543 rxn_smarts="[C:1]([C:2]([C:3]#[C:4][C:5]#[N:6])([H:10])[H:11])([H:7])([H:8])[H:9]>>[C:1]([C:2](=[C:3]=[C:4]=[C:5]=[N:6][H:10])[H:11])([H:7])([H:8])[H:9]"
C       -1.54114613      -0.73994914       0.33402556
C       -0.55693454       0.11205896      -0.46303104
C        0.68152316      -0.48338884      -0.68410308
C        1.91740913      -0.37198252      -0.51632357
C        2.64178172       0.59724269       0.07161856
N        2.58529348       1.64461719       0.64337196
H       -1.09077908      -1.12267064       1.24933817
H       -1.93731834      -1.61589714      -0.18570705
H       -2.42242228      -0.15602225       0.60443448
H        0.73551455       1.77763673       0.37544800
H       -1.01292167       0.35835496      -1.42907198
11
Frame=14 idx=001318 GeodesicLength=1.6899022818955896 rxn_smarts="[C:1]([C:2]([C:3]#[C:4][C:5]#[N:6])([H:10])[H:11])([H:7])([H:8])[H:9]>>[C:1]([C:2](=[C:3]=[C:4]=[C:5]=[N:6][H:10])[H:11])([H:7])([H:8])[H:9]"
C       -1.55815547      -0.75428810       0.32735479
C       -0.57666083       0.11774931      -0.45367826
C        0.66603069      -0.47644931      -0.66991364
C        1.89883384      -0.35166158      -0.49644444
C        2.68001091       0.58631400       0.06891526
N        2.66858257       1.64831024       0.61769532
H       -1.11547390      -1.12977336       1.24937187
H       -1.93261931      -1.63843742      -0.19477675
H       -2.45507921      -0.18831524       0.58438605
H        0.75319551       1.84276448       0.39442729
H       -1.02866480       0.34378698      -1.42733748
11
Frame=15 idx=001318 GeodesicLength=1.8101881431564983 rxn_smarts="[C:1]([C:2]([C:3]#[C:4][C:5]#[N:6])([H:10])[H:11])([H:7])([H:8])[H:9]>>[C:1]([C:2](=[C:3]=[C:4]=[C:5]=[N:6][H:10])[H:11])([H:7])([H:8])[H:9]"
C       -1.57612543      -0.76955194       0.32000190
C       -0.59767407       0.12289147      -0.44404615
C        0.65022696      -0.46860739      -0.65365281
C        1.87923120      -0.32844649      -0.47203705
C        2.71912864       0.57491116       0.06455113
N        2.75586532       1.65070248       0.58640240
H       -1.14209748      -1.13766428       1.24897990
H       -1.92769139      -1.66165402      -0.20455306
H       -2.48862846      -0.22231212       0.56251532
H        0.77186363       1.91086534       0.41726965
H       -1.04409890       0.32886580      -1.42543122
11
Frame=16 idx=001318 GeodesicLength=1.930505782733889 rxn_smarts="[C:1]([C:2]([C:3]#[C:4][C:5]#[N:6])([H:10])[H:11])([H:7])([H:8])[H:9]>>[C:1]([C:2](=[C:3]=[C:4]=[C:5]=[N:6][H:10])[H:11])([H:7])([H:8])[H:9]"
C       -1.59503217      -0.78574985       0.31198951
C       -0.62016162       0.12742793      -0.43445377
C        0.63404696      -0.45982515      -0.63515458
C        1.85834630      -0.30152891      -0.44298008
C        2.75906549       0.56324868       0.05744344
N        2.84727752       1.65061006       0.55043390
H       -1.17067582      -1.14592544       1.24845895
H       -1.92225930      -1.68589534      -0.21466186
H       -2.52309598      -0.25805364       0.53848988
H        0.79177095       1.98269901       0.44437180
H       -1.05928233       0.31299265      -1.42393720
