10
Frame=0 idx=002353 GeodesicLength=0.0 rxn_smarts="[O:1]([C@@:2]1([H:8])[C:3]([H:9])([H:10])[O:4][C:5]1=[O:6])[H:7]>>[C:3](=[O:4])([H:9])[H:10].[O:1]([C:2](=[C:5]=[O:6])[H:8])[H:7]"
O       -1.18829807      -1.65553840       0.21772902
C       -0.41630391      -0.60305574      -0.20504926
C        0.24039928       1.49541729       0.16104416
O        1.22596544       1.13671593      -0.52012158
C        0.91769311      -0.65656067       0.18652800
O        1.76117790      -1.03058539       0.88111499
H       -1.57404727      -2.10743049      -0.53622208
H       -0.65696938      -0.13990492      -1.14814130
H        0.26827351       1.49295858       1.25787556
H       -0.57789060       2.06798381      -0.29475752
10
Frame=1 idx=002353 GeodesicLength=0.05754536502660594 rxn_smarts="[O:1]([C@@:2]1([H:8])[C:3]([H:9])([H:10])[O:4][C:5]1=[O:6])[H:7]>>[C:3](=[O:4])([H:9])[H:10].[O:1]([C:2](=[C:5]=[O:6])[H:8])[H:7]"
O       -1.20840552      -1.60064745       0.24294854
C       -0.39720351      -0.60133456      -0.23312925
C        0.22314524       1.49061823       0.17015430
O        1.24108233       1.16094175      -0.48542646
C        0.93553709      -0.66233395       0.16735531
O        1.77634141      -1.06443060       0.85115767
H       -1.57825991      -2.10091427      -0.48811192
H       -0.62800244      -0.16024914      -1.18956546
H        0.22436592       1.48004329       1.26729294
H       -0.58860060       2.05830668      -0.30267566
10
Frame=2 idx=002353 GeodesicLength=0.115428300292335 rxn_smarts="[O:1]([C@@:2]1([H:8])[C:3]([H:9])([H:10])[O:4][C:5]1=[O:6])[H:7]>>[C:3](=[O:4])([H:9])[H:10].[O:1]([C:2](=[C:5]=[O:6])[H:8])[H:7]"
O       -1.22568205      -1.54591477       0.26432111
C       -0.37948710      -0.59949949      -0.25812480
C        0.20600949       1.48564718       0.17850282
O        1.25457318       1.18325453      -0.44957642
C        0.95249544      -0.66789069       0.14966657
O        1.79140009      -1.09891656       0.81977858
H       -1.58072715      -2.09229031      -0.44064008
H       -0.60079550      -0.18113970      -1.22739621
H        0.18056975       1.46811448       1.27525550
H       -0.59835615       2.04863533      -0.31178708
10
Frame=3 idx=002353 GeodesicLength=0.17339239789593497 rxn_smarts="[O:1]([C@@:2]1([H:8])[C:3]([H:9])([H:10])[O:4][C:5]1=[O:6])[H:7]>>[C:3](=[O:4])([H:9])[H:10].[O:1]([C:2](=[C:5]=[O:6])[H:8])[H:7]"
O       -1.24023171      -1.49221103       0.28218757
C       -0.36327611      -0.59731243      -0.28039679
C        0.18917143       1.48064100       0.18625674
O        1.26662331       1.20380218      -0.41263184
C        0.96843276      -0.67326772       0.13320016
O        1.80591779      -1.13363646       0.78712950
H       -1.58143949      -2.08230517      -0.39378764
H       -0.57556579      -0.20246208      -1.26198193
H        0.13707457       1.45734143       1.28194283
H       -0.60670677       2.03941028      -0.32191859
10
Frame=4 idx=002353 GeodesicLength=0.23155252299238874 rxn_smarts="[O:1]([C@@:2]1([H:8])[C:3]([H:9])([H:10])[O:4][C:5]1=[O:6])[H:7]>>[C:3](=[O:4])([H:9])[H:10].[O:1]([C:2](=[C:5]=[O:6])[H:8])[H:7]"
O       -1.25216817      -1.44016912       0.29726596
C       -0.34822678      -0.59485223      -0.30001508
C        0.17256007       1.47576806       0.19342061
O        1.27747876       1.22282021      -0.37427702
C        0.98366878      -0.67837311       0.11801490
O        1.82031789      -1.16870269       0.75275074
H       -1.58118156      -2.07040037      -0.34783631
H       -0.55205540      -0.22446970      -1.29343340
H        0.09333479       1.44780444       1.28735720
H       -0.61372840       2.03057451      -0.33324760
10
Frame=5 idx=002353 GeodesicLength=0.289776112713762 rxn_smarts="[O:1]([C@@:2]1([H:8])[C:3]([H:9])([H:10])[O:4][C:5]1=[O:6])[H:7]>>[C:3](=[O:4])([H:9])[H:10].[O:1]([C:2](=[C:5]=[O:6])[H:8])[H:7]"
O       -1.26216237      -1.38979751       0.30980342
C       -0.33454164      -0.59183491      -0.31747072
C        0.15637105       1.47114444       0.20015075
O        1.28733486       1.24037008      -0.33443358
C        0.99794067      -0.68329762       0.10382264
O        1.83404585      -1.20390085       0.71668383
H       -1.57903917      -2.05793383      -0.30240323
H       -0.53052142      -0.24689156      -1.32218748
H        0.04950694       1.43957301       1.29162538
H       -0.61893477       2.02256875      -0.34559102
10
Frame=6 idx=002353 GeodesicLength=0.3481727083674201 rxn_smarts="[O:1]([C@@:2]1([H:8])[C:3]([H:9])([H:10])[O:4][C:5]1=[O:6])[H:7]>>[C:3](=[O:4])([H:9])[H:10].[O:1]([C:2](=[C:5]=[O:6])[H:8])[H:7]"
O       -1.27039311      -1.34104057       0.32033669
C       -0.32189464      -0.58834894      -0.33307864
C        0.14050217       1.46680998       0.20651705
O        1.29633388       1.25660915      -0.29252941
C        1.01149406      -0.68800934       0.09046413
O        1.84725955      -1.23930623       0.67837615
H       -1.57535521      -2.04467303      -0.25716882
H       -0.51065975      -0.26991578      -1.34851908
H        0.00494326       1.43255409       1.29469724
H       -0.62223019       2.01532067      -0.35909531
10
Frame=7 idx=002353 GeodesicLength=0.40668872224006053 rxn_smarts="[O:1]([C@@:2]1([H:8])[C:3]([H:9])([H:10])[O:4][C:5]1=[O:6])[H:7]>>[C:3](=[O:4])([H:9])[H:10].[O:1]([C:2](=[C:5]=[O:6])[H:8])[H:7]"
O       -1.27695332      -1.29418749       0.32923373
C       -0.31017477      -0.58441736      -0.34706457
C        0.12496338       1.46276747       0.21257893
O        1.30449916       1.27155525      -0.24842389
C        1.02441984      -0.69254295       0.07789053
O        1.86004067      -1.27460364       0.63778227
H       -1.57042729      -2.03061804      -0.21220264
H       -0.49246919      -0.29361037      -1.37262248
H       -0.04044930       1.42677672       1.29655863
H       -0.62344917       2.00888040      -0.37373051
10
Frame=8 idx=002353 GeodesicLength=0.46514239136757446 rxn_smarts="[O:1]([C@@:2]1([H:8])[C:3]([H:9])([H:10])[O:4][C:5]1=[O:6])[H:7]>>[C:3](=[O:4])([H:9])[H:10].[O:1]([C:2](=[C:5]=[O:6])[H:8])[H:7]"
O       -1.28201884      -1.24929479       0.33675456
C       -0.29927618      -0.58006806      -0.35964177
C        0.10978015       1.45901591       0.21838887
O        1.31177578       1.28518161      -0.20194380
C        1.03673566      -0.69691547       0.06606148
O        1.87233157      -1.30949833       0.59476966
H       -1.56431296      -2.01587597      -0.16748444
H       -0.47589571      -0.31807498      -1.39463404
H       -0.08671419       1.42228649       1.29712582
H       -0.62240528       2.00324360      -0.38939632
10
Frame=9 idx=002353 GeodesicLength=0.523598758390185 rxn_smarts="[O:1]([C@@:2]1([H:8])[C:3]([H:9])([H:10])[O:4][C:5]1=[O:6])[H:7]>>[C:3](=[O:4])([H:9])[H:10].[O:1]([C:2](=[C:5]=[O:6])[H:8])[H:7]"
O       -1.28604577      -1.20617131       0.34299865
C       -0.28928627      -0.57517997      -0.37108241
C        0.09503309       1.45558706       0.22399779
O        1.31825287       1.29738403      -0.15260525
C        1.04837574      -0.70122603       0.05462520
O        1.88386859      -1.34381953       0.54918666
H       -1.55630166      -2.00107361      -0.12247728
H       -0.46113214      -0.34315519      -1.41475164
H       -0.13414285       1.41905010       1.29626430
H       -0.61862160       1.99860444      -0.40615603
10
Frame=10 idx=002353 GeodesicLength=0.5820689617649247 rxn_smarts="[O:1]([C@@:2]1([H:8])[C:3]([H:9])([H:10])[O:4][C:5]1=[O:6])[H:7]>>[C:3](=[O:4])([H:9])[H:10].[O:1]([C:2](=[C:5]=[O:6])[H:8])[H:7]"
O       -1.28857345      -1.16495830       0.34862038
C       -0.27979216      -0.57004859      -0.38150734
C        0.08055306       1.45234576       0.22945264
O        1.32364947       1.30810248      -0.10001192
C        1.05973054      -0.70540010       0.04355957
O        1.89511795      -1.37723026       0.50065052
H       -1.54760171      -1.98524720      -0.07749001
H       -0.44792090      -0.36928411      -1.43301537
H       -0.18313165       1.41706307       1.29378577
H       -0.61203115       1.99465724      -0.42404424
10
Frame=11 idx=002353 GeodesicLength=0.6404807657283106 rxn_smarts="[O:1]([C@@:2]1([H:8])[C:3]([H:9])([H:10])[O:4][C:5]1=[O:6])[H:7]>>[C:3](=[O:4])([H:9])[H:10].[O:1]([C:2](=[C:5]=[O:6])[H:8])[H:7]"
O       -1.29025243      -1.12550391       0.35342926
C       -0.27109381      -0.56447392      -0.39116994
C        0.06653766       1.44932443       0.23476790
O        1.32796947       1.31706621      -0.04376302
C        1.07052708      -0.70959308       0.03243297
O        1.90564665      -1.40931444       0.44933539
H       -1.53698078      -1.96938872      -0.03189661
H       -0.43670854      -0.39612798      -1.44956237
H       -0.23369616       1.41632141       1.28943517
H       -0.60194914       1.99169000      -0.44300875
10
Frame=12 idx=002353 GeodesicLength=0.6988467559525784 rxn_smarts="[O:1]([C@@:2]1([H:8])[C:3]([H:9])([H:10])[O:4][C:5]1=[O:6])[H:7]>>[C:3](=[O:4])([H:9])[H:10].[O:1]([C:2](=[C:5]=[O:6])[H:8])[H:7]"
O       -1.29059873      -1.08796683       0.35802445
C       -0.26290608      -0.55869020      -0.40019802
C        0.05288865       1.44640215       0.23998831
O        1.33081792       1.32406938       0.01643493
C        1.08112672      -0.71371711       0.02096272
O        1.91572942      -1.43964768       0.39520425
H       -1.52537398      -1.95280520       0.01397641
H       -0.42746517      -0.42401656      -1.46440961
H       -0.28603734       1.41689804       1.28295342
H       -0.58818141       1.98947402      -0.46293685
10
Frame=13 idx=002353 GeodesicLength=0.7570713880289223 rxn_smarts="[O:1]([C@@:2]1([H:8])[C:3]([H:9])([H:10])[O:4][C:5]1=[O:6])[H:7]>>[C:3](=[O:4])([H:9])[H:10].[O:1]([C:2](=[C:5]=[O:6])[H:8])[H:7]"
O       -1.29017301      -1.05208090       0.36205822
C       -0.25544351      -0.55259487      -0.40897177
C        0.03977949       1.44352543       0.24515453
O        1.33194168       1.32871981       0.08066103
C        1.09129923      -0.71784947       0.00866291
O        1.92504895      -1.46767772       0.33885074
H       -1.51179106      -1.93608870       0.06075356
H       -0.42049447      -0.45273778      -1.47782234
H       -0.33987180       1.41872522       1.27410372
H       -0.57029550       1.98805897      -0.48345060
10
Frame=14 idx=002353 GeodesicLength=0.8152379368754421 rxn_smarts="[O:1]([C@@:2]1([H:8])[C:3]([H:9])([H:10])[O:4][C:5]1=[O:6])[H:7]>>[C:3](=[O:4])([H:9])[H:10].[O:1]([C:2](=[C:5]=[O:6])[H:8])[H:7]"
O       -1.28859653      -1.01811740       0.36629162
C       -0.24866806      -0.54631491      -0.41741881
C        0.02715615       1.44067738       0.25022020
O        1.33090164       1.33059710       0.14981532
C        1.10123604      -0.72185779      -0.00478493
O        1.93401822      -1.49310193       0.27975395
H       -1.49664102      -1.91891329       0.10824003
H       -0.41612886      -0.48239789      -1.48957419
H       -0.39580321       1.42202844       1.26225306
H       -0.54747437       1.98740030      -0.50479626
10
Frame=15 idx=002353 GeodesicLength=0.8735025634975775 rxn_smarts="[O:1]([C@@:2]1([H:8])[C:3]([H:9])([H:10])[O:4][C:5]1=[O:6])[H:7]>>[C:3](=[O:4])([H:9])[H:10].[O:1]([C:2](=[C:5]=[O:6])[H:8])[H:7]"
O       -1.28557875      -0.98612600       0.37129432
C       -0.24260594      -0.53993018      -0.42565004
C        0.01495794       1.43782489       0.25519643
O        1.32697661       1.32904584       0.22496084
C        1.11106402      -0.72553520      -0.01995069
O        1.94276019      -1.51559525       0.21745474
H       -1.47979932      -1.90126793       0.15673293
H       -0.41477012      -0.51304754      -1.49960185
H       -0.45443515       1.42715287       1.24664588
H       -0.51856948       1.98747849      -0.52708256
10
Frame=16 idx=002353 GeodesicLength=0.9318462972222843 rxn_smarts="[O:1]([C@@:2]1([H:8])[C:3]([H:9])([H:10])[O:4][C:5]1=[O:6])[H:7]>>[C:3](=[O:4])([H:9])[H:10].[O:1]([C:2](=[C:5]=[O:6])[H:8])[H:7]"
O       -1.28067823      -0.95625480       0.37777539
C       -0.23734604      -0.53352277      -0.43376533
C        0.00323256       1.43490276       0.26007375
O        1.31922430       1.32325478       0.30659971
C        1.12091129      -0.72855441      -0.03763452
O        1.95135335      -1.53450919       0.15225880
H       -1.46129404      -1.88308616       0.20602517
H       -0.41698497      -0.54469555      -1.50779160
H       -0.51582286       1.43437979       1.22647774
H       -0.48259535       1.98808556      -0.55001911
