13
Frame=0 idx=008951 GeodesicLength=0.0 rxn_smarts="[O:1]=[C:2]1[C:3]([H:8])([H:9])[C:4]2([C:5]([H:10])([H:11])[O:6]2)[C:7]1([H:12])[H:13]>>[O:1]([C:2]1=[C:7]([H:12])[C@@:4]2([C:3]1([H:8])[H:9])[C:5]([H:10])([H:11])[O:6]2)[H:13]"
O       -2.53831503      -0.89588622       0.33516071
C       -1.47043973      -0.34976283      -0.11678008
C       -0.76868446       0.97725601       0.07345806
C        0.50873135       0.15302919      -0.20389179
C        1.85362874       0.32032219       0.32067472
O        1.53729916       0.61419435      -1.04189522
C       -0.31858279      -1.06666837      -0.47857776
H       -0.88781261       1.45886746       1.04274498
H       -0.96855079       1.67817792      -0.73735333
H        2.09461220       1.18270736       0.93559177
H        2.48015959      -0.55435491       0.46991842
H       -0.14942839      -1.95668206      -1.06766921
H       -1.37261730      -1.56120008       0.46861875
13
Frame=1 idx=008951 GeodesicLength=0.05956165228326355 rxn_smarts="[O:1]=[C:2]1[C:3]([H:8])([H:9])[C:4]2([C:5]([H:10])([H:11])[O:6]2)[C:7]1([H:12])[H:13]>>[O:1]([C:2]1=[C:7]([H:12])[C@@:4]2([C:3]1([H:8])[H:9])[C:5]([H:10])([H:11])[O:6]2)[H:13]"
O       -2.53486553      -0.89520624       0.34161467
C       -1.47245345      -0.34678715      -0.11798021
C       -0.76782099       0.97885500       0.07008874
C        0.50862088       0.15282714      -0.20316853
C        1.85293481       0.32042532       0.32272953
O        1.53919518       0.60933593      -1.04133587
C       -0.31859534      -1.06915608      -0.47094481
H       -0.88583339       1.46284301       1.03842399
H       -0.96812085       1.67893353      -0.74142076
H        2.09410875       1.18507162       0.93444630
H        2.47834788      -0.55426441       0.47667016
H       -0.15387748      -1.94299561      -1.08533422
H       -1.37164044      -1.57988206       0.47621102
13
Frame=2 idx=008951 GeodesicLength=0.11907176609629541 rxn_smarts="[O:1]=[C:2]1[C:3]([H:8])([H:9])[C:4]2([C:5]([H:10])([H:11])[O:6]2)[C:7]1([H:12])[H:13]>>[O:1]([C:2]1=[C:7]([H:12])[C@@:4]2([C:3]1([H:8])[H:9])[C:5]([H:10])([H:11])[O:6]2)[H:13]"
O       -2.53084305      -0.89459734       0.34890135
C       -1.47463679      -0.34357835      -0.11962942
C       -0.76699603       0.98057539       0.06654687
C        0.50840865       0.15267153      -0.20260421
C        1.85208968       0.32038878       0.32481544
O        1.54112199       0.60458688      -1.04071150
C       -0.31884447      -1.07142595      -0.46385804
H       -0.88388822       1.46686048       1.03396308
H       -0.96762729       1.67992783      -0.74558381
H        2.09346826       1.18715812       0.93349688
H        2.47626631      -0.55438516       0.48338216
H       -0.15816775      -1.92906262      -1.10210127
H       -1.37035129      -1.59911959       0.48338246
13
Frame=3 idx=008951 GeodesicLength=0.17855272981158576 rxn_smarts="[O:1]=[C:2]1[C:3]([H:8])([H:9])[C:4]2([C:5]([H:10])([H:11])[O:6]2)[C:7]1([H:12])[H:13]>>[O:1]([C:2]1=[C:7]([H:12])[C@@:4]2([C:3]1([H:8])[H:9])[C:5]([H:10])([H:11])[O:6]2)[H:13]"
O       -2.52622081      -0.89404918       0.35702806
C       -1.47700019      -0.34011755      -0.12172552
C       -0.76620968       0.98243034       0.06283548
C        0.50809174       0.15256942      -0.20218763
C        1.85109200       0.32021973       0.32693655
O        1.54307556       0.59993537      -1.04002241
C       -0.31933689      -1.07347351      -0.45728594
H       -0.88197703       1.47093793       1.02936382
H       -0.96706294       1.68117296      -0.74984242
H        2.09269708       1.18898436       0.93273359
H        2.47391169      -0.55470987       0.49006848
H       -0.16231083      -1.91494783      -1.11801109
H       -1.36874969      -1.61895216       0.49010903
13
Frame=4 idx=008951 GeodesicLength=0.23802338362238495 rxn_smarts="[O:1]=[C:2]1[C:3]([H:8])([H:9])[C:4]2([C:5]([H:10])([H:11])[O:6]2)[C:7]1([H:12])[H:13]>>[O:1]([C:2]1=[C:7]([H:12])[C@@:4]2([C:3]1([H:8])[H:9])[C:5]([H:10])([H:11])[O:6]2)[H:13]"
O       -2.52092759      -0.89355054       0.36600028
C       -1.47955988      -0.33638447      -0.12425611
C       -0.76546263       0.98443509       0.05895678
C        0.50766435       0.15252632      -0.20190501
C        1.84993631       0.31992381       0.32909782
O        1.54504778       0.59536289      -1.03926782
C       -0.32008340      -1.07529574      -0.45118644
H       -0.88009705       1.47510163       1.02462410
H       -0.96642101       1.68267877      -0.75420158
H        2.09179830       1.19056783       0.93214365
H        2.47127531      -0.55523287       0.49674447
H       -0.16632603      -1.90069542      -1.13309614
H       -1.36684447      -1.63943731       0.49634600
13
Frame=5 idx=008951 GeodesicLength=0.29749884709783897 rxn_smarts="[O:1]=[C:2]1[C:3]([H:8])([H:9])[C:4]2([C:5]([H:10])([H:11])[O:6]2)[C:7]1([H:12])[H:13]>>[O:1]([C:2]1=[C:7]([H:12])[C@@:4]2([C:3]1([H:8])[H:9])[C:5]([H:10])([H:11])[O:6]2)[H:13]"
O       -2.51492367      -0.89309228       0.37583129
C       -1.48232589      -0.33236268      -0.12720949
C       -0.76475391       0.98660186       0.05491128
C        0.50712318       0.15254627      -0.20174374
C        1.84862084       0.31950782       0.33130535
O        1.54703379       0.59085291      -1.03844718
C       -0.32109132      -1.07689305      -0.44551628
H       -0.87824577       1.47937529       1.01973923
H       -0.96569487       1.68445046      -0.75866879
H        2.09077769       1.19192715       0.93171640
H        2.46835392      -0.55594642       0.50342868
H       -0.17022998      -1.88634278      -1.14740722
H       -1.36464400      -1.66062455       0.50206046
13
Frame=6 idx=008951 GeodesicLength=0.3569943731901588 rxn_smarts="[O:1]=[C:2]1[C:3]([H:8])([H:9])[C:4]2([C:5]([H:10])([H:11])[O:6]2)[C:7]1([H:12])[H:13]>>[O:1]([C:2]1=[C:7]([H:12])[C@@:4]2([C:3]1([H:8])[H:9])[C:5]([H:10])([H:11])[O:6]2)[H:13]"
O       -2.50816110      -0.89266920       0.38651103
C       -1.48530660      -0.32803598      -0.13056308
C       -0.76408233       0.98894325       0.05070139
C        0.50646446       0.15263380      -0.20169169
C        1.84714329       0.31897769       0.33356304
O        1.54902696       0.58638927      -1.03756060
C       -0.32236988      -1.07826356      -0.44023531
H       -0.87641819       1.48378445       1.01470596
H       -0.96487992       1.68649133      -0.76325015
H        2.08964103       1.19307863       0.93143990
H        2.46514355      -0.55684353       0.51013536
H       -0.17404349      -1.87192094      -1.16097827
H       -1.36215778      -1.68256521       0.50722241
13
Frame=7 idx=008951 GeodesicLength=0.4165125848562301 rxn_smarts="[O:1]=[C:2]1[C:3]([H:8])([H:9])[C:4]2([C:5]([H:10])([H:11])[O:6]2)[C:7]1([H:12])[H:13]>>[O:1]([C:2]1=[C:7]([H:12])[C@@:4]2([C:3]1([H:8])[H:9])[C:5]([H:10])([H:11])[O:6]2)[H:13]"
O       -2.50056031      -0.89227895       0.39803864
C       -1.48851349      -0.32338797      -0.13428155
C       -0.76344690       0.99147309       0.04632716
C        0.50568309       0.15279147      -0.20173409
C        1.84549939       0.31833850       0.33587696
O        1.55101983       0.58194971      -1.03660616
C       -0.32393105      -1.07940784      -0.43529224
H       -0.87460749       1.48836407       1.00951429
H       -0.96397323       1.68879876      -0.76796026
H        2.08839296       1.19403951       0.93130072
H        2.46163630      -0.55791809       0.51688380
H       -0.17779313      -1.85744038      -1.17384818
H       -1.35940596      -1.70532189       0.51178092
13
Frame=8 idx=008951 GeodesicLength=0.4760738332260512 rxn_smarts="[O:1]=[C:2]1[C:3]([H:8])([H:9])[C:4]2([C:5]([H:10])([H:11])[O:6]2)[C:7]1([H:12])[H:13]>>[O:1]([C:2]1=[C:7]([H:12])[C@@:4]2([C:3]1([H:8])[H:9])[C:5]([H:10])([H:11])[O:6]2)[H:13]"
O       -2.49209683      -0.89192761       0.41038783
C       -1.49195038      -0.31840230      -0.13833841
C       -0.76284370       0.99420320       0.04179234
C        0.50477628       0.15302248      -0.20185959
C        1.84368846       0.31759630       0.33824807
O        1.55300443       0.57751731      -1.03558514
C       -0.32578192      -1.08032681      -0.43064283
H       -0.87280665       1.49313772       1.00416287
H       -0.96296886       1.69137489      -0.77280367
H        2.08704128       1.19482557       0.93128384
H        2.45783058      -0.55916273       0.52368439
H       -0.18149692      -1.84292010      -1.18604096
H       -1.35639575      -1.72893792       0.51571126
13
Frame=9 idx=008951 GeodesicLength=0.5356494191643315 rxn_smarts="[O:1]=[C:2]1[C:3]([H:8])([H:9])[C:4]2([C:5]([H:10])([H:11])[O:6]2)[C:7]1([H:12])[H:13]>>[O:1]([C:2]1=[C:7]([H:12])[C@@:4]2([C:3]1([H:8])[H:9])[C:5]([H:10])([H:11])[O:6]2)[H:13]"
O       -2.48253262      -0.89162026       0.42353107
C       -1.49564736      -0.31305624      -0.14263350
C       -0.76227586       0.99715758       0.03709698
C        0.50372822       0.15333110      -0.20204854
C        1.84169689       0.31675142       0.34068607
O        1.55496416       0.57306099      -1.03449233
C       -0.32795320      -1.08101390      -0.42622616
H       -0.87099564       1.49817786       0.99862728
H       -0.96187987       1.69420273      -0.77781345
H        2.08558585       1.19544932       0.93137472
H        2.45370304      -0.56057778       0.53056261
H       -0.18520593      -1.82834704      -1.19755924
H       -1.35318767      -1.75351578       0.51889450
13
Frame=10 idx=008951 GeodesicLength=0.5952322839571142 rxn_smarts="[O:1]=[C:2]1[C:3]([H:8])([H:9])[C:4]2([C:5]([H:10])([H:11])[O:6]2)[C:7]1([H:12])[H:13]>>[O:1]([C:2]1=[C:7]([H:12])[C@@:4]2([C:3]1([H:8])[H:9])[C:5]([H:10])([H:11])[O:6]2)[H:13]"
O       -2.47190832      -0.89137103       0.43744105
C       -1.49959812      -0.30734240      -0.14715238
C       -0.76173584       1.00033926       0.03224681
C        0.50254340       0.15371746      -0.20229168
C        1.83953082       0.31581380       0.34318864
O        1.55689485       0.56856574      -1.03333219
C       -0.33043804      -1.08147839      -0.42199429
H       -0.86917137       1.50348783       0.99291232
H       -0.96069707       1.69728079      -0.78298736
H        2.08403968       1.19593101       0.93155630
H        2.44926190      -0.56214894       0.53752593
H       -0.18893243      -1.81373853      -1.20843250
H       -1.34978946      -1.77905659       0.52131935
13
Frame=11 idx=008951 GeodesicLength=0.6548123369344521 rxn_smarts="[O:1]=[C:2]1[C:3]([H:8])([H:9])[C:4]2([C:5]([H:10])([H:11])[O:6]2)[C:7]1([H:12])[H:13]>>[O:1]([C:2]1=[C:7]([H:12])[C@@:4]2([C:3]1([H:8])[H:9])[C:5]([H:10])([H:11])[O:6]2)[H:13]"
O       -2.46018113      -0.89119428       0.45207015
C       -1.50380506      -0.30125164      -0.15183950
C       -0.76121941       1.00375633       0.02724745
C        0.50121980       0.15418241      -0.20257728
C        1.83719141       0.31478954       0.34575622
O        1.55878841       0.56401351      -1.03210646
C       -0.33324213      -1.08172403      -0.41789903
H       -0.86732260       1.50909458       0.98701425
H       -0.95942291       1.70059731      -0.78833452
H        2.08241089       1.19628572       0.93181222
H        2.44450838      -0.56386645       0.54458518
H       -0.19270177      -1.79909959      -1.21867431
H       -1.34622387      -1.80558340       0.52294563
13
Frame=12 idx=008951 GeodesicLength=0.7143783523100554 rxn_smarts="[O:1]=[C:2]1[C:3]([H:8])([H:9])[C:4]2([C:5]([H:10])([H:11])[O:6]2)[C:7]1([H:12])[H:13]>>[O:1]([C:2]1=[C:7]([H:12])[C@@:4]2([C:3]1([H:8])[H:9])[C:5]([H:10])([H:11])[O:6]2)[H:13]"
O       -2.44730381      -0.89110962       0.46735109
C       -1.50827230      -0.29477585      -0.15663639
C       -0.76072188       1.00741524       0.02210769
C        0.49975609       0.15472656      -0.20289367
C        1.83468146       0.31368623       0.34838671
O        1.56063557       0.55938538      -1.03081908
C       -0.33636781      -1.08175674      -0.41388790
H       -0.86543840       1.51501975       0.98093374
H       -0.95806083       1.70414018      -0.79385981
H        2.08071024       1.19653055       0.93212278
H        2.43944444      -0.56571889       0.55174893
H       -0.19654172      -1.78443714      -1.22828789
H       -1.34252104      -1.83310567       0.52373381
13
Frame=13 idx=008951 GeodesicLength=0.7739327203205059 rxn_smarts="[O:1]=[C:2]1[C:3]([H:8])([H:9])[C:4]2([C:5]([H:10])([H:11])[O:6]2)[C:7]1([H:12])[H:13]>>[O:1]([C:2]1=[C:7]([H:12])[C@@:4]2([C:3]1([H:8])[H:9])[C:5]([H:10])([H:11])[O:6]2)[H:13]"
O       -2.43326102      -0.89113841       0.48318295
C       -1.51299748      -0.28791169      -0.16147829
C       -0.76023825       1.01131895       0.01684069
C        0.49815277       0.15534986      -0.20323052
C        1.83200693       0.31251149       0.35107490
O        1.56242619       0.55466710      -1.02947635
C       -0.33981577      -1.08158273      -0.40991391
H       -0.86350661       1.52127981       0.97467753
H       -0.95661780       1.70789497      -0.79956227
H        2.07895128       1.19668072       0.93246793
H        2.43407783      -0.56769431       0.55901942
H       -0.20047532      -1.76976285      -1.23727311
H       -1.33870275      -1.86161291       0.52367103
13
Frame=14 idx=008951 GeodesicLength=0.8334711299580815 rxn_smarts="[O:1]=[C:2]1[C:3]([H:8])([H:9])[C:4]2([C:5]([H:10])([H:11])[O:6]2)[C:7]1([H:12])[H:13]>>[O:1]([C:2]1=[C:7]([H:12])[C@@:4]2([C:3]1([H:8])[H:9])[C:5]([H:10])([H:11])[O:6]2)[H:13]"
O       -2.41809978      -0.89130484       0.49943608
C       -1.51796894      -0.28066177      -0.16632187
C       -0.75976026       1.01546291       0.01146677
C        0.49641479       0.15605088      -0.20357989
C        1.82917799       0.31127630       0.35380774
O        1.56414912       0.54985000      -1.02808791
C       -0.34357549      -1.08121336      -0.40593304
H       -0.86151682       1.52786593       0.96826776
H       -0.95509477       1.71185293      -0.80542145
H        2.07714925       1.19675417       0.93282118
H        2.42842520      -0.56977492       0.56638494
H       -0.20450886      -1.75510360      -1.24561973
H       -1.33479142      -1.89105463       0.52277942
13
Frame=15 idx=008951 GeodesicLength=0.8929839646585107 rxn_smarts="[O:1]=[C:2]1[C:3]([H:8])([H:9])[C:4]2([C:5]([H:10])([H:11])[O:6]2)[C:7]1([H:12])[H:13]>>[O:1]([C:2]1=[C:7]([H:12])[C@@:4]2([C:3]1([H:8])[H:9])[C:5]([H:10])([H:11])[O:6]2)[H:13]"
O       -2.40181150      -0.89163211       0.51594255
C       -1.52318771      -0.27302960      -0.17110000
C       -0.75928434       1.01984197       0.00600984
C        0.49454377       0.15682644      -0.20393206
C        1.82620589       0.30999026       0.35657283
O        1.56579015       0.54491988      -1.02666731
C       -0.34764151      -1.08066142      -0.40189179
H       -0.85945981       1.53477284       0.96172736
H       -0.95350322       1.71599915      -0.81141948
H        2.07532261       1.19676818       0.93315432
H        2.42250236      -0.57194439       0.57383956
H       -0.20866621      -1.74048031      -1.25330678
H       -1.33081048      -1.92137088       0.52107096
13
Frame=16 idx=008951 GeodesicLength=0.9524855070388446 rxn_smarts="[O:1]=[C:2]1[C:3]([H:8])([H:9])[C:4]2([C:5]([H:10])([H:11])[O:6]2)[C:7]1([H:12])[H:13]>>[O:1]([C:2]1=[C:7]([H:12])[C@@:4]2([C:3]1([H:8])[H:9])[C:5]([H:10])([H:11])[O:6]2)[H:13]"
O       -2.38451685      -0.89214226       0.53248763
C       -1.52863407      -0.26502661      -0.17578288
C       -0.75880163       1.02444138       0.00050419
C        0.49254813       0.15767257      -0.20428167
C        1.82310830       0.30866618       0.35934614
O        1.56733406       0.53987583      -1.02523224
C       -0.35199472      -1.07994318      -0.39775055
H       -0.85732841       1.54196138       0.95510368
H       -0.95184410       1.72033075      -0.81750816
H        2.07349266       1.19674062       0.93343241
H        2.41634016      -0.57418109       0.58135248
H       -0.21293872      -1.72593868      -1.26031016
H       -1.32676481      -1.95245690       0.51863913
