10
Frame=0 idx=003199 GeodesicLength=0.0 rxn_smarts="[O:1]([C:2]([C:3](=[O:4])[H:9])([C:5](=[O:6])[H:10])[H:8])[H:7]>>[O:1]([O:6]/[C:5](=[C:2](\[C:3](=[O:4])[H:9])[H:8])[H:10])[H:7]"
O       -0.32058305      -1.45829449      -0.91114464
C        0.47336935       0.76949382      -0.03696459
C        1.12635466      -0.33226834       0.68902133
O        2.32355115      -0.46548906       0.64172529
C       -0.91917137       0.86416355      -0.12584163
O       -1.70695357      -0.00340262      -0.48158623
H       -1.17816003      -1.83397153      -1.13700881
H        1.08083990       1.65503262      -0.19134766
H        0.48256201      -0.99017752       1.28692626
H       -1.36180905       1.79491357       0.26622068
10
Frame=1 idx=003199 GeodesicLength=0.06812814933439357 rxn_smarts="[O:1]([C:2]([C:3](=[O:4])[H:9])([C:5](=[O:6])[H:10])[H:8])[H:7]>>[O:1]([O:6]/[C:5](=[C:2](\[C:3](=[O:4])[H:9])[H:8])[H:10])[H:7]"
O       -0.32529874      -1.42236617      -0.93753066
C        0.46961822       0.74083459      -0.05910031
C        1.13183752      -0.33542562       0.69805932
O        2.33424364      -0.42107755       0.70630049
C       -0.92484256       0.85617662      -0.10333163
O       -1.72152071       0.00191908      -0.47982791
H       -1.18233493      -1.81961072      -1.12538539
H        1.07346047       1.62435998      -0.24049488
H        0.49396937      -1.02473244       1.26697464
H       -1.34913228       1.79992223       0.27433633
10
Frame=2 idx=003199 GeodesicLength=0.1360102576354556 rxn_smarts="[O:1]([C:2]([C:3](=[O:4])[H:9])([C:5](=[O:6])[H:10])[H:8])[H:7]>>[O:1]([O:6]/[C:5](=[C:2](\[C:3](=[O:4])[H:9])[H:8])[H:10])[H:7]"
O       -0.33214189      -1.38739709      -0.96282557
C        0.46543969       0.71222040      -0.07898727
C        1.13764542      -0.33967276       0.70511710
O        2.34076600      -0.37291918       0.77114796
C       -0.92934345       0.84825141      -0.08110734
O       -1.73520507       0.00838315      -0.47863399
H       -1.18687517      -1.80573104      -1.11135776
H        1.06561615       1.59325912      -0.28581971
H        0.50925416      -1.06202436       1.24349731
H       -1.33515584       1.80563035       0.27896928
10
Frame=3 idx=003199 GeodesicLength=0.20317549525384704 rxn_smarts="[O:1]([C:2]([C:3](=[O:4])[H:9])([C:5](=[O:6])[H:10])[H:8])[H:7]>>[O:1]([O:6]/[C:5](=[C:2](\[C:3](=[O:4])[H:9])[H:8])[H:10])[H:7]"
O       -0.34085487      -1.35470876      -0.98483494
C        0.46122855       0.68371096      -0.09809605
C        1.14377148      -0.34385690       0.71083874
O        2.34229254      -0.32272162       0.83589894
C       -0.93244054       0.84065240      -0.06085390
O       -1.74794955       0.01535994      -0.47737260
H       -1.19177674      -1.79129965      -1.09860617
H        1.05780064       1.56183569      -0.32871990
H        0.52781582      -1.09915985       1.21817473
H       -1.31988733       1.81018779       0.28357114
10
Frame=4 idx=003199 GeodesicLength=0.2695809925514847 rxn_smarts="[O:1]([C:2]([C:3](=[O:4])[H:9])([C:5](=[O:6])[H:10])[H:8])[H:7]>>[O:1]([O:6]/[C:5](=[C:2](\[C:3](=[O:4])[H:9])[H:8])[H:10])[H:7]"
O       -0.35066183      -1.32378505      -1.00433808
C        0.45700546       0.65564206      -0.11616608
C        1.15004763      -0.34790538       0.71573153
O        2.33865789      -0.27196378       0.89902621
C       -0.93443413       0.83361172      -0.04271589
O       -1.75980538       0.02290263      -0.47654788
H       -1.19663508      -1.77699362      -1.08546291
H        1.05018441       1.53071854      -0.36834800
H        0.54947514      -1.13621453       1.19109308
H       -1.30383410       1.81398740       0.28772803
10
Frame=5 idx=003199 GeodesicLength=0.3356202510486233 rxn_smarts="[O:1]([C:2]([C:3](=[O:4])[H:9])([C:5](=[O:6])[H:10])[H:8])[H:7]>>[O:1]([O:6]/[C:5](=[C:2](\[C:3](=[O:4])[H:9])[H:8])[H:10])[H:7]"
O       -0.36160064      -1.29415675      -1.02246910
C        0.45288809       0.62797216      -0.13359133
C        1.15652150      -0.35212063       0.71927599
O        2.32928079      -0.22015142       0.96219744
C       -0.93533750       0.82722980      -0.02669088
O       -1.77089869       0.03112207      -0.47609678
H       -1.20148827      -1.76319609      -1.07043088
H        1.04304320       1.49983944      -0.40533576
H        0.57443375      -1.17363691       1.16110325
H       -1.28684222       1.81709833       0.29203805
10
Frame=6 idx=003199 GeodesicLength=0.4015403524989091 rxn_smarts="[O:1]([C:2]([C:3](=[O:4])[H:9])([C:5](=[O:6])[H:10])[H:8])[H:7]>>[O:1]([O:6]/[C:5](=[C:2](\[C:3](=[O:4])[H:9])[H:8])[H:10])[H:7]"
O       -0.37365058      -1.26566919      -1.03930549
C        0.44884214       0.60062634      -0.15035829
C        1.16324153      -0.35652206       0.72159091
O        2.31350059      -0.16739264       1.02574141
C       -0.93524290       0.82145739      -0.01233862
O       -1.78130108       0.03991282      -0.47556663
H       -1.20625579      -1.74975447      -1.05351134
H        1.03641941       1.46904641      -0.44002048
H        0.60327923      -1.21160635       1.12773317
H       -1.26883256       1.81990173       0.29603536
10
Frame=7 idx=003199 GeodesicLength=0.46695502862440885 rxn_smarts="[O:1]([C:2]([C:3](=[O:4])[H:9])([C:5](=[O:6])[H:10])[H:8])[H:7]>>[O:1]([O:6]/[C:5](=[C:2](\[C:3](=[O:4])[H:9])[H:8])[H:10])[H:7]"
O       -0.38609587      -1.23894191      -1.05361265
C        0.44488965       0.57389910      -0.16658633
C        1.16997473      -0.36025692       0.72347943
O        2.29197222      -0.11636573       1.08734554
C       -0.93433236       0.81639396      -0.00016033
O       -1.79094354       0.04894186      -0.47528842
H       -1.21068619      -1.73648215      -1.03606100
H        1.03032172       1.43890519      -0.47207934
H        0.63533705      -1.24813517       1.09254422
H       -1.25043740       1.82204178       0.30041888
10
Frame=8 idx=003199 GeodesicLength=0.5319680761217171 rxn_smarts="[O:1]([C:2]([C:3](=[O:4])[H:9])([C:5](=[O:6])[H:10])[H:8])[H:7]>>[O:1]([O:6]/[C:5](=[C:2](\[C:3](=[O:4])[H:9])[H:8])[H:10])[H:7]"
O       -0.39829692      -1.21351385      -1.06560419
C        0.44073700       0.54812380      -0.18146120
C        1.17593489      -0.36300623       0.72631866
O        2.26636486      -0.06922015       1.14441790
C       -0.93321672       0.81209574       0.01021401
O       -1.79994215       0.05827815      -0.47606954
H       -1.21399981      -1.72358174      -1.01723059
H        1.02454932       1.40987460      -0.50066977
H        0.67035344      -1.28315544       1.05616390
H       -1.23248391       1.82410512       0.30392081
10
Frame=9 idx=003199 GeodesicLength=0.5968387747280534 rxn_smarts="[O:1]([C:2]([C:3](=[O:4])[H:9])([C:5](=[O:6])[H:10])[H:8])[H:7]>>[O:1]([O:6]/[C:5](=[C:2](\[C:3](=[O:4])[H:9])[H:8])[H:10])[H:7]"
O       -0.41037652      -1.18917133      -1.07575989
C        0.43632139       0.52318455      -0.19504377
C        1.18089067      -0.36509444       0.72994293
O        2.23701335      -0.02574327       1.19778375
C       -0.93202790       0.80856587       0.01900225
O       -1.80839663       0.06805843      -0.47797413
H       -1.21615530      -1.71107661      -0.99633157
H        1.01910079       1.38176562      -0.52609552
H        0.70858398      -1.31676353       1.01800285
H       -1.21495383       1.82627470       0.30647310
10
Frame=10 idx=003199 GeodesicLength=0.6614830876033491 rxn_smarts="[O:1]([C:2]([C:3](=[O:4])[H:9])([C:5](=[O:6])[H:10])[H:8])[H:7]>>[O:1]([O:6]/[C:5](=[C:2](\[C:3](=[O:4])[H:9])[H:8])[H:10])[H:7]"
O       -0.42234414      -1.16620671      -1.08397484
C        0.43174014       0.49899610      -0.20767562
C        1.18511723      -0.36679340       0.73379260
O        2.20455289       0.01402087       1.24794932
C       -0.93076612       0.80567413       0.02617068
O       -1.81636205       0.07821497      -0.48114522
H       -1.21751999      -1.69882165      -0.97401131
H        1.01400509       1.35458963      -0.54880893
H        0.74944280      -1.34787856       0.97880969
H       -1.19786585       1.82820461       0.30889364
10
Frame=11 idx=003199 GeodesicLength=0.726316249865241 rxn_smarts="[O:1]([C:2]([C:3](=[O:4])[H:9])([C:5](=[O:6])[H:10])[H:8])[H:7]>>[O:1]([O:6]/[C:5](=[C:2](\[C:3](=[O:4])[H:9])[H:8])[H:10])[H:7]"
O       -0.43455868      -1.14431846      -1.09036554
C        0.42682112       0.47538783      -0.21907060
C        1.18803627      -0.36812467       0.73866532
O        2.16855553       0.05060696       1.29630391
C       -0.92959595       0.80360131       0.03213356
O       -1.82410862       0.08871503      -0.48473058
H       -1.21832990      -1.68665794      -0.94979698
H        1.00934728       1.32779610      -0.56914551
H        0.79489075      -1.37775173       0.93634057
H       -1.18105778       1.83074557       0.30966584
10
Frame=12 idx=003199 GeodesicLength=0.7912054760772562 rxn_smarts="[O:1]([C:2]([C:3](=[O:4])[H:9])([C:5](=[O:6])[H:10])[H:8])[H:7]>>[O:1]([O:6]/[C:5](=[C:2](\[C:3](=[O:4])[H:9])[H:8])[H:10])[H:7]"
O       -0.44700965      -1.12370928      -1.09487039
C        0.42157941       0.45233142      -0.22935870
C        1.18967375      -0.36939565       0.74435893
O        2.12951444       0.08364315       1.34294004
C       -0.92859965       0.80229433       0.03686263
O       -1.83170356       0.09960385      -0.48912790
H       -1.21879787      -1.67458876      -0.92380434
H        1.00516256       1.30144984      -0.58721248
H        0.84479551      -1.40537757       0.89100198
H       -1.16461495       1.83374866       0.30921023
10
Frame=13 idx=003199 GeodesicLength=0.8560325175213588 rxn_smarts="[O:1]([C:2]([C:3](=[O:4])[H:9])([C:5](=[O:6])[H:10])[H:8])[H:7]>>[O:1]([O:6]/[C:5](=[C:2](\[C:3](=[O:4])[H:9])[H:8])[H:10])[H:7]"
O       -0.45937778      -1.10451061      -1.09712455
C        0.41601742       0.42981212      -0.23847165
C        1.18998969      -0.37073597       0.75073466
O        2.08809495       0.11245357       1.38760243
C       -0.92778477       0.80167976       0.04046496
O       -1.83901348       0.11060525      -0.49398777
H       -1.21901242      -1.66244326      -0.89670725
H        1.00136788       1.27542118      -0.60304341
H        0.89843950      -1.42940719       0.84314520
H       -1.14872098       1.83712515       0.30738737
10
Frame=14 idx=003199 GeodesicLength=0.9210172401251407 rxn_smarts="[O:1]([C:2]([C:3](=[O:4])[H:9])([C:5](=[O:6])[H:10])[H:8])[H:7]>>[O:1]([O:6]/[C:5](=[C:2](\[C:3](=[O:4])[H:9])[H:8])[H:10])[H:7]"
O       -0.47191071      -1.08662050      -1.09769511
C        0.41006945       0.40771048      -0.24658934
C        1.18871840      -0.37269054       0.75772754
O        2.04428674       0.13718370       1.43043808
C       -0.92726249       0.80176231       0.04283917
O       -1.84615382       0.12210539      -0.50020193
H       -1.21882632      -1.65030874      -0.86740468
H        0.99805656       1.24967893      -0.61668901
H        0.95626632      -1.44963096       0.79282808
H       -1.13324413       1.84080993       0.30474720
10
Frame=15 idx=003199 GeodesicLength=0.9861014314886369 rxn_smarts="[O:1]([C:2]([C:3](=[O:4])[H:9])([C:5](=[O:6])[H:10])[H:8])[H:7]>>[O:1]([O:6]/[C:5](=[C:2](\[C:3](=[O:4])[H:9])[H:8])[H:10])[H:7]"
O       -0.48449329      -1.07004734      -1.09660422
C        0.40372939       0.38602239      -0.25369957
C        1.18580308      -0.37556869       0.76524718
O        1.99869195       0.15740669       1.47128309
C       -0.92705876       0.80249151       0.04407025
O       -1.85310446       0.13387649      -0.50754535
H       -1.21820960      -1.63809801      -0.83615794
H        0.99521436       1.22419674      -0.62816612
H        1.01770340      -1.46509478       0.74045757
H       -1.11827607       1.84481500       0.30111511
10
Frame=16 idx=003199 GeodesicLength=1.0512138094972072 rxn_smarts="[O:1]([C:2]([C:3](=[O:4])[H:9])([C:5](=[O:6])[H:10])[H:8])[H:7]>>[O:1]([O:6]/[C:5](=[C:2](\[C:3](=[O:4])[H:9])[H:8])[H:10])[H:7]"
O       -0.49696510      -1.05485731      -1.09387572
C        0.39709047       0.36473324      -0.25995277
C        1.18176548      -0.37961100       0.77276137
O        1.95189287       0.17307112       1.51004904
C       -0.92708205       0.80364102       0.04439823
O       -1.85976209       0.14568715      -0.51582507
H       -1.21736477      -1.62574062      -0.80372619
H        0.99274815       1.19903189      -0.63775289
H        1.08144912      -1.47486731       0.68718175
H       -1.10377208       1.84891181       0.29674225
