13
Frame=0 idx=007935 GeodesicLength=0.0 rxn_smarts="[C:1]1([H:8])([H:9])[C:2]([H:10])([H:11])[c:3]2[n:4][c:5]([H:12])[c:6]([H:13])[n:7]21>>[C-:1]([N+:7]1=[C:6]([H:13])[C:5]([H:12])=[N:4][C:3]1=[C:2]([H:10])[H:11])([H:8])[H:9]"
C       -1.28531009      -1.00458391      -0.01785797
C       -1.25908418       1.33665113       0.15463489
C        0.01595790       0.82248192      -0.14772180
N        1.23350835       1.27058238      -0.41527447
C        2.01707930       0.18594713      -0.19890735
C        1.29808462      -0.95209919       0.12981655
N       -0.00171224      -0.53885064       0.06864032
H       -1.81266788      -0.83826540      -0.94078439
H       -1.56538221      -1.86242441       0.58519478
H       -1.62443828       2.25442688      -0.29347594
H       -1.70087555       1.05354840       1.09560176
H        3.09112534       0.24843329      -0.29919427
H        1.59371492      -1.97584755       0.27932792
13
Frame=1 idx=007935 GeodesicLength=0.027579141282597582 rxn_smarts="[C:1]1([H:8])([H:9])[C:2]([H:10])([H:11])[c:3]2[n:4][c:5]([H:12])[c:6]([H:13])[n:7]21>>[C-:1]([N+:7]1=[C:6]([H:13])[C:5]([H:12])=[N:4][C:3]1=[C:2]([H:10])[H:11])([H:8])[H:9]"
C       -1.28731603      -0.99666129      -0.01628634
C       -1.26216545       1.32760714       0.15395965
C        0.02035589       0.82533472      -0.13710860
N        1.23875706       1.27364676      -0.40325163
C        2.02079315       0.18651369      -0.19631661
C        1.30065231      -0.95422031       0.12118156
N        0.00113885      -0.54129342       0.05595560
H       -1.82396864      -0.83774572      -0.93548702
H       -1.56245430      -1.85380281       0.58994384
H       -1.62609577       2.24054593      -0.30504330
H       -1.70894401       1.05999469       1.09740378
H        3.09475313       0.24807295      -0.29839944
H        1.59449381      -1.97799233       0.27344852
13
Frame=2 idx=007935 GeodesicLength=0.05518413487372624 rxn_smarts="[C:1]1([H:8])([H:9])[C:2]([H:10])([H:11])[c:3]2[n:4][c:5]([H:12])[c:6]([H:13])[n:7]21>>[C-:1]([N+:7]1=[C:6]([H:13])[C:5]([H:12])=[N:4][C:3]1=[C:2]([H:10])[H:11])([H:8])[H:9]"
C       -1.28915265      -0.98887850      -0.01484037
C       -1.26501115       1.31864687       0.15346762
C        0.02472233       0.82805561      -0.12614570
N        1.24393348       1.27663091      -0.39108138
C        2.02444580       0.18702026      -0.19399053
C        1.30311289      -0.95636109       0.11188724
N        0.00390776      -0.54366300       0.04228466
H       -1.83579773      -0.83720562      -0.92970720
H       -1.55901734      -1.84526609       0.59473932
H       -1.62723030       2.22673063      -0.31638502
H       -1.71743534       1.06638994       1.09875689
H        3.09835395       0.24782219      -0.29736254
H        1.59516830      -1.97992211       0.26837701
13
Frame=3 idx=007935 GeodesicLength=0.08283159454704378 rxn_smarts="[C:1]1([H:8])([H:9])[C:2]([H:10])([H:11])[c:3]2[n:4][c:5]([H:12])[c:6]([H:13])[n:7]21>>[C-:1]([N+:7]1=[C:6]([H:13])[C:5]([H:12])=[N:4][C:3]1=[C:2]([H:10])[H:11])([H:8])[H:9]"
C       -1.29080058      -0.98123449      -0.01340826
C       -1.26763335       1.30978270       0.15307743
C        0.02905994       0.83062199      -0.11481208
N        1.24905705       1.27955443      -0.37860952
C        2.02805483       0.18750788      -0.19170789
C        1.30544696      -0.95856361       0.10171505
N        0.00658424      -0.54592560       0.02762136
H       -1.84817960      -0.83672440      -0.92328793
H       -1.55499208      -1.83676562       0.59976961
H       -1.62784297       2.21293644      -0.32769818
H       -1.72638150       1.07282072       1.09958572
H        3.10194396       0.24769643      -0.29591451
H        1.59568311      -1.98170687       0.26366921
13
Frame=4 idx=007935 GeodesicLength=0.11054006133196875 rxn_smarts="[C:1]1([H:8])([H:9])[C:2]([H:10])([H:11])[c:3]2[n:4][c:5]([H:12])[c:6]([H:13])[n:7]21>>[C-:1]([N+:7]1=[C:6]([H:13])[C:5]([H:12])=[N:4][C:3]1=[C:2]([H:10])[H:11])([H:8])[H:9]"
C       -1.29226190      -0.97373075      -0.01181407
C       -1.27001883       1.30102621       0.15270773
C        0.03336001       0.83298625      -0.10323039
N        1.25412535       1.28239725      -0.36587260
C        2.03160267       0.18793462      -0.18964715
C        1.30762585      -0.96089874       0.09018493
N        0.00915027      -0.54805021       0.01185199
H       -1.86127423      -0.83640265      -0.91593790
H       -1.55025533      -1.82822979       0.60535213
H       -1.62794610       2.19910857      -0.33915394
H       -1.73568485       1.07940876       1.09986886
H        3.10560747       0.24788220      -0.29305965
H        1.59596961      -1.98343171       0.25875006
13
Frame=5 idx=007935 GeodesicLength=0.13833022022419322 rxn_smarts="[C:1]1([H:8])([H:9])[C:2]([H:10])([H:11])[c:3]2[n:4][c:5]([H:12])[c:6]([H:13])[n:7]21>>[C-:1]([N+:7]1=[C:6]([H:13])[C:5]([H:12])=[N:4][C:3]1=[C:2]([H:10])[H:11])([H:8])[H:9]"
C       -1.29352281      -0.96636612      -0.00984692
C       -1.27216902       1.29240207       0.15226168
C        0.03762232       0.83511714      -0.09142352
N        1.25914613       1.28515651      -0.35281746
C        2.03506979       0.18825792      -0.18802078
C        1.30961729      -0.96342345       0.07681163
N        0.01156822      -0.54999134      -0.00502736
H       -1.87516708      -0.83635712      -0.90734436
H       -1.54467166      -1.81958789       0.61182151
H       -1.62753673       2.18517751      -0.35099968
H       -1.74534820       1.08630429       1.09952140
H        3.10942009       0.24850509      -0.28785006
H        1.59597168      -1.98519461       0.25291392
13
Frame=6 idx=007935 GeodesicLength=0.1662281057294765 rxn_smarts="[C:1]1([H:8])([H:9])[C:2]([H:10])([H:11])[c:3]2[n:4][c:5]([H:12])[c:6]([H:13])[n:7]21>>[C-:1]([N+:7]1=[C:6]([H:13])[C:5]([H:12])=[N:4][C:3]1=[C:2]([H:10])[H:11])([H:8])[H:9]"
C       -1.29454225      -0.95914265      -0.00720384
C       -1.27410856       1.28395026       0.15157254
C        0.04184959       0.83699471      -0.07932809
N        1.26411920       1.28782251      -0.33936141
C        2.03843912       0.18845833      -0.18689979
C        1.31140827      -0.96614551       0.06137669
N        0.01380854      -0.55169479      -0.02283679
H       -1.88984622      -0.83679428      -0.89714542
H       -1.53810324      -1.81071411       0.61964384
H       -1.62659161       2.17104994      -0.36363758
H       -1.75547926       1.09374161       1.09834946
H        3.11342457       0.24962962      -0.27931372
H        1.59562186      -1.98715564       0.24478411
13
Frame=7 idx=007935 GeodesicLength=0.19416718073879705 rxn_smarts="[C:1]1([H:8])([H:9])[C:2]([H:10])([H:11])[c:3]2[n:4][c:5]([H:12])[c:6]([H:13])[n:7]21>>[C-:1]([N+:7]1=[C:6]([H:13])[C:5]([H:12])=[N:4][C:3]1=[C:2]([H:10])[H:11])([H:8])[H:9]"
C       -1.29520454      -0.95206811      -0.00541490
C       -1.27591763       1.27552740       0.15132586
C        0.04609332       0.83869542      -0.06591586
N        1.26914356       1.29061266      -0.32398099
C        2.04177316       0.18867707      -0.18540035
C        1.31304786      -0.96884285       0.04474582
N        0.01594193      -0.55303404      -0.04148471
H       -1.90438155      -0.83687189      -0.88725147
H       -1.53090013      -1.80231451       0.62615209
H       -1.62484430       2.15713458      -0.37562452
H       -1.76670815       1.10064430       1.09654648
H        3.11700232       0.24980098      -0.27521835
H        1.59495416      -1.98796101       0.24152091
13
Frame=8 idx=007935 GeodesicLength=0.22217208545877087 rxn_smarts="[C:1]1([H:8])([H:9])[C:2]([H:10])([H:11])[c:3]2[n:4][c:5]([H:12])[c:6]([H:13])[n:7]21>>[C-:1]([N+:7]1=[C:6]([H:13])[C:5]([H:12])=[N:4][C:3]1=[C:2]([H:10])[H:11])([H:8])[H:9]"
C       -1.29549074      -0.94513970      -0.00368983
C       -1.27764288       1.26723055       0.15106054
C        0.05032774       0.84016497      -0.05109304
N        1.27418453       1.29341226      -0.30672355
C        2.04503986       0.18886876      -0.18349635
C        1.31457119      -0.97140307       0.02778116
N        0.01797792      -0.55393885      -0.06013488
H       -1.91859292      -0.83712166      -0.87703081
H       -1.52309292      -1.79404549       0.63255131
H       -1.62222393       2.14322071      -0.38801070
H       -1.77926815       1.10762935       1.09362503
H        3.12030279       0.24948018      -0.27352621
H        1.59390752      -1.98835801       0.23868733
13
Frame=9 idx=007935 GeodesicLength=0.2502621203960742 rxn_smarts="[C:1]1([H:8])([H:9])[C:2]([H:10])([H:11])[c:3]2[n:4][c:5]([H:12])[c:6]([H:13])[n:7]21>>[C-:1]([N+:7]1=[C:6]([H:13])[C:5]([H:12])=[N:4][C:3]1=[C:2]([H:10])[H:11])([H:8])[H:9]"
C       -1.29543165      -0.93835537      -0.00148077
C       -1.27928383       1.25913201       0.15050283
C        0.05450576       0.84134899      -0.03497742
N        1.27918818       1.29612128      -0.28781940
C        2.04818757       0.18899063      -0.18151797
C        1.31596987      -0.97377728       0.01062959
N        0.01989113      -0.55438604      -0.07841309
H       -1.93255412      -0.83784609      -0.86592998
H       -1.51464663      -1.78569447       0.63969886
H       -1.61868976       2.12915379      -0.40140255
H       -1.79313969       1.11512606       1.08932018
H        3.12345189       0.24908680      -0.27214881
H        1.59255130      -1.98890032       0.23353854
13
Frame=10 idx=007935 GeodesicLength=0.278434670665146 rxn_smarts="[C:1]1([H:8])([H:9])[C:2]([H:10])([H:11])[c:3]2[n:4][c:5]([H:12])[c:6]([H:13])[n:7]21>>[C-:1]([N+:7]1=[C:6]([H:13])[C:5]([H:12])=[N:4][C:3]1=[C:2]([H:10])[H:11])([H:8])[H:9]"
C       -1.29502555      -0.93171524       0.00156814
C       -1.28088372       1.25129201       0.14938049
C        0.05857085       0.84223199      -0.01747744
N        1.28415060       1.29872304      -0.26686198
C        2.05123017       0.18914492      -0.17885010
C        1.31725141      -0.97586401      -0.00636550
N        0.02168085      -0.55431707      -0.09591691
H       -1.94618566      -0.83931175      -0.85365606
H       -1.50556280      -1.77708540       0.64816416
H       -1.61413183       2.11480724      -0.41637495
H       -1.80851231       1.12346013       1.08323236
H        3.12642595       0.24870879      -0.27092377
H        1.59099204      -1.99007464       0.22408156
13
Frame=11 idx=007935 GeodesicLength=0.30675567898263933 rxn_smarts="[C:1]1([H:8])([H:9])[C:2]([H:10])([H:11])[c:3]2[n:4][c:5]([H:12])[c:6]([H:13])[n:7]21>>[C-:1]([N+:7]1=[C:6]([H:13])[C:5]([H:12])=[N:4][C:3]1=[C:2]([H:10])[H:11])([H:8])[H:9]"
C       -1.29430886      -0.92522267       0.00552675
C       -1.28241481       1.24370838       0.14764482
C        0.06246105       0.84278121       0.00126949
N        1.28904775       1.30118705      -0.24378103
C        2.05415107       0.18936264      -0.17533592
C        1.31838951      -0.97765930      -0.02345864
N        0.02331349      -0.55376763      -0.11268368
H       -1.95961049      -0.84152912      -0.84004082
H       -1.49579710      -1.76817100       0.65806836
H       -1.60845765       2.10012120      -0.43295712
H       -1.82527405       1.13267410       1.07523958
H        3.12920723       0.24843819      -0.26962237
H        1.58929288      -1.99192305       0.21013059
13
Frame=12 idx=007935 GeodesicLength=0.33524871308686616 rxn_smarts="[C:1]1([H:8])([H:9])[C:2]([H:10])([H:11])[c:3]2[n:4][c:5]([H:12])[c:6]([H:13])[n:7]21>>[C-:1]([N+:7]1=[C:6]([H:13])[C:5]([H:12])=[N:4][C:3]1=[C:2]([H:10])[H:11])([H:8])[H:9]"
C       -1.29330303      -0.91888482       0.01045798
C       -1.28386590       1.23638732       0.14523324
C        0.06611217       0.84296526       0.02113921
N        1.29386481       1.30344849      -0.21841907
C        2.05694155       0.18965785      -0.17071023
C        1.31936422      -0.97912750      -0.04079716
N        0.02475563      -0.55273519      -0.12872271
H       -1.97289579      -0.84454806      -0.82494001
H       -1.48530550      -1.75889610       0.66953134
H       -1.60157990       2.08505177      -0.45119601
H       -1.84334234       1.14281266       1.06519943
H        3.13176102       0.24833290      -0.26821237
H        1.58749307      -1.99446458       0.19143636
13
Frame=13 idx=007935 GeodesicLength=0.3639235873096053 rxn_smarts="[C:1]1([H:8])([H:9])[C:2]([H:10])([H:11])[c:3]2[n:4][c:5]([H:12])[c:6]([H:13])[n:7]21>>[C-:1]([N+:7]1=[C:6]([H:13])[C:5]([H:12])=[N:4][C:3]1=[C:2]([H:10])[H:11])([H:8])[H:9]"
C       -1.29203977      -0.91271928       0.01638522
C       -1.28520189       1.22932672       0.14214727
C        0.06946432       0.84274755       0.04189472
N        1.29857394       1.30540165      -0.19086343
C        2.05956719       0.18999677      -0.16501627
C        1.32014268      -0.98023483      -0.05859379
N        0.02596481      -0.55124037      -0.14409615
H       -1.98614602      -0.84836595      -0.80822628
H       -1.47403478      -1.74925952       0.68259707
H       -1.59346098       2.06955810      -0.47100690
H       -1.86249677       1.15388396       1.05308367
H        3.13407931       0.24846297      -0.26628736
H        1.58558796      -1.99755777       0.16798222
13
Frame=14 idx=007935 GeodesicLength=0.3927511161118899 rxn_smarts="[C:1]1([H:8])([H:9])[C:2]([H:10])([H:11])[c:3]2[n:4][c:5]([H:12])[c:6]([H:13])[n:7]21>>[C-:1]([N+:7]1=[C:6]([H:13])[C:5]([H:12])=[N:4][C:3]1=[C:2]([H:10])[H:11])([H:8])[H:9]"
C       -1.29058815      -0.90673079       0.02291288
C       -1.28637576       1.22247409       0.13867534
C        0.07246998       0.84211485       0.06313708
N        1.30310575       1.30691847      -0.16176038
C        2.06199714       0.19032821      -0.15853361
C        1.32073225      -0.98093735      -0.07658393
N        0.02693686      -0.54934852      -0.15883303
H       -1.99929215      -0.85269931      -0.79034126
H       -1.46219176      -1.73943571       0.69658137
H       -1.58419717       2.05375722      -0.49165689
H       -1.88230287       1.16556161       1.03926315
H        3.13611309       0.24880548      -0.26430904
H        1.58359280      -2.00080824       0.14144832
13
Frame=15 idx=007935 GeodesicLength=0.42168966286332804 rxn_smarts="[C:1]1([H:8])([H:9])[C:2]([H:10])([H:11])[c:3]2[n:4][c:5]([H:12])[c:6]([H:13])[n:7]21>>[C-:1]([N+:7]1=[C:6]([H:13])[C:5]([H:12])=[N:4][C:3]1=[C:2]([H:10])[H:11])([H:8])[H:9]"
C       -1.28899451      -0.90090403       0.02972049
C       -1.28734000       1.21575290       0.13508948
C        0.07510711       0.84107254       0.08422900
N        1.30735223       1.30787223      -0.13224671
C        2.06415776       0.19059734      -0.15175923
C        1.32111026      -0.98121371      -0.09463347
N        0.02765413      -0.54714120      -0.17305035
H       -2.01231376      -0.85730443      -0.77159408
H       -1.44991394      -1.72949729       0.71096838
H       -1.57403565       2.03776065      -0.51239597
H       -1.90213313       1.17751494       1.02427862
H        3.13786735       0.24936341      -0.26170708
H        1.58148215      -2.00387336       0.11310091
13
Frame=16 idx=007935 GeodesicLength=0.45064380207879956 rxn_smarts="[C:1]1([H:8])([H:9])[C:2]([H:10])([H:11])[c:3]2[n:4][c:5]([H:12])[c:6]([H:13])[n:7]21>>[C-:1]([N+:7]1=[C:6]([H:13])[C:5]([H:12])=[N:4][C:3]1=[C:2]([H:10])[H:11])([H:8])[H:9]"
C       -1.28735478      -0.89523867       0.03626956
C       -1.28809977       1.20911746       0.13179369
C        0.07740370       0.83968035       0.10473802
N        1.31128635       1.30824772      -0.10334367
C        2.06607993       0.19078237      -0.14510939
C        1.32134242      -0.98109094      -0.11216180
N        0.02817251      -0.54471682      -0.18671480
H       -2.02504176      -0.86180904      -0.75274094
H       -1.43759440      -1.71972188       0.72483138
H       -1.56333143       2.02179138      -0.53231097
H       -1.92152533       1.18934428       1.00880149
H        3.13937037       0.25005806      -0.25914841
H        1.57929221      -2.00644425       0.08509585
