14
Frame=0 idx=011231 GeodesicLength=0.0 rxn_smarts="[N:1](=[C:2]1\[O:3][C@@:4]2([H:9])[C:5]([H:10])([H:11])[C:6]([H:12])([H:13])[C@@:7]12[H:14])\[H:8]>>[N:1](=[C:2]1\[O:3][C:4]([H:9])([H:14])[C:5]([H:10])([H:11])[C:6]([H:12])([H:13])[C:7]1)\[H:8]"
N        2.51076147       0.23099692       0.64194633
C        1.45650131       0.09344350      -0.01987383
O        0.98209271      -1.05767700      -0.61229542
C       -0.29297288      -0.61852748      -1.00468402
C       -1.28428029      -0.40954167       0.13824286
C       -0.72207144       0.90329048       0.71002236
C        0.42748290       1.13125111      -0.28316290
H        3.00145143      -0.64959580       0.76717000
H       -0.62304441      -1.14602976      -1.89933691
H       -1.30571858      -1.26731815       0.81269204
H       -2.28924920      -0.27345325      -0.26425028
H       -0.32162840       0.81009028       1.72126901
H       -1.44652593       1.71655307       0.70324991
H       -0.09279870       0.53651776      -1.41098913
14
Frame=1 idx=011231 GeodesicLength=0.05500470724340117 rxn_smarts="[N:1](=[C:2]1\[O:3][C@@:4]2([H:9])[C:5]([H:10])([H:11])[C:6]([H:12])([H:13])[C@@:7]12[H:14])\[H:8]>>[N:1](=[C:2]1\[O:3][C:4]([H:9])([H:14])[C:5]([H:10])([H:11])[C:6]([H:12])([H:13])[C:7]1)\[H:8]"
N        2.51751357       0.22748704       0.63978577
C        1.45726619       0.08906840      -0.01256416
O        0.98039865      -1.05884359      -0.60758794
C       -0.29375476      -0.61310264      -1.00535336
C       -1.28561056      -0.41112399       0.13845151
C       -0.72584626       0.90296740       0.71047392
C        0.42943491       1.12735502      -0.27408348
H        3.00925337      -0.65371560       0.75827641
H       -0.62272558      -1.14836376      -1.89558988
H       -1.30088744      -1.26818325       0.81384387
H       -2.29230652      -0.27905528      -0.26090109
H       -0.33340540       0.81614352       1.72555493
H       -1.44857754       1.71780767       0.69409504
H       -0.09075262       0.55155905      -1.42440155
14
Frame=2 idx=011231 GeodesicLength=0.11000511511279804 rxn_smarts="[N:1](=[C:2]1\[O:3][C@@:4]2([H:9])[C:5]([H:10])([H:11])[C:6]([H:12])([H:13])[C@@:7]12[H:14])\[H:8]>>[N:1](=[C:2]1\[O:3][C:4]([H:9])([H:14])[C:5]([H:10])([H:11])[C:6]([H:12])([H:13])[C:7]1)\[H:8]"
N        2.52427727       0.22397763       0.63748899
C        1.45796620       0.08455515      -0.00504425
O        0.97865533      -1.06012705      -0.60270940
C       -0.29451715      -0.60773301      -1.00592517
C       -1.28697449      -0.41275896       0.13869978
C       -0.72967246       0.90263478       0.71090453
C        0.43133245       1.12331271      -0.26497472
H        3.01716308      -0.65775392       0.74904499
H       -0.62232131      -1.15047296      -1.89185475
H       -1.29614801      -1.26903154       0.81506266
H       -2.29534560      -0.28472570      -0.25757735
H       -0.34535855       0.82229831       1.72975824
H       -1.45057576       1.71902307       0.68481083
H       -0.08848099       0.56680150      -1.43768439
14
Frame=3 idx=011231 GeodesicLength=0.16500006781324017 rxn_smarts="[N:1](=[C:2]1\[O:3][C@@:4]2([H:9])[C:5]([H:10])([H:11])[C:6]([H:12])([H:13])[C@@:7]12[H:14])\[H:8]>>[N:1](=[C:2]1\[O:3][C:4]([H:9])([H:14])[C:5]([H:10])([H:11])[C:6]([H:12])([H:13])[C:7]1)\[H:8]"
N        2.53103513       0.22045663       0.63509695
C        1.45859277       0.07988837       0.00273088
O        0.97685892      -1.06154068      -0.59762028
C       -0.29525283      -0.60242917      -1.00638151
C       -1.28838723      -0.41443930       0.13898122
C       -0.73356393       0.90229490       0.71131424
C        0.43317948       1.11911685      -0.25581222
H        3.02526424      -0.66168232       0.73933249
H       -0.62181375      -1.15237302      -1.88812164
H       -1.29153995      -1.26985223       0.81634661
H       -2.29837230      -0.29044681      -0.25430734
H       -0.35752033       0.82855664       1.73388081
H       -1.45252438       1.72020536       0.67538540
H       -0.08595583       0.58224480      -1.45082561
14
Frame=4 idx=011231 GeodesicLength=0.2199586834808513 rxn_smarts="[N:1](=[C:2]1\[O:3][C@@:4]2([H:9])[C:5]([H:10])([H:11])[C:6]([H:12])([H:13])[C@@:7]12[H:14])\[H:8]>>[N:1](=[C:2]1\[O:3][C:4]([H:9])([H:14])[C:5]([H:10])([H:11])[C:6]([H:12])([H:13])[C:7]1)\[H:8]"
N        2.53806030       0.21721780       0.63165092
C        1.45929594       0.07533134       0.01003805
O        0.97512186      -1.06285927      -0.59294535
C       -0.29603612      -0.59711419      -1.00693178
C       -1.28960174      -0.41627571       0.13939420
C       -0.73726156       0.90186802       0.71172043
C        0.43490497       1.11490815      -0.24692983
H        3.03189617      -0.66590459       0.73157939
H       -0.62147291      -1.15398226      -1.88453884
H       -1.28651387      -1.27079939       0.81774127
H       -2.30127107      -0.29642331      -0.25068421
H       -0.36929634       0.83481178       1.73781430
H       -1.45427955       1.72118510       0.66612623
H       -0.08354607       0.59803653      -1.46403477
14
Frame=5 idx=011231 GeodesicLength=0.2749145578355164 rxn_smarts="[N:1](=[C:2]1\[O:3][C@@:4]2([H:9])[C:5]([H:10])([H:11])[C:6]([H:12])([H:13])[C@@:7]12[H:14])\[H:8]>>[N:1](=[C:2]1\[O:3][C:4]([H:9])([H:14])[C:5]([H:10])([H:11])[C:6]([H:12])([H:13])[C:7]1)\[H:8]"
N        2.54499767       0.21390705       0.62830888
C        1.45989737       0.07056984       0.01775166
O        0.97331299      -1.06435528      -0.58792229
C       -0.29677593      -0.59189432      -1.00731153
C       -1.29092090      -0.41813210       0.13981899
C       -0.74107920       0.90144930       0.71210212
C        0.43659560       1.11052023      -0.23792017
H        3.03909078      -0.66993126       0.72282188
H       -0.62096938      -1.15542461      -1.88092498
H       -1.28175020      -1.27168117       0.81919448
H       -2.30418130      -0.30239752      -0.24720896
H       -0.38140097       0.84118743       1.74168283
H       -1.45601332       1.72216448       0.65667021
H       -0.08080321       0.61401792      -1.47706313
14
Frame=6 idx=011231 GeodesicLength=0.3298634159378067 rxn_smarts="[N:1](=[C:2]1\[O:3][C@@:4]2([H:9])[C:5]([H:10])([H:11])[C:6]([H:12])([H:13])[C@@:7]12[H:14])\[H:8]>>[N:1](=[C:2]1\[O:3][C:4]([H:9])([H:14])[C:5]([H:10])([H:11])[C:6]([H:12])([H:13])[C:7]1)\[H:8]"
N        2.55195802       0.21064060       0.62468035
C        1.46045525       0.06570520       0.02559459
O        0.97147665      -1.06594123      -0.58279643
C       -0.29750023      -0.58674011      -1.00760306
C       -1.29224740      -0.42005337       0.14029441
C       -0.74491639       0.90100803       0.71246728
C        0.43822555       1.10600989      -0.22890759
H        3.04618914      -0.67392271       0.71401798
H       -0.62040907      -1.15667384      -1.87734022
H       -1.27703266      -1.27255939       0.82072727
H       -2.30705804      -0.30845343      -0.24372229
H       -0.39360689       0.84764426       1.74544551
H       -1.45766861       1.72307719       0.64713495
H       -0.07786533       0.63025890      -1.48999276
14
Frame=7 idx=011231 GeodesicLength=0.38479375750755496 rxn_smarts="[N:1](=[C:2]1\[O:3][C@@:4]2([H:9])[C:5]([H:10])([H:11])[C:6]([H:12])([H:13])[C@@:7]12[H:14])\[H:8]>>[N:1](=[C:2]1\[O:3][C:4]([H:9])([H:14])[C:5]([H:10])([H:11])[C:6]([H:12])([H:13])[C:7]1)\[H:8]"
N        2.55900913       0.20749289       0.62049306
C        1.46101053       0.06080708       0.03337231
O        0.96964354      -1.06755557      -0.57773570
C       -0.29823078      -0.58163072      -1.00786075
C       -1.29351589      -0.42206815       0.14084585
C       -0.74870632       0.90052166       0.71281983
C        0.43977751       1.10141455      -0.21997879
H        3.05276837      -0.67799236       0.70583726
H       -0.61986479      -1.15771242      -1.87382262
H       -1.27221469      -1.27347144       0.82235018
H       -2.30987009      -0.31464599      -0.24011527
H       -0.40575934       0.85415176       1.74907247
H       -1.45921153       1.72387580       0.63760045
H       -0.07483565       0.64681292      -1.50287827
14
Frame=8 idx=011231 GeodesicLength=0.43974011943628477 rxn_smarts="[N:1](=[C:2]1\[O:3][C@@:4]2([H:9])[C:5]([H:10])([H:11])[C:6]([H:12])([H:13])[C@@:7]12[H:14])\[H:8]>>[N:1](=[C:2]1\[O:3][C:4]([H:9])([H:14])[C:5]([H:10])([H:11])[C:6]([H:12])([H:13])[C:7]1)\[H:8]"
N        2.56585206       0.20416875       0.61678071
C        1.46140080       0.05558992       0.04188881
O        0.96769822      -1.06944664      -0.57204446
C       -0.29886994      -0.57666837      -1.00784284
C       -1.29499196      -0.42405796       0.14136966
C       -0.75272203       0.90007513       0.71314279
C        0.44132488       1.09658206      -0.21075632
H        3.06052390      -0.68167852       0.69555643
H       -0.61903231      -1.15866102      -1.87020210
H       -1.26790782      -1.27425454       0.82402849
H       -2.31274219      -0.32074446      -0.23683780
H       -0.41849524       0.86082741       1.75266494
H       -1.46077150       1.72473778       0.62774293
H       -0.07126689       0.66353046      -1.51549124
14
Frame=9 idx=011231 GeodesicLength=0.4946725839910808 rxn_smarts="[N:1](=[C:2]1\[O:3][C@@:4]2([H:9])[C:5]([H:10])([H:11])[C:6]([H:12])([H:13])[C@@:7]12[H:14])\[H:8]>>[N:1](=[C:2]1\[O:3][C:4]([H:9])([H:14])[C:5]([H:10])([H:11])[C:6]([H:12])([H:13])[C:7]1)\[H:8]"
N        2.57269010       0.20089809       0.61276181
C        1.46175656       0.05027899       0.05052055
O        0.96573485      -1.07142317      -0.56625383
C       -0.29948721      -0.57178589      -1.00772904
C       -1.29646949      -0.42611411       0.14194597
C       -0.75674726       0.89960066       0.71344924
C        0.44280957       1.09163155      -0.20152923
H        3.06811866      -0.68532556       0.68524933
H       -0.61814227      -1.15944993      -1.86660536
H       -1.26364954      -1.27503522       0.82579255
H       -2.31557677      -0.32691914      -0.23354711
H       -0.43130990       0.86757591       1.75613361
H       -1.46223691       1.72552136       0.61782235
H       -0.06749041       0.68054645      -1.52801084
14
Frame=10 idx=011231 GeodesicLength=0.549590803992005 rxn_smarts="[N:1](=[C:2]1\[O:3][C@@:4]2([H:9])[C:5]([H:10])([H:11])[C:6]([H:12])([H:13])[C@@:7]12[H:14])\[H:8]>>[N:1](=[C:2]1\[O:3][C:4]([H:9])([H:14])[C:5]([H:10])([H:11])[C:6]([H:12])([H:13])[C:7]1)\[H:8]"
N        2.57951158       0.19768479       0.60842478
C        1.46208467       0.04488354       0.05924637
O        0.96375763      -1.07348025      -0.56037632
C       -0.30008402      -0.56698655      -1.00752196
C       -1.29794305      -0.42823910       0.14257718
C       -0.76077515       0.89909612       0.71373892
C        0.44423033       1.08656778      -0.19230552
H        3.07552163      -0.68894227       0.67496425
H       -0.61720033      -1.16008996      -1.86303404
H       -1.25943075      -1.27581612       0.82764543
H       -2.31837096      -0.33317306      -0.23023499
H       -0.44418521       0.87439401       1.75947222
H       -1.46360288       1.72622152       0.60784789
H       -0.06351350       0.69787955      -1.54044421
14
Frame=11 idx=011231 GeodesicLength=0.6044936643963642 rxn_smarts="[N:1](=[C:2]1\[O:3][C@@:4]2([H:9])[C:5]([H:10])([H:11])[C:6]([H:12])([H:13])[C@@:7]12[H:14])\[H:8]>>[N:1](=[C:2]1\[O:3][C:4]([H:9])([H:14])[C:5]([H:10])([H:11])[C:6]([H:12])([H:13])[C:7]1)\[H:8]"
N        2.58629612       0.19452481       0.60378564
C        1.46238918       0.03940779       0.06805901
O        0.96176857      -1.07561758      -0.55441088
C       -0.30065999      -0.56227552      -1.00721950
C       -1.29941198      -0.43043294       0.14326383
C       -0.76480410       0.89856121       0.71401048
C        0.44558699       1.08139231      -0.18308688
H        3.08273652      -0.69252798       0.66469212
H       -0.61620631      -1.16059434      -1.85948538
H       -1.25525322      -1.27659608       0.82958967
H       -2.32112414      -0.33950489      -0.22690127
H       -0.45711486       0.88128079       1.76267543
H       -1.46486738       1.72683658       0.59782166
H       -0.05933540       0.71554585      -1.55279393
14
Frame=12 idx=011231 GeodesicLength=0.6593806345153048 rxn_smarts="[N:1](=[C:2]1\[O:3][C@@:4]2([H:9])[C:5]([H:10])([H:11])[C:6]([H:12])([H:13])[C@@:7]12[H:14])\[H:8]>>[N:1](=[C:2]1\[O:3][C:4]([H:9])([H:14])[C:5]([H:10])([H:11])[C:6]([H:12])([H:13])[C:7]1)\[H:8]"
N        2.59301923       0.19141044       0.59887521
C        1.46267324       0.03385416       0.07695599
O        0.95976864      -1.07783706      -0.54835118
C       -0.30121414      -0.55765899      -1.00681810
C       -1.30087741      -0.43269490       0.14400590
C       -0.76883432       0.89799648       0.71426208
C        0.44687992       1.07610561      -0.17387291
H        3.08977991      -0.69607756       0.65439876
H       -0.61515797      -1.16097774      -1.85595506
H       -1.25112275      -1.27737283       0.83162810
H       -2.32383662      -0.34591208      -0.22354869
H       -0.47009663       0.88823693       1.76573830
H       -1.46602921       1.72736636       0.58774274
H       -0.05495189       0.73356118      -1.56506115
14
Frame=13 idx=011231 GeodesicLength=0.7142501160199063 rxn_smarts="[N:1](=[C:2]1\[O:3][C@@:4]2([H:9])[C:5]([H:10])([H:11])[C:6]([H:12])([H:13])[C@@:7]12[H:14])\[H:8]>>[N:1](=[C:2]1\[O:3][C:4]([H:9])([H:14])[C:5]([H:10])([H:11])[C:6]([H:12])([H:13])[C:7]1)\[H:8]"
N        2.59966908       0.18834610       0.59367827
C        1.46294812       0.02823921       0.08589426
O        0.95776415      -1.08012877      -0.54222518
C       -0.30175130      -0.55313824      -1.00632642
C       -1.30232804      -0.43502994       0.14480829
C       -0.77285336       0.89739864       0.71449234
C        0.44810623       1.07071579      -0.16468250
H        3.09659551      -0.69960968       0.64418334
H       -0.61406874      -1.16124944      -1.85244732
H       -1.24701547      -1.27815165       0.83376480
H       -2.32650299      -0.35240356      -0.22015775
H       -0.48309775       0.89525769       1.76865148
H       -1.46708253       1.72780244       0.57762506
H       -0.05038291       0.75195141      -1.57725865
14
Frame=14 idx=011231 GeodesicLength=0.7691006163585955 rxn_smarts="[N:1](=[C:2]1\[O:3][C@@:4]2([H:9])[C:5]([H:10])([H:11])[C:6]([H:12])([H:13])[C@@:7]12[H:14])\[H:8]>>[N:1](=[C:2]1\[O:3][C:4]([H:9])([H:14])[C:5]([H:10])([H:11])[C:6]([H:12])([H:13])[C:7]1)\[H:8]"
N        2.60623395       0.18533537       0.58817953
C        1.46322612       0.02258142       0.09482421
O        0.95576177      -1.08248161      -0.53606555
C       -0.30227796      -0.54871395      -1.00575512
C       -1.30375134      -0.43744361       0.14567651
C       -0.77684757       0.89676420       0.71469947
C        0.44926284       1.06523199      -0.15553803
H        3.10312525      -0.70314625       0.63416064
H       -0.61295484      -1.16141817      -1.84896757
H       -1.24290361      -1.27893841       0.83600393
H       -2.32911735      -0.35899004      -0.21670570
H       -0.49608182       0.90233814       1.77140533
H       -1.46802218       1.72813571       0.56748348
H       -0.04565328       0.77074521      -1.58940111
14
Frame=15 idx=011231 GeodesicLength=0.8239313122705227 rxn_smarts="[N:1](=[C:2]1\[O:3][C@@:4]2([H:9])[C:5]([H:10])([H:11])[C:6]([H:12])([H:13])[C@@:7]12[H:14])\[H:8]>>[N:1](=[C:2]1\[O:3][C:4]([H:9])([H:14])[C:5]([H:10])([H:11])[C:6]([H:12])([H:13])[C:7]1)\[H:8]"
N        2.61269834       0.18237627       0.58238257
C        1.46351697       0.01689479       0.10370746
O        0.95376607      -1.08488880      -0.52989449
C       -0.30279968      -0.54438861      -1.00511152
C       -1.30513902      -0.43993968       0.14661455
C       -0.78080753       0.89609101       0.71488114
C        0.45034786       1.05966089      -0.14645694
H        3.10933946      -0.70670143       0.62440344
H       -0.61182852      -1.16149477      -1.84551841
H       -1.23876875      -1.27973629       0.83834908
H       -2.33167588      -0.36567872      -0.21317635
H       -0.50902198       0.90947523       1.77399181
H       -1.46884545       1.72835992       0.55732746
H       -0.04078189       0.78997020      -1.60149981
14
Frame=16 idx=011231 GeodesicLength=0.8787414293306228 rxn_smarts="[N:1](=[C:2]1\[O:3][C@@:4]2([H:9])[C:5]([H:10])([H:11])[C:6]([H:12])([H:13])[C@@:7]12[H:14])\[H:8]>>[N:1](=[C:2]1\[O:3][C:4]([H:9])([H:14])[C:5]([H:10])([H:11])[C:6]([H:12])([H:13])[C:7]1)\[H:8]"
N        2.61905150       0.17946882       0.57627871
C        1.46383218       0.01119660       0.11249442
O        0.95178258      -1.08734102      -0.52374348
C       -0.30332442      -0.54016349      -1.00440652
C       -1.30648012      -0.44252326       0.14762751
C       -0.78472086       0.89537592       0.71503506
C        0.45135880       1.05401103      -0.13746235
H        3.11519488      -0.71029547       0.61502248
H       -0.61070693      -1.16148870      -1.84210493
H       -1.23458518      -1.28055025       0.84080369
H       -2.33417365      -0.37247967      -0.20954766
H       -0.52188375       0.91666428       1.77640234
H       -1.46954946       1.72846688       0.54716997
H       -0.03579558       0.80965834      -1.61356922
