15
Frame=0 idx=011735 GeodesicLength=0.0 rxn_smarts="[C:1]([C@:2]12[C:3]([H:11])([H:12])[O:4][C@@:5]1([H:13])[C@:6]2([O:7][H:15])[H:14])([H:8])([H:9])[H:10]>>[C:1]([C:2]1=[C:5]([H:13])[C@:6]1([O:7][H:15])[H:14])([H:8])([H:9])[H:10].[C:3](=[O:4])([H:11])[H:12]"
C       -1.45973823       1.14507739      -0.29845732
C       -0.21358591       0.34516654      -0.33443906
C        0.14956894      -0.42337741       1.31978758
O        1.33982135      -1.00796522       1.35583519
C        1.13433392       0.34738369      -0.09918616
C        0.62862531      -0.54632370      -1.17154437
O        0.65915238      -1.92154195      -1.06508410
H       -1.39095956       1.95058968       0.43416935
H       -1.65063146       1.58820395      -1.27729728
H       -2.31686963       0.51587066      -0.04563362
H       -0.74711295      -1.06926793       1.32389380
H       -0.01123372       0.45278608       1.96672317
H        1.98208496       0.91992368       0.24266218
H        0.87256026      -0.20360262      -2.17559916
H        1.02398434      -2.09292289      -0.17583023
15
Frame=1 idx=011735 GeodesicLength=0.10558710910570691 rxn_smarts="[C:1]([C@:2]12[C:3]([H:11])([H:12])[O:4][C@@:5]1([H:13])[C@:6]2([O:7][H:15])[H:14])([H:8])([H:9])[H:10]>>[C:1]([C:2]1=[C:5]([H:13])[C@:6]1([O:7][H:15])[H:14])([H:8])([H:9])[H:10].[C:3](=[O:4])([H:11])[H:12]"
C       -1.45375717       1.15496542      -0.30632874
C       -0.21343032       0.34537682      -0.32966722
C        0.14020030      -0.44017804       1.34169415
O        1.34356141      -0.99634287       1.36549033
C        1.13851713       0.35327488      -0.10582510
C        0.62662347      -0.54309596      -1.17276379
O        0.65829382      -1.91911945      -1.06239026
H       -1.38013863       1.97251740       0.41240687
H       -1.64549101       1.58234648      -1.29196860
H       -2.31401502       0.53535660      -0.04089161
H       -0.74058117      -1.10689117       1.33199303
H       -0.03593151       0.41963479       2.00611325
H        1.98656952       0.93847476       0.21325882
H        0.85463213      -0.20579595      -2.18213226
H        1.03494705      -2.09052373      -0.17898887
15
Frame=2 idx=011735 GeodesicLength=0.2110809613975389 rxn_smarts="[C:1]([C@:2]12[C:3]([H:11])([H:12])[O:4][C@@:5]1([H:13])[C@:6]2([O:7][H:15])[H:14])([H:8])([H:9])[H:10]>>[C:1]([C:2]1=[C:5]([H:13])[C@:6]1([O:7][H:15])[H:14])([H:8])([H:9])[H:10].[C:3](=[O:4])([H:11])[H:12]"
C       -1.44734410       1.16522362      -0.31413599
C       -0.21302421       0.34595640      -0.32485213
C        0.13014540      -0.45758751       1.36380480
O        1.34658168      -0.98334751       1.37566828
C        1.14296533       0.35951651      -0.11304702
C        0.62440759      -0.53990541      -1.17396859
O        0.65785064      -1.91667538      -1.05913343
H       -1.36855258       1.99463056       0.39037563
H       -1.64028670       1.57665892      -1.30629360
H       -2.31066613       0.55562580      -0.03588266
H       -0.73332909      -1.14560388       1.33977757
H       -0.06241097       0.38447429       2.04602018
H        1.99113390       0.95716407       0.18200379
H        0.83607846      -0.20853994      -2.18860806
H        1.04645078      -2.08759053      -0.18172876
15
Frame=3 idx=011735 GeodesicLength=0.31650049371876177 rxn_smarts="[C:1]([C@:2]12[C:3]([H:11])([H:12])[O:4][C@@:5]1([H:13])[C@:6]2([O:7][H:15])[H:14])([H:8])([H:9])[H:10]>>[C:1]([C:2]1=[C:5]([H:13])[C@:6]1([O:7][H:15])[H:14])([H:8])([H:9])[H:10].[C:3](=[O:4])([H:11])[H:12]"
C       -1.44047827       1.17586102      -0.32185852
C       -0.21232586       0.34695410      -0.32000093
C        0.11933998      -0.47562903       1.38611117
O        1.34874715      -0.96884354       1.38640885
C        1.14771577       0.36613414      -0.12091577
C        0.62197141      -0.53675452      -1.17515760
O        0.65787065      -1.91419924      -1.05527198
H       -1.35619176       2.01692339       0.36809837
H       -1.63502930       1.57115860      -1.32023305
H       -2.30677509       0.57668424      -0.03059790
H       -0.72530878      -1.18538904       1.34723792
H       -0.09071473       0.34711039       2.08643649
H        1.99580379       0.97594007       0.14875643
H        0.81686132      -0.21188113      -2.19501855
H        1.05851372      -2.08406944      -0.18399494
15
Frame=4 idx=011735 GeodesicLength=0.42187771313941635 rxn_smarts="[C:1]([C@:2]12[C:3]([H:11])([H:12])[O:4][C@@:5]1([H:13])[C@:6]2([O:7][H:15])[H:14])([H:8])([H:9])[H:10]>>[C:1]([C:2]1=[C:5]([H:13])[C@:6]1([O:7][H:15])[H:14])([H:8])([H:9])[H:10].[C:3](=[O:4])([H:11])[H:12]"
C       -1.43313705       1.18689326      -0.32947408
C       -0.21128656       0.34842615      -0.31512351
C        0.10771770      -0.49432451       1.40860041
O        1.34989368      -0.95267106       1.39775745
C        1.15281159       0.37315647      -0.12950887
C        0.61931087      -0.53364790      -1.17632807
O        0.65841220      -1.91167901      -1.05075709
H       -1.34304288       2.03940020       0.34559659
H       -1.62973357       1.56587041      -1.33374867
H       -2.30229150       0.59853894      -0.02502481
H       -0.71646392      -1.22622978       1.35436475
H       -0.12088083       0.30730059       2.12735865
H        2.00059654       0.99474028       0.11335885
H        0.79693491      -0.21587688      -2.20135026
H        1.07115881      -2.07989714      -0.18572134
15
Frame=5 idx=011735 GeodesicLength=0.5272304371746332 rxn_smarts="[C:1]([C@:2]12[C:3]([H:11])([H:12])[O:4][C@@:5]1([H:13])[C@:6]2([O:7][H:15])[H:14])([H:8])([H:9])[H:10]>>[C:1]([C:2]1=[C:5]([H:13])[C@:6]1([O:7][H:15])[H:14])([H:8])([H:9])[H:10].[C:3](=[O:4])([H:11])[H:12]"
C       -1.42530091       1.19833040      -0.33696158
C       -0.20985924       0.35042320      -0.31023723
C        0.09520903      -0.51370196       1.43125622
O        1.34984431      -0.93467434       1.40975734
C        1.15829135       0.38060789      -0.13890339
C        0.61642421      -0.53059241      -1.17748108
O        0.65952988      -1.90910172      -1.04554525
H       -1.32909732       2.06205467       0.32289404
H       -1.62441009       1.56081365      -1.34679521
H       -2.29716465       0.62119905      -0.01915584
H       -0.70674294      -1.26808723       1.36115846
H       -0.15290216       0.26481443       2.16876964
H        2.00551698       1.01351161       0.07568146
H        0.77626046      -0.22058364      -2.20759515
H        1.08440108      -2.07501360      -0.18684242
15
Frame=6 idx=011735 GeodesicLength=0.6325779058213481 rxn_smarts="[C:1]([C@:2]12[C:3]([H:11])([H:12])[O:4][C@@:5]1([H:13])[C@:6]2([O:7][H:15])[H:14])([H:8])([H:9])[H:10]>>[C:1]([C:2]1=[C:5]([H:13])[C@:6]1([O:7][H:15])[H:14])([H:8])([H:9])[H:10].[C:3](=[O:4])([H:11])[H:12]"
C       -1.41694982       1.21018992      -0.34430178
C       -0.20798608       0.35300935      -0.30535120
C        0.08173325      -0.53377963       1.45406867
O        1.34836313      -0.91468591       1.42245696
C        1.16420358       0.38851948      -0.14918164
C        0.61331558      -0.52758396      -1.17860807
O        0.66128408      -1.90644073      -1.03959230
H       -1.31434645       2.08490068       0.29999600
H       -1.61908427       1.55600431      -1.35934332
H       -2.29133840       0.64466575      -0.01295952
H       -0.69604586      -1.31094196       1.36763839
H       -0.18675183       0.21937996       2.21058989
H        2.01056890       1.03216402       0.03558969
H        0.75479244      -0.22605312      -2.21371928
H        1.09824176      -2.06934816      -0.18728250
15
Frame=7 idx=011735 GeodesicLength=0.7379177308846662 rxn_smarts="[C:1]([C@:2]12[C:3]([H:11])([H:12])[O:4][C@@:5]1([H:13])[C@:6]2([O:7][H:15])[H:14])([H:8])([H:9])[H:10]>>[C:1]([C:2]1=[C:5]([H:13])[C@:6]1([O:7][H:15])[H:14])([H:8])([H:9])[H:10].[C:3](=[O:4])([H:11])[H:12]"
C       -1.40806640       1.22247650      -0.35148261
C       -0.20561032       0.35624029      -0.30048448
C        0.06721608      -0.55457623       1.47702737
O        1.34521028      -0.89256709       1.43589391
C        1.17058859       0.39691055      -0.16041609
C        0.60999155      -0.52461471      -1.17970667
O        0.66371094      -1.90366552      -1.03287227
H       -1.29879456       2.10793865       0.27689623
H       -1.61377996       1.55144127      -1.37136736
H       -2.28475785       0.66893328      -0.00641245
H       -0.68426882      -1.35474973       1.37384630
H       -0.22233344       0.17077732       2.25273172
H        2.01573815       1.05061758      -0.00698354
H        0.73250246      -0.23231870      -2.21968985
H        1.11265328      -2.06284346      -0.18698018
15
Frame=8 idx=011735 GeodesicLength=0.8432774060210928 rxn_smarts="[C:1]([C@:2]12[C:3]([H:11])([H:12])[O:4][C@@:5]1([H:13])[C@:6]2([O:7][H:15])[H:14])([H:8])([H:9])[H:10]>>[C:1]([C:2]1=[C:5]([H:13])[C@:6]1([O:7][H:15])[H:14])([H:8])([H:9])[H:10].[C:3](=[O:4])([H:11])[H:12]"
C       -1.39862462       1.23520711      -0.35848949
C       -0.20266942       0.36018153      -0.29566150
C        0.05157098      -0.57611382       1.50011698
O        1.34008307      -0.86813633       1.45012721
C        1.17748487       0.40580694      -0.17269306
C        0.60646107      -0.52167877      -1.18076974
O        0.66686626      -1.90074588      -1.02534800
H       -1.28242682       2.13118295       0.25358043
H       -1.60852070       1.54712938      -1.38283777
H       -2.27735646       0.69401150       0.00053284
H       -0.67128598      -1.39946136       1.37983299
H       -0.25954417       0.11869340       2.29506591
H        2.02099225       1.06877978      -0.05214055
H        0.70935066      -0.23942517      -2.22546529
H        1.12761902      -2.05543125      -0.18585095
15
Frame=9 idx=011735 GeodesicLength=0.94854085019957 rxn_smarts="[C:1]([C@:2]12[C:3]([H:11])([H:12])[O:4][C@@:5]1([H:13])[C@:6]2([O:7][H:15])[H:14])([H:8])([H:9])[H:10]>>[C:1]([C:2]1=[C:5]([H:13])[C@:6]1([O:7][H:15])[H:14])([H:8])([H:9])[H:10].[C:3](=[O:4])([H:11])[H:12]"
C       -1.38857976       1.24841951      -0.36524765
C       -0.19907810       0.36485875      -0.29085449
C        0.03473388      -0.59849161       1.52335174
O        1.33264668      -0.84118365       1.46490965
C        1.18496395       0.41514014      -0.18609721
C        0.60272416      -0.51878667      -1.18175092
O        0.67085864      -1.89762134      -1.01698864
H       -1.26515866       2.15474107       0.23001979
H       -1.60340633       1.54304281      -1.39367781
H       -2.26903891       0.71992237       0.00811919
H       -0.65674804      -1.44527901       1.38568544
H       -0.29875712       0.06325154       2.33719050
H        2.02639620       1.08641228      -0.09987441
H        0.68527870      -0.24741262      -2.23092773
H        1.14316472      -2.04701359      -0.18385745
15
Frame=10 idx=011735 GeodesicLength=1.0537956343903796 rxn_smarts="[C:1]([C@:2]12[C:3]([H:11])([H:12])[O:4][C@@:5]1([H:13])[C@:6]2([O:7][H:15])[H:14])([H:8])([H:9])[H:10]>>[C:1]([C:2]1=[C:5]([H:13])[C@:6]1([O:7][H:15])[H:14])([H:8])([H:9])[H:10].[C:3](=[O:4])([H:11])[H:12]"
C       -1.37795853       1.26209714      -0.37182163
C       -0.19481817       0.37035685      -0.28617268
C        0.01663348      -0.62169370       1.54666390
O        1.32251096      -0.81165338       1.48044183
C        1.19300428       0.42496825      -0.20066110
C        0.59882699      -0.51591753      -1.18267769
O        0.67566136      -1.89427569      -1.00778788
H       -1.24708255       2.17853470       0.20618366
H       -1.59842619       1.53918972      -1.40391159
H       -2.25978340       0.74664394       0.01619215
H       -0.64071739      -1.49187562       1.39146698
H       -0.33916802       0.00396079       2.37924159
H        2.03178914       1.10354664      -0.15018010
H        0.66035763      -0.25630140      -2.23607201
H        1.15917041      -2.03758071      -0.18090543
15
Frame=11 idx=011735 GeodesicLength=1.159022372389424 rxn_smarts="[C:1]([C@:2]12[C:3]([H:11])([H:12])[O:4][C@@:5]1([H:13])[C@:6]2([O:7][H:15])[H:14])([H:8])([H:9])[H:10]>>[C:1]([C:2]1=[C:5]([H:13])[C@:6]1([O:7][H:15])[H:14])([H:8])([H:9])[H:10].[C:3](=[O:4])([H:11])[H:12]"
C       -1.36676574       1.27623582      -0.37822531
C       -0.18984535       0.37672087      -0.28167197
C       -0.00278662      -0.64576447       1.57001760
O        1.30929259      -0.77947970       1.49667662
C        1.20162076       0.43527397      -0.21640117
C        0.59481088      -0.51305002      -1.18354102
O        0.68127542      -1.89065502      -0.99774998
H       -1.22822220       2.20255906       0.18201838
H       -1.59362965       1.53553217      -1.41352934
H       -2.24953369       0.77416474       0.02478029
H       -0.62307477      -1.53912725       1.39728092
H       -0.38043094      -0.05930490       2.42111114
H        2.03710064       1.12007056      -0.20298745
H        0.63463769      -0.26608612      -2.24082607
H        1.17555097      -2.02708970      -0.17695265
15
Frame=12 idx=011735 GeodesicLength=1.2642210879515239 rxn_smarts="[C:1]([C@:2]12[C:3]([H:11])([H:12])[O:4][C@@:5]1([H:13])[C@:6]2([O:7][H:15])[H:14])([H:8])([H:9])[H:10]>>[C:1]([C:2]1=[C:5]([H:13])[C@:6]1([O:7][H:15])[H:14])([H:8])([H:9])[H:10].[C:3](=[O:4])([H:11])[H:12]"
C       -1.35501262       1.29084480      -0.38449455
C       -0.18413207       0.38400257      -0.27742308
C       -0.02357262      -0.67072836       1.59338620
O        1.29254337      -0.74463824       1.51353640
C        1.21080957       0.44602635      -0.23330966
C        0.59072755      -0.51015693      -1.18432826
O        0.68767563      -1.88669979      -0.98688651
H       -1.20860142       2.22683917       0.15741456
H       -1.58908971       1.53202134      -1.42254860
H       -2.23823537       0.80249110       0.03393257
H       -0.60362020      -1.58690818       1.40327481
H       -0.42212320      -0.12670466       2.46266296
H        2.04223906       1.13586789      -0.25816292
H        0.60820876      -0.27673800      -2.24509943
H        1.19218328      -2.01551905      -0.17195449
15
Frame=13 idx=011735 GeodesicLength=1.3693433753226214 rxn_smarts="[C:1]([C@:2]12[C:3]([H:11])([H:12])[O:4][C@@:5]1([H:13])[C@:6]2([O:7][H:15])[H:14])([H:8])([H:9])[H:10]>>[C:1]([C:2]1=[C:5]([H:13])[C@:6]1([O:7][H:15])[H:14])([H:8])([H:9])[H:10].[C:3](=[O:4])([H:11])[H:12]"
C       -1.34272593       1.30595146      -0.39066002
C       -0.17766061       0.39222559      -0.27350409
C       -0.04573053      -0.69662974       1.61676685
O        1.27180925      -0.70718619       1.53079595
C        1.22056035       0.45713871      -0.25131369
C        0.58664070      -0.50721070      -1.18501530
O        0.69481086      -1.88235386      -0.97523378
H       -1.18823231       2.25146371       0.13221343
H       -1.58495615       1.52859313      -1.43097647
H       -2.22583017       0.83163777       0.04378400
H       -0.58199874      -1.63518099       1.40965245
H       -0.46397508      -0.19816043       2.50365187
H        2.04713432       1.15077425      -0.31546276
H        0.58121987      -0.28819041      -2.24878160
H        1.20893417      -2.00287229      -0.16591685
15
Frame=14 idx=011735 GeodesicLength=1.474499092212806 rxn_smarts="[C:1]([C@:2]12[C:3]([H:11])([H:12])[O:4][C@@:5]1([H:13])[C@:6]2([O:7][H:15])[H:14])([H:8])([H:9])[H:10]>>[C:1]([C:2]1=[C:5]([H:13])[C@:6]1([O:7][H:15])[H:14])([H:8])([H:9])[H:10].[C:3](=[O:4])([H:11])[H:12]"
C       -1.32996166       1.32153710      -0.39682972
C       -0.17045202       0.40144790      -0.27003465
C       -0.06930142      -0.72350750       1.64007527
O        1.24656888      -0.66727638       1.54848348
C        1.23083002       0.46861185      -0.27032260
C        0.58264224      -0.50415804      -1.18561580
O        0.70257464      -1.87756435      -0.96283353
H       -1.16722528       2.27637320       0.10627344
H       -1.58125671       1.52518216      -1.43887924
H       -2.21230839       0.86161544       0.05420986
H       -0.55824252      -1.68358062       1.41654449
H       -0.50497771      -0.27387937       2.54422472
H        2.05163265       1.16475268      -0.37465121
H        0.55386639      -0.30036735      -2.25183252
H        1.22561088      -1.98918671      -0.15881199
15
Frame=15 idx=011735 GeodesicLength=1.5797235856726315 rxn_smarts="[C:1]([C@:2]12[C:3]([H:11])([H:12])[O:4][C@@:5]1([H:13])[C@:6]2([O:7][H:15])[H:14])([H:8])([H:9])[H:10]>>[C:1]([C:2]1=[C:5]([H:13])[C@:6]1([O:7][H:15])[H:14])([H:8])([H:9])[H:10].[C:3](=[O:4])([H:11])[H:12]"
C       -1.31677897       1.33760223      -0.40309994
C       -0.16254125       0.41169193      -0.26712033
C       -0.09427202      -0.75141104       1.66328521
O        1.21636927      -0.62514657       1.56642027
C        1.24157146       0.48037826      -0.29018223
C        0.57882356      -0.50094289      -1.18612310
O        0.71082819      -1.87227245      -0.94974239
H       -1.14565408       2.30158289       0.07938105
H       -1.57809482       1.52168182      -1.44631106
H       -2.19764282       0.89245670       0.06521542
H       -0.53221619      -1.73184194       1.42412740
H       -0.54440965      -0.35382751       2.58436193
H        2.05561804       1.17770575      -0.43536654
H        0.52638381      -0.31314249      -2.25417989
H        1.24201548      -1.97451470      -0.15066580
15
Frame=16 idx=011735 GeodesicLength=1.685095799727029 rxn_smarts="[C:1]([C@:2]12[C:3]([H:11])([H:12])[O:4][C@@:5]1([H:13])[C@:6]2([O:7][H:15])[H:14])([H:8])([H:9])[H:10]>>[C:1]([C:2]1=[C:5]([H:13])[C@:6]1([O:7][H:15])[H:14])([H:8])([H:9])[H:10].[C:3](=[O:4])([H:11])[H:12]"
C       -1.30326120       1.35416776      -0.40958934
C       -0.15399413       0.42297542      -0.26487464
C       -0.12063208      -0.78040707       1.68637392
O        1.18071920      -0.58116314       1.58440189
C        1.25273244       0.49236386      -0.31067723
C        0.57528863      -0.49750111      -1.18653438
O        0.71939989      -1.86643177      -0.93603431
H       -1.12360287       2.32715077       0.05125720
H       -1.57563156       1.51797891      -1.45334530
H       -2.18182144       0.92422801       0.07681417
H       -0.50371721      -1.77971596       1.43259630
H       -0.58147914      -0.43787211       2.62407625
H        2.05899827       1.18953253      -0.49716728
H        0.49906517      -0.32635168      -2.25576483
H        1.25793603      -1.95895445      -0.14153243
