15
Frame=0 idx=008875 GeodesicLength=0.0 rxn_smarts="[C:1]([n:2]1[c:3]([H:11])[c:4]([H:12])[c:5]([N:6]([H:13])[H:14])[c:7]1[H:15])([H:8])([H:9])[H:10]>>[C:1]([N+:2]1=[C:7]([H:15])[C:5](=[N:6][H:14])[C:4]([H:12])([H:13])[C-:3]1[H:11])([H:8])([H:9])[H:10]"
C        2.18751036       0.20042900      -0.07398793
N        0.78826102      -0.05788214       0.16910460
C        0.22963222      -1.31058123       0.24536650
C       -1.11805096      -1.21918361       0.21008070
C       -1.47684181       0.19655563       0.08527982
N       -2.78795359       0.67275789       0.07620041
C       -0.20575964       0.86529158       0.07197869
H        2.78182854      -0.57696346       0.40466544
H        2.41481304       0.21316590      -1.14323203
H        2.46522507       1.16044853       0.35953005
H        0.86489673      -2.18167653       0.30044217
H       -1.83307755      -2.02224515       0.27972842
H       -1.55269734       0.45055948      -1.05074860
H       -2.75710886       1.69044187       0.10133597
H       -0.00067728       1.91888219      -0.03574418
15
Frame=1 idx=008875 GeodesicLength=0.1197441221298429 rxn_smarts="[C:1]([n:2]1[c:3]([H:11])[c:4]([H:12])[c:5]([N:6]([H:13])[H:14])[c:7]1[H:15])([H:8])([H:9])[H:10]>>[C:1]([N+:2]1=[C:7]([H:15])[C:5](=[N:6][H:14])[C:4]([H:12])([H:13])[C-:3]1[H:11])([H:8])([H:9])[H:10]"
C        2.19178193       0.20178242      -0.06376339
N        0.78980701      -0.05728641       0.16251121
C        0.23146781      -1.30713350       0.24116733
C       -1.12010698      -1.21389939       0.18410422
C       -1.47164704       0.20802912       0.11456604
N       -2.78137480       0.67728814       0.08813169
C       -0.20121616       0.86928441       0.05465315
H        2.78152114      -0.59540327       0.38700815
H        2.42264461       0.25286653      -1.13092059
H        2.47241907       1.14377002       0.40625965
H        0.86452877      -2.18056108       0.28153944
H       -1.83507593      -2.01051608       0.30964168
H       -1.59562859       0.39562683      -1.05991546
H       -2.75611768       1.69544288       0.09124140
H        0.00699684       1.92070935      -0.06622453
15
Frame=2 idx=008875 GeodesicLength=0.23954014929044082 rxn_smarts="[C:1]([n:2]1[c:3]([H:11])[c:4]([H:12])[c:5]([N:6]([H:13])[H:14])[c:7]1[H:15])([H:8])([H:9])[H:10]>>[C:1]([N+:2]1=[C:7]([H:15])[C:5](=[N:6][H:14])[C:4]([H:12])([H:13])[C-:3]1[H:11])([H:8])([H:9])[H:10]"
C        2.19579051       0.20315706      -0.05369043
N        0.79123443      -0.05688421       0.15487673
C        0.23293065      -1.30390060       0.23437487
C       -1.12285679      -1.20726484       0.16585638
C       -1.46555112       0.21935747       0.14069638
N       -2.77378124       0.68200527       0.09791818
C       -0.19689015       0.87309709       0.03790692
H        2.78093030      -0.61324596       0.36752558
H        2.43079156       0.29410755      -1.11710722
H        2.47835423       1.12523951       0.45351900
H        0.86358830      -2.17954570       0.26004198
H       -1.83549973      -1.99722361       0.34053712
H       -1.63968908       0.33854579      -1.06752803
H       -2.75407594       1.70009940       0.07855310
H        0.01472409       1.92245578      -0.09348055
15
Frame=3 idx=008875 GeodesicLength=0.3593368242139232 rxn_smarts="[C:1]([n:2]1[c:3]([H:11])[c:4]([H:12])[c:5]([N:6]([H:13])[H:14])[c:7]1[H:15])([H:8])([H:9])[H:10]>>[C:1]([N+:2]1=[C:7]([H:15])[C:5](=[N:6][H:14])[C:4]([H:12])([H:13])[C-:3]1[H:11])([H:8])([H:9])[H:10]"
C        2.19952127       0.20448460      -0.04423204
N        0.79263905      -0.05656483       0.14668179
C        0.23420445      -1.30073989       0.22622310
C       -1.12612430      -1.19966076       0.15381661
C       -1.45877690       0.23082462       0.16407183
N       -2.76542379       0.68691964       0.10481886
C       -0.19265048       0.87696077       0.02275886
H        2.78030862      -0.63039500       0.34542098
H        2.43849201       0.33660047      -1.10225737
H        2.48347312       1.10469747       0.50042687
H        0.86225938      -2.17848676       0.23728275
H       -1.83483415      -1.98299354       0.37180429
H       -1.68448064       0.27947781      -1.07332155
H       -2.75129422       1.70439902       0.06262057
H        0.02268658       1.92447640      -0.11611554
15
Frame=4 idx=008875 GeodesicLength=0.4791244988479757 rxn_smarts="[C:1]([n:2]1[c:3]([H:11])[c:4]([H:12])[c:5]([N:6]([H:13])[H:14])[c:7]1[H:15])([H:8])([H:9])[H:10]>>[C:1]([N+:2]1=[C:7]([H:15])[C:5](=[N:6][H:14])[C:4]([H:12])([H:13])[C-:3]1[H:11])([H:8])([H:9])[H:10]"
C        2.20301393       0.20569926      -0.03555170
N        0.79406128      -0.05626174       0.13806263
C        0.23535612      -1.29755622       0.21719261
C       -1.12974652      -1.19138652       0.14622003
C       -1.45154771       0.24252769       0.18486348
N       -2.75651031       0.69195074       0.10844047
C       -0.18839817       0.88106507       0.00969706
H        2.77972339      -0.64681319       0.32032665
H        2.44551029       0.38023845      -1.08642782
H        2.48810296       1.08190581       0.54666803
H        0.86061301      -2.17729750       0.21387987
H       -1.83321503      -1.96796454       0.40411721
H       -1.73000497       0.21859756      -1.07721969
H       -2.74797468       1.70825000       0.04320306
H        0.03101640       1.92704512      -0.13347191
15
Frame=5 idx=008875 GeodesicLength=0.5989203821432753 rxn_smarts="[C:1]([n:2]1[c:3]([H:11])[c:4]([H:12])[c:5]([N:6]([H:13])[H:14])[c:7]1[H:15])([H:8])([H:9])[H:10]>>[C:1]([N+:2]1=[C:7]([H:15])[C:5](=[N:6][H:14])[C:4]([H:12])([H:13])[C-:3]1[H:11])([H:8])([H:9])[H:10]"
C        2.20634633       0.20676012      -0.02758249
N        0.79552151      -0.05592871       0.12889140
C        0.23642232      -1.29429502       0.20719222
C       -1.13362124      -1.18259333       0.14187447
C       -1.44401563       0.25452206       0.20330554
N       -2.74715370       0.69706624       0.10888820
C       -0.18405262       0.88555362      -0.00125707
H        2.77914355      -0.66239186       0.29237071
H        2.45204165       0.42488034      -1.06936308
H        2.49237386       1.05669030       0.59220479
H        0.85866449      -2.17590358       0.19002469
H       -1.83060577      -1.95210880       0.43788255
H       -1.77671120       0.15585484      -1.07895862
H       -2.74416005       1.71159348       0.02035539
H        0.03980650       1.93030031      -0.14582868
15
Frame=6 idx=008875 GeodesicLength=0.7186803149893807 rxn_smarts="[C:1]([n:2]1[c:3]([H:11])[c:4]([H:12])[c:5]([N:6]([H:13])[H:14])[c:7]1[H:15])([H:8])([H:9])[H:10]>>[C:1]([N+:2]1=[C:7]([H:15])[C:5](=[N:6][H:14])[C:4]([H:12])([H:13])[C-:3]1[H:11])([H:8])([H:9])[H:10]"
C        2.20953299       0.20760638      -0.02046435
N        0.79702234      -0.05547241       0.11940683
C        0.23737055      -1.29084151       0.19648351
C       -1.13763268      -1.17335500       0.13997234
C       -1.43636077       0.26684817       0.21965102
N       -2.73747692       0.70219110       0.10586329
C       -0.17953259       0.89062140      -0.00957416
H        2.77854997      -0.67708106       0.26117981
H        2.45784023       0.47041340      -1.05108129
H        2.49663531       1.02880136       0.63670939
H        0.85643226      -2.17423761       0.16628091
H       -1.82689633      -1.93541469       0.47294880
H       -1.82469565       0.09116057      -1.07828027
H       -2.73991940       1.71433192      -0.00630540
H        0.04913071       1.93442801      -0.15279045
15
Frame=7 idx=008875 GeodesicLength=0.8384228432278679 rxn_smarts="[C:1]([n:2]1[c:3]([H:11])[c:4]([H:12])[c:5]([N:6]([H:13])[H:14])[c:7]1[H:15])([H:8])([H:9])[H:10]>>[C:1]([N+:2]1=[C:7]([H:15])[C:5](=[N:6][H:14])[C:4]([H:12])([H:13])[C-:3]1[H:11])([H:8])([H:9])[H:10]"
C        2.21261732       0.20821282      -0.01415334
N        0.79856198      -0.05481441       0.10964814
C        0.23818731      -1.28711707       0.18486236
C       -1.14173759      -1.16368841       0.13997922
C       -1.42870871       0.27954641       0.23417441
N       -2.72750911       0.70729808       0.09932183
C       -0.17476867       0.89641809      -0.01502305
H        2.77786877      -0.69075006       0.22675512
H        2.46297938       0.51673577      -1.03134508
H        2.50106453       0.99804121       0.68008942
H        0.85390981      -2.17224412       0.14264074
H       -1.82197043      -1.91780147       0.50938872
H       -1.87437870       0.02427021      -1.07473186
H       -2.73515635       1.71637868      -0.03709710
H        0.05904048       1.93951426      -0.15450953
15
Frame=8 idx=008875 GeodesicLength=0.9581349081706111 rxn_smarts="[C:1]([n:2]1[c:3]([H:11])[c:4]([H:12])[c:5]([N:6]([H:13])[H:14])[c:7]1[H:15])([H:8])([H:9])[H:10]>>[C:1]([N+:2]1=[C:7]([H:15])[C:5](=[N:6][H:14])[C:4]([H:12])([H:13])[C-:3]1[H:11])([H:8])([H:9])[H:10]"
C        2.21562108       0.20855711      -0.00864457
N        0.80012375      -0.05385615       0.09977733
C        0.23882827      -1.28302285       0.17213911
C       -1.14590495      -1.15357469       0.14149289
C       -1.42118635       0.29265612       0.24715676
N       -2.71724291       0.71235475       0.08905466
C       -0.16969653       0.90309354      -0.01717517
H        2.77700872      -0.70324228       0.18902258
H        2.46742517       0.56371136      -1.00996916
H        2.50589123       0.96422048       0.72214201
H        0.85108640      -2.16985939       0.11910001
H       -1.81568473      -1.89919157       0.54712450
H       -1.92613856      -0.04509173      -1.06774095
H       -2.72969798       1.71761668      -0.07249967
H        0.06956740       1.94562861      -0.15098032
15
Frame=9 idx=008875 GeodesicLength=1.077804484555873 rxn_smarts="[C:1]([n:2]1[c:3]([H:11])[c:4]([H:12])[c:5]([N:6]([H:13])[H:14])[c:7]1[H:15])([H:8])([H:9])[H:10]>>[C:1]([N+:2]1=[C:7]([H:15])[C:5](=[N:6][H:14])[C:4]([H:12])([H:13])[C-:3]1[H:11])([H:8])([H:9])[H:10]"
C        2.21856382       0.20864496      -0.00377996
N        0.80167303      -0.05252248       0.08971556
C        0.23921757      -1.27850383       0.15767559
C       -1.15013904      -1.14295750       0.14426145
C       -1.41384525       0.30624779       0.25885649
N       -2.70657778       0.71737028       0.07493345
C       -0.16425515       0.91074046      -0.01580192
H        2.77580836      -0.71436261       0.14817787
H        2.47141450       0.61128192      -0.98653066
H        2.51112477       0.92715525       0.76292498
H        0.84791681      -2.16701436       0.09514679
H       -1.80777601      -1.87940621       0.58641932
H       -1.98065196      -0.11733995      -1.05641008
H       -2.72321036       1.71790814      -0.11299847
H        0.08073670       1.95275816      -0.14259042
15
Frame=10 idx=008875 GeodesicLength=1.1974154048021517 rxn_smarts="[C:1]([n:2]1[c:3]([H:11])[c:4]([H:12])[c:5]([N:6]([H:13])[H:14])[c:7]1[H:15])([H:8])([H:9])[H:10]>>[C:1]([N+:2]1=[C:7]([H:15])[C:5](=[N:6][H:14])[C:4]([H:12])([H:13])[C-:3]1[H:11])([H:8])([H:9])[H:10]"
C        2.22140140       0.20845503       0.00026884
N        0.80315183      -0.05065565       0.07995070
C        0.23923418      -1.27338483       0.14132061
C       -1.15445174      -1.13178233       0.14798245
C       -1.40687187       0.32035983       0.26961890
N       -2.69538869       0.72224956       0.05621062
C       -0.15838229       0.91954017      -0.00984936
H        2.77411180      -0.72391662       0.10381474
H        2.47459722       0.65926556      -0.96107888
H        2.51716725       0.88662838       0.80191079
H        0.84435436      -2.16358595       0.07095658
H       -1.79805864      -1.85840665       0.62699887
H       -2.03819579      -0.19278226      -1.03983084
H       -2.71523187       1.71698190      -0.15974702
H        0.09256285       1.96103389      -0.12852702
15
Frame=11 idx=008875 GeodesicLength=1.31693693717934 rxn_smarts="[C:1]([n:2]1[c:3]([H:11])[c:4]([H:12])[c:5]([N:6]([H:13])[H:14])[c:7]1[H:15])([H:8])([H:9])[H:10]>>[C:1]([N+:2]1=[C:7]([H:15])[C:5](=[N:6][H:14])[C:4]([H:12])([H:13])[C-:3]1[H:11])([H:8])([H:9])[H:10]"
C        2.22407393       0.20800967       0.00340312
N        0.80446585      -0.04810619       0.07086243
C        0.23870704      -1.26748362       0.12255678
C       -1.15891512      -1.11997867       0.15244589
C       -1.40044736       0.33505023       0.27984265
N       -2.68339408       0.72691694       0.03201324
C       -0.15204817       0.92959329       0.00182390
H        2.77168027      -0.73163352       0.05561237
H        2.47672808       0.70759406      -0.93350325
H        2.52436255       0.84240591       0.83870570
H        0.84029740      -2.15943257       0.04629726
H       -1.78626433      -1.83608967       0.66887967
H       -2.09931738      -0.27182812      -1.01666685
H       -2.70494831       1.71448123      -0.21421674
H        0.10501962       1.97050103      -0.10805616
15
Frame=12 idx=008875 GeodesicLength=1.43631206174771 rxn_smarts="[C:1]([n:2]1[c:3]([H:11])[c:4]([H:12])[c:5]([N:6]([H:13])[H:14])[c:7]1[H:15])([H:8])([H:9])[H:10]>>[C:1]([N+:2]1=[C:7]([H:15])[C:5](=[N:6][H:14])[C:4]([H:12])([H:13])[C-:3]1[H:11])([H:8])([H:9])[H:10]"
C        2.22646712       0.20737901       0.00557636
N        0.80546601      -0.04471511       0.06276379
C        0.23736762      -1.26056184       0.10046881
C       -1.16365203      -1.10745991       0.15741647
C       -1.39475979       0.35039643       0.29001882
N       -2.67007942       0.73126240       0.00124303
C       -0.14523121       0.94091493       0.02059494
H        2.76814968      -0.73712732       0.00338312
H        2.47764360       0.75622267      -0.90358595
H        2.53291576       0.79428013       0.87293273
H        0.83557000      -2.15435018       0.02068065
H       -1.77195609      -1.81234458       0.71214463
H       -2.16491566      -0.35488521      -0.98491501
H       -2.69104100       1.70987683      -0.27820687
H        0.11805540       1.98111175      -0.08051552
15
Frame=13 idx=008875 GeodesicLength=1.555429817776247 rxn_smarts="[C:1]([n:2]1[c:3]([H:11])[c:4]([H:12])[c:5]([N:6]([H:13])[H:14])[c:7]1[H:15])([H:8])([H:9])[H:10]>>[C:1]([N+:2]1=[C:7]([H:15])[C:5](=[N:6][H:14])[C:4]([H:12])([H:13])[C-:3]1[H:11])([H:8])([H:9])[H:10]"
C        2.22830405       0.20668790       0.00605905
N        0.80589404      -0.04023703       0.05756109
C        0.23488669      -1.25221694       0.07543743
C       -1.16889354      -1.09420557       0.16242590
C       -1.39034128       0.36635723       0.30102235
N       -2.65452375       0.73495817      -0.03870025
C       -0.13805583       0.95350921       0.05021490
H        2.76305232      -0.73993829      -0.05406304
H        2.47562815       0.80478240      -0.87238320
H        2.54425291       0.74245388       0.90285250
H        0.82994477      -2.14793337      -0.00536965
H       -1.75519294      -1.78747871       0.75564804
H       -2.23517683      -0.44190400      -0.94262972
H       -2.67107497       1.70235097      -0.35487446
H        0.13129622       1.99281417      -0.04320095
15
Frame=14 idx=008875 GeodesicLength=1.67413002775636 rxn_smarts="[C:1]([n:2]1[c:3]([H:11])[c:4]([H:12])[c:5]([N:6]([H:13])[H:14])[c:7]1[H:15])([H:8])([H:9])[H:10]>>[C:1]([N+:2]1=[C:7]([H:15])[C:5](=[N:6][H:14])[C:4]([H:12])([H:13])[C-:3]1[H:11])([H:8])([H:9])[H:10]"
C        2.22928950       0.20626376       0.00572061
N        0.80543266      -0.03453859       0.05493815
C        0.23067579      -1.24194882       0.04509777
C       -1.17495533      -1.08007865       0.16741530
C       -1.38725448       0.38319911       0.31373130
N       -2.63505763       0.73760195      -0.08913115
C       -0.13052063       0.96684550       0.09148213
H        2.75565893      -0.73932313      -0.11485839
H        2.47149980       0.85315105      -0.83867980
H        2.55733857       0.68738199       0.92897618
H        0.82258041      -2.13960031      -0.03666491
H       -1.73464403      -1.76126369       0.80059756
H       -2.31304394      -0.53314320      -0.88424982
H       -2.64161684       1.69045678      -0.44687631
H        0.14461720       2.00499626       0.00250139
15
Frame=15 idx=008875 GeodesicLength=1.7921344402105486 rxn_smarts="[C:1]([n:2]1[c:3]([H:11])[c:4]([H:12])[c:5]([N:6]([H:13])[H:14])[c:7]1[H:15])([H:8])([H:9])[H:10]>>[C:1]([N+:2]1=[C:7]([H:15])[C:5](=[N:6][H:14])[C:4]([H:12])([H:13])[C-:3]1[H:11])([H:8])([H:9])[H:10]"
C        2.22894083       0.20655485       0.00563572
N        0.80359808      -0.02733769       0.05507459
C        0.22386467      -1.22873287       0.00791212
C       -1.18236839      -1.06477410       0.17262187
C       -1.38578198       0.40151872       0.32915778
N       -2.60903304       0.73784300      -0.15275150
C       -0.12290148       0.98021233       0.14509052
H        2.74538537      -0.73449310      -0.17667363
H        2.46581888       0.90093676      -0.80150402
H        2.57077207       0.62968493       0.95193045
H        0.81194706      -2.12813560      -0.08159910
H       -1.70870394      -1.73336339       0.84830770
H       -2.40180008      -0.62773473      -0.80060971
H       -2.59739170       1.67088134      -0.55900442
H        0.15765365       2.01693956       0.05641160
15
Frame=16 idx=008875 GeodesicLength=1.9087012279143187 rxn_smarts="[C:1]([n:2]1[c:3]([H:11])[c:4]([H:12])[c:5]([N:6]([H:13])[H:14])[c:7]1[H:15])([H:8])([H:9])[H:10]>>[C:1]([N+:2]1=[C:7]([H:15])[C:5](=[N:6][H:14])[C:4]([H:12])([H:13])[C-:3]1[H:11])([H:8])([H:9])[H:10]"
C        2.22628357       0.20768274       0.00569761
N        0.79974145      -0.01884304       0.06015269
C        0.21369893      -1.21140349      -0.03502737
C       -1.19185412      -1.04822234       0.17499272
C       -1.38627853       0.42136266       0.34774580
N       -2.57278301       0.73163168      -0.23311726
C       -0.11596383       0.99225123       0.21057997
H        2.73141456      -0.72554537      -0.23742569
H        2.45604268       0.94643318      -0.76273688
H        2.58485640       0.57257330       0.96995181
H        0.79702666      -2.11204548      -0.14025417
H       -1.67669292      -1.70447260       0.89425204
H       -2.50160810      -0.71840687      -0.68430320
H       -2.53315795       1.63948340      -0.69093573
H        0.16927420       2.02752102       0.12042766
