12
Frame=0 idx=004263 GeodesicLength=0.0 rxn_smarts="[O:1]([C:2]([C@@:3]([O:4][H:11])([C:5](=[O:6])[H:12])[H:10])([H:8])[H:9])[H:7]>>[O:1]1[C:2]([H:8])([H:9])[C@@:3]1([C:5](=[O:6])[H:12])[H:10].[O:4]([H:7])[H:11]"
O       -1.25883084       0.72591416      -0.17159156
C       -1.19616413      -0.50101355       0.45869127
C        0.25377343      -0.54675601       0.28464968
O        0.39877621      -0.11117302      -1.79760690
C        0.95390867       0.61892600       0.89389983
O        2.06084324       0.95428054       0.56190456
H       -0.38171609       0.43897155      -1.49584630
H       -1.72233248      -1.31685541      -0.05285554
H       -1.50934507      -0.49467556       1.51485870
H        0.85097967      -1.37530205      -0.07398948
H        1.16306760       0.47507236      -1.80910066
H        0.38703975       1.13261099       1.68698636
12
Frame=1 idx=004263 GeodesicLength=0.09329582494417145 rxn_smarts="[O:1]([C:2]([C@@:3]([O:4][H:11])([C:5](=[O:6])[H:12])[H:10])([H:8])[H:9])[H:7]>>[O:1]1[C:2]([H:8])([H:9])[C@@:3]1([C:5](=[O:6])[H:12])[H:10].[O:4]([H:7])[H:11]"
O       -1.26531157       0.71669038      -0.17657166
C       -1.20277949      -0.50482145       0.46670450
C        0.24665372      -0.53842226       0.27479537
O        0.42211686      -0.10825388      -1.79883508
C        0.95511559       0.61648380       0.89396433
O        2.05196789       0.96594590       0.54370402
H       -0.38722936       0.44743587      -1.52036884
H       -1.72875852      -1.32545458      -0.03631906
H       -1.50321328      -0.49410454       1.52564754
H        0.82791145      -1.37943132      -0.08149768
H        1.18678873       0.47799174      -1.78744401
H        0.39673799       1.12594034       1.69622056
12
Frame=2 idx=004263 GeodesicLength=0.18644912025003074 rxn_smarts="[O:1]([C:2]([C@@:3]([O:4][H:11])([C:5](=[O:6])[H:12])[H:10])([H:8])[H:9])[H:7]>>[O:1]1[C:2]([H:8])([H:9])[C@@:3]1([C:5](=[O:6])[H:12])[H:10].[O:4]([H:7])[H:11]"
O       -1.27202660       0.70697622      -0.18210282
C       -1.20922628      -0.50857157       0.47489047
C        0.23939490      -0.52999346       0.26480513
O        0.44548187      -0.10525734      -1.79988855
C        0.95626989       0.61396129       0.89376779
O        2.04301403       0.97729624       0.52666837
H       -0.39229281       0.45622351      -1.54526333
H       -1.73490494      -1.33429048      -0.01898916
H       -1.49685915      -0.49310634       1.53641329
H        0.80456182      -1.38292401      -0.08947978
H        1.21002738       0.48074899      -1.76604431
H        0.40655988       1.11893695       1.70522290
12
Frame=3 idx=004263 GeodesicLength=0.2796547802180289 rxn_smarts="[O:1]([C:2]([C@@:3]([O:4][H:11])([C:5](=[O:6])[H:12])[H:10])([H:8])[H:9])[H:7]>>[O:1]1[C:2]([H:8])([H:9])[C@@:3]1([C:5](=[O:6])[H:12])[H:10].[O:4]([H:7])[H:11]"
O       -1.27909575       0.69677934      -0.18817282
C       -1.21553233      -0.51225693       0.48323934
C        0.23201133      -0.52146893       0.25467795
O        0.46886116      -0.10224719      -1.80083299
C        0.95737771       0.61138797       0.89336320
O        2.03405479       0.98837670       0.51077285
H       -0.39697736       0.46541618      -1.57055730
H       -1.74076639      -1.34338385      -0.00091038
H       -1.49031835      -0.49165563       1.54717770
H        0.78101919      -1.38581388      -0.09795314
H        1.23284692       0.48325929      -1.74492654
H        0.41651909       1.11160693       1.71412215
12
Frame=4 idx=004263 GeodesicLength=0.3728552174754019 rxn_smarts="[O:1]([C:2]([C@@:3]([O:4][H:11])([C:5](=[O:6])[H:12])[H:10])([H:8])[H:9])[H:7]>>[O:1]1[C:2]([H:8])([H:9])[C@@:3]1([C:5](=[O:6])[H:12])[H:10].[O:4]([H:7])[H:11]"
O       -1.28651590       0.68607559      -0.19476639
C       -1.22169372      -0.51587510       0.49174257
C        0.22447986      -0.51284009       0.24442105
O        0.49225520      -0.09924591      -1.80162769
C        0.95841078       0.60876336       0.89273960
O        2.02506637       0.99923484       0.49590778
H       -0.40129073       0.47508982      -1.59622597
H       -1.74630867      -1.35271721       0.01792180
H       -1.48360740      -0.48976622       1.55791039
H        0.75727493      -1.38808351      -0.10689596
H        1.25530114       0.48546752      -1.72405473
H        0.42662815       1.10389690       1.72292755
12
Frame=5 idx=004263 GeodesicLength=0.46605014455450444 rxn_smarts="[O:1]([C:2]([C@@:3]([O:4][H:11])([C:5](=[O:6])[H:12])[H:10])([H:8])[H:9])[H:7]>>[O:1]1[C:2]([H:8])([H:9])[C@@:3]1([C:5](=[O:6])[H:12])[H:10].[O:4]([H:7])[H:11]"
O       -1.29431099       0.67484725      -0.20186460
C       -1.22771157      -0.51942188       0.50038816
C        0.21678985      -0.50409848       0.23404045
O        0.51565715      -0.09629184      -1.80225422
C        0.95935103       0.60609416       0.89189915
O        2.01603702       1.00991790       0.48198637
H       -0.40525537       0.48532939      -1.62224580
H       -1.75149704      -1.36227679       0.03749239
H       -1.47674777      -0.48744322       1.56858883
H        0.73334911      -1.38972656      -0.11629207
H        1.27743884       0.48730190      -1.70340620
H        0.43689974       1.09576816       1.73166753
12
Frame=6 idx=004263 GeodesicLength=0.559239993063841 rxn_smarts="[O:1]([C:2]([C@@:3]([O:4][H:11])([C:5](=[O:6])[H:12])[H:10])([H:8])[H:9])[H:7]>>[O:1]1[C:2]([H:8])([H:9])[C@@:3]1([C:5](=[O:6])[H:12])[H:10].[O:4]([H:7])[H:11]"
O       -1.30250126       0.66307680      -0.20944946
C       -1.23358671      -0.52289352       0.50916220
C        0.20893219      -0.49523578       0.22354343
O        0.53905936      -0.09342796      -1.80269524
C        0.96018399       0.60338813       0.89084481
O        2.00694763       1.02047914       0.46892401
H       -0.40889498       0.49622303      -1.64859234
H       -1.75629548      -1.37204856       0.05778211
H       -1.46976217      -0.48469148       1.57918976
H        0.70926179      -1.39074057      -0.12611997
H        1.29930418       0.48868976      -1.68295874
H        0.44735146       1.08718103       1.74036944
12
Frame=7 idx=004263 GeodesicLength=0.6524251367146239 rxn_smarts="[O:1]([C:2]([C@@:3]([O:4][H:11])([C:5](=[O:6])[H:12])[H:10])([H:8])[H:9])[H:7]>>[O:1]1[C:2]([H:8])([H:9])[C@@:3]1([C:5](=[O:6])[H:12])[H:10].[O:4]([H:7])[H:11]"
O       -1.31110275       0.65074676      -0.21750367
C       -1.23931943      -0.52628584       0.51804860
C        0.20089950      -0.48624362       0.21293804
O        0.56245440      -0.09070243      -1.80293312
C        0.96089825       0.60065310       0.88957968
O        1.99776890       1.03097999       0.45663625
H       -0.41223450       0.50786130      -1.67523862
H       -1.76066626      -1.38201671       0.07876777
H       -1.46267408      -0.48151446       1.58968832
H        0.68503282      -1.39112624      -0.13635334
H        1.32093725       0.48955653      -1.66268942
H        0.45800588       1.07809162       1.74905950
12
Frame=8 idx=004263 GeodesicLength=0.7456065358732484 rxn_smarts="[O:1]([C:2]([C@@:3]([O:4][H:11])([C:5](=[O:6])[H:12])[H:10])([H:8])[H:9])[H:7]>>[O:1]1[C:2]([H:8])([H:9])[C@@:3]1([C:5](=[O:6])[H:12])[H:10].[O:4]([H:7])[H:11]"
O       -1.32012682       0.63783995      -0.22601045
C       -1.24490979      -0.52959409       0.52702922
C        0.19268615      -0.47711384       0.20223300
O        0.58583628      -0.08816935      -1.80294975
C        0.96148573       0.59789647       0.88810687
O        1.98846087       1.04149075       0.44503818
H       -0.41530013       0.52033641      -1.70215479
H       -1.76457042      -1.39216342       0.10042221
H       -1.45550822      -0.47791377       1.60005819
H        0.66068184      -1.39088793      -0.14696064
H        1.34237376       0.48982763      -1.64257442
H        0.46889075       1.06845119       1.75776239
12
Frame=9 idx=004263 GeodesicLength=0.8387812976186446 rxn_smarts="[O:1]([C:2]([C@@:3]([O:4][H:11])([C:5](=[O:6])[H:12])[H:10])([H:8])[H:9])[H:7]>>[O:1]1[C:2]([H:8])([H:9])[C@@:3]1([C:5](=[O:6])[H:12])[H:10].[O:4]([H:7])[H:11]"
O       -1.32957852       0.62434008      -0.23495243
C       -1.25035684      -0.53281276       0.53608372
C        0.18428807      -0.46783869       0.19143758
O        0.60919884      -0.08588834      -1.80272698
C        0.96194148       0.59512374       0.88643035
O        1.97896452       1.05209827       0.43404044
H       -0.41811737       0.53374612      -1.72930613
H       -1.76796840      -1.40246671       0.12271313
H       -1.44828939      -0.47389033       1.61027142
H        0.63622889      -1.39003207      -0.15790546
H        1.36364852       0.48941826      -1.62258827
H        0.48004019       1.05820242       1.76650263
12
Frame=10 idx=004263 GeodesicLength=0.931951796647009 rxn_smarts="[O:1]([C:2]([C@@:3]([O:4][H:11])([C:5](=[O:6])[H:12])[H:10])([H:8])[H:9])[H:7]>>[O:1]1[C:2]([H:8])([H:9])[C@@:3]1([C:5](=[O:6])[H:12])[H:10].[O:4]([H:7])[H:11]"
O       -1.33945771       0.61023227      -0.24431476
C       -1.25566130      -0.53593454       0.54518961
C        0.17570291      -0.45841160       0.18056160
O        0.63254088      -0.08392972      -1.80224571
C        0.96226518       0.59233936       0.88455302
O        1.96920502       1.06290771       0.42354961
H       -0.42071164       0.54818930      -1.75665537
H       -1.77082158      -1.41290322       0.14560578
H       -1.44104605      -0.46943941       1.62029852
H        0.61169373      -1.38857071      -0.16914528
H        1.38479199       0.48824697      -1.60270461
H        0.49149857       1.04727358       1.77530759
12
Frame=11 idx=004263 GeodesicLength=1.025116668871276 rxn_smarts="[O:1]([C:2]([C@@:3]([O:4][H:11])([C:5](=[O:6])[H:12])[H:10])([H:8])[H:9])[H:7]>>[O:1]1[C:2]([H:8])([H:9])[C@@:3]1([C:5](=[O:6])[H:12])[H:10].[O:4]([H:7])[H:11]"
O       -1.34975630       0.59550372      -0.25408219
C       -1.26082357      -0.53895057       0.55432249
C        0.16692984      -0.44882775       0.16961509
O        0.65586374      -0.08237129      -1.80148617
C        0.96246122       0.58954334       0.88247838
O        1.95907822       1.07405110       0.41346339
H       -0.42310566       0.56377125      -1.78415927
H       -1.77309326      -1.42344405       0.16906088
H       -1.43380682      -0.46455423       1.63010873
H        0.58709614      -1.38651960      -0.18063245
H        1.40583581       0.48622035      -1.58289363
H        0.50332065       1.03557774       1.78420477
12
Frame=12 idx=004263 GeodesicLength=1.1182748367822561 rxn_smarts="[O:1]([C:2]([C@@:3]([O:4][H:11])([C:5](=[O:6])[H:12])[H:10])([H:8])[H:9])[H:7]>>[O:1]1[C:2]([H:8])([H:9])[C@@:3]1([C:5](=[O:6])[H:12])[H:10].[O:4]([H:7])[H:11]"
O       -1.36045863       0.58014372      -0.26424001
C       -1.26584503      -0.54185036       0.56345665
C        0.15796967      -0.43908546       0.15860802
O        0.67917536      -0.08129937      -1.80042684
C        0.96254033       0.58673008       0.88020934
O        1.94845107       1.08568531       0.40367188
H       -0.42532002       0.58060093      -1.81176901
H       -1.77475057      -1.43405595       0.19303630
H       -1.42660117      -0.45922424       1.63967079
H        0.56245503      -1.38390076      -0.19231470
H        1.42681126       0.48324199      -1.56312035
H        0.51557270       1.02301410       1.79321794
12
Frame=13 idx=004263 GeodesicLength=1.2114250283406092 rxn_smarts="[O:1]([C:2]([C@@:3]([O:4][H:11])([C:5](=[O:6])[H:12])[H:10])([H:8])[H:9])[H:7]>>[O:1]1[C:2]([H:8])([H:9])[C@@:3]1([C:5](=[O:6])[H:12])[H:10].[O:4]([H:7])[H:11]"
O       -1.37153975       0.56414495      -0.27477443
C       -1.27072821      -0.54462050       0.57256525
C        0.14882481      -0.42918725       0.14755014
O        0.70249259      -0.08081035      -1.79904311
C        0.96252109       0.58388604       0.87774780
O        1.93715038       1.09800143       0.39405356
H       -0.42737118       0.59879065      -1.83943006
H       -1.77576644      -1.44469937       0.21748784
H       -1.41945853      -0.45343384       1.64895304
H        0.53778763      -1.38074333      -0.20413583
H        1.44775082       0.47921062      -1.54334246
H        0.52833679       1.00946098       1.80236826
12
Frame=14 idx=004263 GeodesicLength=1.3045655135002328 rxn_smarts="[O:1]([C:2]([C@@:3]([O:4][H:11])([C:5](=[O:6])[H:12])[H:10])([H:8])[H:9])[H:7]>>[O:1]1[C:2]([H:8])([H:9])[C@@:3]1([C:5](=[O:6])[H:12])[H:10].[O:4]([H:7])[H:11]"
O       -1.38296493       0.54750327      -0.28567178
C       -1.27547674      -0.54724523       0.58162146
C        0.13949947      -0.41914219       0.13645059
O        0.72584430      -0.08100898      -1.79730592
C        0.96243235       0.58098585       0.87509410
O        1.92495747       1.11122158       0.38447583
H       -0.42927086       0.61845621      -1.86708059
H       -1.77612179      -1.45532813       0.24237057
H       -1.41240676      -0.44716250       1.65792451
H        0.51310875      -1.37708526      -0.21603831
H        1.46868832       0.47402371      -1.52350610
H        0.54171041       0.99478167       1.81166564
12
Frame=15 idx=004263 GeodesicLength=1.3976948506953202 rxn_smarts="[O:1]([C:2]([C@@:3]([O:4][H:11])([C:5](=[O:6])[H:12])[H:10])([H:8])[H:9])[H:7]>>[O:1]1[C:2]([H:8])([H:9])[C@@:3]1([C:5](=[O:6])[H:12])[H:10].[O:4]([H:7])[H:11]"
O       -1.39468815       0.53021853      -0.29691977
C       -1.28009568      -0.54970480       0.59059889
C        0.12999969      -0.40896768       0.12531756
O        0.74927621      -0.08200938      -1.79517911
C        0.96231551       0.57798964       0.87224531
O        1.91159566       1.12560334       0.37479263
H       -0.43102421       0.63971384      -1.89465253
H       -1.77580762      -1.46588797       0.26764139
H       -1.40547083      -0.44038139       1.66655508
H        0.48842873      -1.37297478      -0.22796546
H        1.48965863       0.46758220      -1.50354192
H        0.55581205       0.97881845       1.82110792
12
Frame=16 idx=004263 GeodesicLength=1.4908124201049369 rxn_smarts="[O:1]([C:2]([C@@:3]([O:4][H:11])([C:5](=[O:6])[H:12])[H:10])([H:8])[H:9])[H:7]>>[O:1]1[C:2]([H:8])([H:9])[C@@:3]1([C:5](=[O:6])[H:12])[H:10].[O:4]([H:7])[H:11]"
O       -1.40665349       0.51229204      -0.30850810
C       -1.28459123      -0.55197633       0.59947338
C        0.12033339      -0.39869193       0.11415761
O        0.77285650      -0.08393054      -1.79261582
C        0.96222614       0.57484057       0.86919284
O        1.89673360       1.14141718       0.36485151
H       -0.43263173       0.66267584      -1.92207229
H       -1.77482573      -1.47631804       0.29326329
H       -1.39867009      -0.43305202       1.67481673
H        0.46375162      -1.36847136      -0.23986682
H        1.51069300       0.45980694      -1.48335920
H        0.57077804       0.96140765       1.83066688
