8
Frame=0 idx=001242 GeodesicLength=0.0 rxn_smarts="[n:1]1([H:6])[c:2]([H:7])[n:3][n:4][c:5]1[H:8]>>[N+:1](=[C-:2][H:7])([C:5](=[N+:4]=[N-:3])[H:8])[H:6]"
N        0.14481366       0.66021034      -0.09860901
C        1.35783128       0.21022831      -0.11946930
N        0.21803871      -2.15362069       0.27532723
N       -0.64697339      -1.41086709       0.23364929
C       -0.99997106      -0.17819747       0.09188526
H       -0.10540605       1.63580181      -0.21416581
H        2.04031670       1.05429888      -0.28155346
H       -2.00864985       0.18214588       0.11293578
8
Frame=1 idx=001242 GeodesicLength=0.06462436585295735 rxn_smarts="[n:1]1([H:6])[c:2]([H:7])[n:3][n:4][c:5]1[H:8]>>[N+:1](=[C-:2][H:7])([C:5](=[N+:4]=[N-:3])[H:8])[H:6]"
N        0.13745161       0.66534677      -0.08629884
C        1.34485210       0.19430909      -0.12394323
N        0.24832229      -2.12292769       0.26313095
N       -0.64844122      -1.40798611       0.24031748
C       -1.00398049      -0.17599005       0.09269606
H       -0.10680800       1.63924383      -0.22286777
H        2.04283534       1.02733119      -0.27383858
H       -2.01423163       0.18067297       0.11080392
8
Frame=2 idx=001242 GeodesicLength=0.1293926963148907 rxn_smarts="[n:1]1([H:6])[c:2]([H:7])[n:3][n:4][c:5]1[H:8]>>[N+:1](=[C-:2][H:7])([C:5](=[N+:4]=[N-:3])[H:8])[H:6]"
N        0.13036756       0.67044142      -0.07461763
C        1.33327263       0.18116761      -0.11384643
N        0.27693760      -2.09262677       0.25458530
N       -0.65042093      -1.40716557       0.23231258
C       -1.00725392      -0.17333219       0.09781506
H       -0.10836136       1.64136707      -0.23662062
H        2.04446359       1.00038659      -0.27372838
H       -2.01900517       0.17976183       0.11410011
8
Frame=3 idx=001242 GeodesicLength=0.1937012544950632 rxn_smarts="[n:1]1([H:6])[c:2]([H:7])[n:3][n:4][c:5]1[H:8]>>[N+:1](=[C-:2][H:7])([C:5](=[N+:4]=[N-:3])[H:8])[H:6]"
N        0.12362758       0.67537211      -0.06327760
C        1.32187267       0.16829732      -0.10731383
N        0.30307766      -2.06374956       0.24199882
N       -0.65071272      -1.40450578       0.23892930
C       -1.01022850      -0.17128206       0.09988475
H       -0.10914264       1.64482969      -0.23967763
H        2.04542576       0.97389537      -0.27747549
H       -2.02391981       0.17714291       0.10693167
8
Frame=4 idx=001242 GeodesicLength=0.2581968886408749 rxn_smarts="[n:1]1([H:6])[c:2]([H:7])[n:3][n:4][c:5]1[H:8]>>[N+:1](=[C-:2][H:7])([C:5](=[N+:4]=[N-:3])[H:8])[H:6]"
N        0.11704367       0.67980955      -0.05474213
C        1.31058460       0.15564560      -0.10451592
N        0.32818239      -2.03505295       0.23576054
N       -0.65123273      -1.40293220       0.23821220
C       -1.01282669      -0.16927652       0.10250495
H       -0.10987923       1.64830482      -0.24179180
H        2.04635327       0.94861459      -0.27846335
H       -2.02822526       0.17488712       0.10303551
8
Frame=5 idx=001242 GeodesicLength=0.3227650425126315 rxn_smarts="[n:1]1([H:6])[c:2]([H:7])[n:3][n:4][c:5]1[H:8]>>[N+:1](=[C-:2][H:7])([C:5](=[N+:4]=[N-:3])[H:8])[H:6]"
N        0.11019075       0.68394178      -0.05141890
C        1.30060955       0.14529459      -0.08959123
N        0.35141851      -2.00791353       0.22163153
N       -0.65182814      -1.40207593       0.23087379
C       -1.01475779      -0.16643848       0.11223440
H       -0.11169056       1.64817834      -0.26277414
H        2.04766805       0.92487210      -0.27279651
H       -2.03161036       0.17414113       0.11184106
8
Frame=6 idx=001242 GeodesicLength=0.3872360543812028 rxn_smarts="[n:1]1([H:6])[c:2]([H:7])[n:3][n:4][c:5]1[H:8]>>[N+:1](=[C-:2][H:7])([C:5](=[N+:4]=[N-:3])[H:8])[H:6]"
N        0.10370437       0.68786484      -0.04750195
C        1.29046265       0.13460863      -0.08161470
N        0.37347539      -1.98120643       0.21149583
N       -0.65174997      -1.40065227       0.22956375
C       -1.01682555      -0.16474206       0.11394982
H       -0.11271119       1.64977418      -0.27301369
H        2.04859556       0.90169105      -0.26925036
H       -2.03495127       0.17266206       0.11637130
8
Frame=7 idx=001242 GeodesicLength=0.45166123843112194 rxn_smarts="[n:1]1([H:6])[c:2]([H:7])[n:3][n:4][c:5]1[H:8]>>[N+:1](=[C-:2][H:7])([C:5](=[N+:4]=[N-:3])[H:8])[H:6]"
N        0.09784863       0.69154029      -0.04103080
C        1.27996313       0.12290027      -0.08435869
N        0.39495355      -1.95450501       0.21213082
N       -0.65131478      -1.39911770       0.23161905
C       -1.01889075      -0.16394562       0.11005494
H       -0.11260698       1.65520809      -0.26316576
H        2.04857446       0.87834361      -0.27389049
H       -2.03852726       0.16957608       0.10864094
8
Frame=8 idx=001242 GeodesicLength=0.516072360766779 rxn_smarts="[n:1]1([H:6])[c:2]([H:7])[n:3][n:4][c:5]1[H:8]>>[N+:1](=[C-:2][H:7])([C:5](=[N+:4]=[N-:3])[H:8])[H:6]"
N        0.09194239       0.69526860      -0.03623028
C        1.27046297       0.11305596      -0.07760776
N        0.41463905      -1.92944810       0.20257441
N       -0.65043726      -1.39723674       0.23587742
C       -1.02042909      -0.16251530       0.11139710
H       -0.11306919       1.65829882      -0.26462812
H        2.04853724       0.85575496      -0.27604754
H       -2.04164611       0.16682181       0.10466477
8
Frame=9 idx=001242 GeodesicLength=0.5804989011208351 rxn_smarts="[n:1]1([H:6])[c:2]([H:7])[n:3][n:4][c:5]1[H:8]>>[N+:1](=[C-:2][H:7])([C:5](=[N+:4]=[N-:3])[H:8])[H:6]"
N        0.08643404       0.69889138      -0.03047314
C        1.26099330       0.10309061      -0.07499849
N        0.43360985      -1.90472967       0.19757684
N       -0.64967709      -1.39573911       0.23786667
C       -1.02152550      -0.16068913       0.11666585
H       -0.11339827       1.66221144      -0.26082772
H        2.04804670       0.83356544      -0.28078260
H       -2.04448303       0.16339905       0.09497258
8
Frame=10 idx=001242 GeodesicLength=0.644858420197228 rxn_smarts="[n:1]1([H:6])[c:2]([H:7])[n:3][n:4][c:5]1[H:8]>>[N+:1](=[C-:2][H:7])([C:5](=[N+:4]=[N-:3])[H:8])[H:6]"
N        0.08106265       0.70278102      -0.02319275
C        1.25235648       0.09465881      -0.06502676
N        0.45154617      -1.88077754       0.18986444
N       -0.64857907      -1.39407507       0.24062364
C       -1.02237016      -0.15872517       0.12345715
H       -0.11365699       1.66588169      -0.25744111
H        2.04647463       0.81071399      -0.29101884
H       -2.04683371       0.15954227       0.08273423
8
Frame=11 idx=001242 GeodesicLength=0.7092303585342824 rxn_smarts="[n:1]1([H:6])[c:2]([H:7])[n:3][n:4][c:5]1[H:8]>>[N+:1](=[C-:2][H:7])([C:5](=[N+:4]=[N-:3])[H:8])[H:6]"
N        0.07581596       0.70623957      -0.01782656
C        1.24362051       0.08587580      -0.06036503
N        0.46875332      -1.85737382       0.18487830
N       -0.64755716      -1.39261857       0.24270758
C       -1.02313523      -0.15699835       0.12892621
H       -0.11391629       1.66984303      -0.25278430
H        2.04520191       0.78914890      -0.29773137
H       -2.04878304       0.15588345       0.07219517
8
Frame=12 idx=001242 GeodesicLength=0.773576144587068 rxn_smarts="[n:1]1([H:6])[c:2]([H:7])[n:3][n:4][c:5]1[H:8]>>[N+:1](=[C-:2][H:7])([C:5](=[N+:4]=[N-:3])[H:8])[H:6]"
N        0.07062922       0.70940118      -0.01420521
C        1.23502305       0.07720333      -0.05745888
N        0.48504769      -1.83473104       0.17944713
N       -0.64645665      -1.39115946       0.24544423
C       -1.02379639      -0.15543129       0.13354985
H       -0.11424561       1.67361717      -0.24923336
H        2.04425811       0.76868641      -0.30139221
H       -2.05045941       0.15241370       0.06384846
8
Frame=13 idx=001242 GeodesicLength=0.8379174456757874 rxn_smarts="[n:1]1([H:6])[c:2]([H:7])[n:3][n:4][c:5]1[H:8]>>[N+:1](=[C-:2][H:7])([C:5](=[N+:4]=[N-:3])[H:8])[H:6]"
N        0.06551601       0.71237167      -0.01173736
C        1.22663508       0.06878923      -0.05515448
N        0.50037700      -1.81288774       0.17242559
N       -0.64512364      -1.38948155       0.25052636
C       -1.02436191      -0.15401854       0.13715313
H       -0.11456841       1.67734518      -0.24610359
H        2.04349087       0.74900480      -0.30337633
H       -2.05196500       0.14887696       0.05626668
8
Frame=14 idx=001242 GeodesicLength=0.9022537278032182 rxn_smarts="[n:1]1([H:6])[c:2]([H:7])[n:3][n:4][c:5]1[H:8]>>[N+:1](=[C-:2][H:7])([C:5](=[N+:4]=[N-:3])[H:8])[H:6]"
N        0.06051136       0.71515513      -0.01007207
C        1.21837566       0.06048687      -0.05428098
N        0.51491303      -1.79169990       0.16544019
N       -0.64367477      -1.38771253       0.25681221
C       -1.02482819      -0.15272236       0.14007134
H       -0.11483796       1.68122725      -0.24223249
H        2.04282973       0.73004098      -0.30444841
H       -2.05328887       0.14522457       0.04871021
8
Frame=15 idx=001242 GeodesicLength=0.966583860477649 rxn_smarts="[n:1]1([H:6])[c:2]([H:7])[n:3][n:4][c:5]1[H:8]>>[N+:1](=[C-:2][H:7])([C:5](=[N+:4]=[N-:3])[H:8])[H:6]"
N        0.05562490       0.71786373      -0.00851869
C        1.21033928       0.05249548      -0.05348499
N        0.52875473      -1.77107206       0.15863810
N       -0.64206334      -1.38580777       0.26432093
C       -1.02521011      -0.15154748       0.14216624
H       -0.11497517       1.68539647      -0.23684473
H        2.04195025       0.71135799      -0.30645513
H       -2.05442053       0.14131363       0.04017828
8
Frame=16 idx=001242 GeodesicLength=1.030911108770792 rxn_smarts="[n:1]1([H:6])[c:2]([H:7])[n:3][n:4][c:5]1[H:8]>>[N+:1](=[C-:2][H:7])([C:5](=[N+:4]=[N-:3])[H:8])[H:6]"
N        0.05083146       0.72042562      -0.00762239
C        1.20242515       0.04462934      -0.05380657
N        0.54185635      -1.75104638       0.15181970
N       -0.64030132      -1.38372419       0.27323564
C       -1.02550959      -0.15047371       0.14359621
H       -0.11502480       1.68978265      -0.23036401
H        2.04111495       0.69322461      -0.30808226
H       -2.05539220       0.13718208       0.03122369
