12
Frame=0 idx=004694 GeodesicLength=0.0 rxn_smarts="[C:1]([C:2]([C:3]#[C:4][C:5](=[O:6])[H:12])([H:10])[H:11])([H:7])([H:8])[H:9]>>[C:1](/[C:2](=[C:3](\[C+:4]=[C:5]([O-:6])[H:12])[H:11])[H:10])([H:7])([H:8])[H:9]"
C       -1.95897275       0.38841537      -0.19664823
C       -0.96013827      -0.68510622      -0.45776364
C        0.40131190      -0.48656220      -0.35099741
C        1.47077830       0.22738569      -0.36347997
C        2.60835924       0.46409381       0.44812516
O        2.77974559       1.42714194       1.16829840
H       -2.18361881       0.47606336       0.86958233
H       -1.56138946       1.35010718      -0.52718065
H       -2.89594895       0.16661121      -0.70940221
H       -1.31192123      -1.69456076      -0.64503777
H        0.21289098      -1.32684133       0.44892034
H        3.39890347      -0.30674808       0.31558361
12
Frame=1 idx=004694 GeodesicLength=0.06699273820792119 rxn_smarts="[C:1]([C:2]([C:3]#[C:4][C:5](=[O:6])[H:12])([H:10])[H:11])([H:7])([H:8])[H:9]>>[C:1](/[C:2](=[C:3](\[C+:4]=[C:5]([O-:6])[H:12])[H:11])[H:10])([H:7])([H:8])[H:9]"
C       -1.92644943       0.40138329      -0.18143850
C       -0.96344778      -0.70155228      -0.45588474
C        0.40614212      -0.54156105      -0.37822913
C        1.47824229       0.16782820      -0.37933519
C        2.57905548       0.48083242       0.45587596
O        2.68513067       1.46283299       1.16281921
H       -2.10930840       0.51452325       0.89034233
H       -1.51711442       1.34686545      -0.54278378
H       -2.88618968       0.19561764      -0.65715978
H       -1.34708138      -1.69081900      -0.68374495
H        0.18633816      -1.39107029       0.42306869
H        3.41468237      -0.24488062       0.34646988
12
Frame=2 idx=004694 GeodesicLength=0.13511171679247752 rxn_smarts="[C:1]([C:2]([C:3]#[C:4][C:5](=[O:6])[H:12])([H:10])[H:11])([H:7])([H:8])[H:9]>>[C:1](/[C:2](=[C:3](\[C+:4]=[C:5]([O-:6])[H:12])[H:11])[H:10])([H:7])([H:8])[H:9]"
C       -1.89316444       0.41333937      -0.16708934
C       -0.96576631      -0.71724618      -0.45337306
C        0.41007132      -0.59474416      -0.40052684
C        1.48577543       0.10841558      -0.38851551
C        2.54945741       0.49705242       0.46203195
O        2.59207931       1.49401452       1.15447290
H       -2.03528550       0.54935149       0.90818451
H       -1.47380868       1.34271196      -0.55741202
H       -2.87308305       0.22449584      -0.60705655
H       -1.37982619      -1.68343047      -0.72323223
H        0.15651587      -1.45364776       0.40053980
H        3.42703482      -0.18031262       0.37197640
12
Frame=3 idx=004694 GeodesicLength=0.20406121931597226 rxn_smarts="[C:1]([C:2]([C:3]#[C:4][C:5](=[O:6])[H:12])([H:10])[H:11])([H:7])([H:8])[H:9]>>[C:1](/[C:2](=[C:3](\[C+:4]=[C:5]([O-:6])[H:12])[H:11])[H:10])([H:7])([H:8])[H:9]"
C       -1.85963809       0.42422147      -0.15376012
C       -0.96734736      -0.73222708      -0.45042427
C        0.41315612      -0.64608337      -0.41765362
C        1.49317236       0.04938575      -0.39039563
C        2.52007972       0.51244140       0.46723038
O        2.50206290       1.52094131       1.14377610
H       -1.96273319       0.58035883       0.92320991
H       -1.43161065       1.33781937      -0.57083427
H       -2.85713642       0.25302537      -0.55983244
H       -1.40986959      -1.67249608      -0.76347750
H        0.12316210      -1.51436360       0.38136883
H        3.43670209      -0.11302335       0.39079262
12
Frame=4 idx=004694 GeodesicLength=0.2739197637871976 rxn_smarts="[C:1]([C:2]([C:3]#[C:4][C:5](=[O:6])[H:12])([H:10])[H:11])([H:7])([H:8])[H:9]>>[C:1](/[C:2](=[C:3](\[C+:4]=[C:5]([O-:6])[H:12])[H:11])[H:10])([H:7])([H:8])[H:9]"
C       -1.82581031       0.43404405      -0.14102409
C       -0.96825972      -0.74655335      -0.44746100
C        0.41563541      -0.69590709      -0.43030996
C        1.50060384      -0.00969523      -0.38556791
C        2.49104765       0.52769702       0.47078334
O        2.41484840       1.54529389       1.12958718
H       -1.89191461       0.60695167       0.93627318
H       -1.38992055       1.33253860      -0.58192848
H       -2.83846643       0.28150971      -0.51547263
H       -1.43707185      -1.65801667      -0.80474086
H        0.08645156      -1.57344951       0.36458758
H        3.44285663      -0.04441311       0.40527364
12
Frame=5 idx=004694 GeodesicLength=0.3427070948296729 rxn_smarts="[C:1]([C:2]([C:3]#[C:4][C:5](=[O:6])[H:12])([H:10])[H:11])([H:7])([H:8])[H:9]>>[C:1](/[C:2](=[C:3](\[C+:4]=[C:5]([O-:6])[H:12])[H:11])[H:10])([H:7])([H:8])[H:9]"
C       -1.79426039       0.44294211      -0.13240849
C       -0.96903078      -0.76031477      -0.44230611
C        0.41718014      -0.74251712      -0.43528542
C        1.50593372      -0.06435618      -0.37186144
C        2.46590451       0.54165874       0.47248300
O        2.33388689       1.55282003       1.13216018
H       -1.82653056       0.63412660       0.94332546
H       -1.35192403       1.32567119      -0.59790375
H       -2.81941705       0.30687356      -0.47772633
H       -1.46001302      -1.64240160      -0.84160756
H        0.04646554      -1.62655455       0.35617275
H        3.45180501       0.03205199       0.39495771
12
Frame=6 idx=004694 GeodesicLength=0.41237694555689286 rxn_smarts="[C:1]([C:2]([C:3]#[C:4][C:5](=[O:6])[H:12])([H:10])[H:11])([H:7])([H:8])[H:9]>>[C:1](/[C:2](=[C:3](\[C+:4]=[C:5]([O-:6])[H:12])[H:11])[H:10])([H:7])([H:8])[H:9]"
C       -1.76195603       0.45074985      -0.12289065
C       -0.96913129      -0.77344540      -0.43842980
C        0.41856991      -0.78843164      -0.43749317
C        1.51192716      -0.12065452      -0.35231282
C        2.44012961       0.55649425       0.47243859
O        2.25645949       1.56462619       1.12422505
H       -1.76259066       0.65504688       0.95089509
H       -1.31303256       1.31920430      -0.60833852
H       -2.79775916       0.33307983      -0.44185519
H       -1.47997030      -1.62314903      -0.88126046
H        0.00346108      -1.67954259       0.34688592
H        3.45389277       0.10602187       0.38813596
12
Frame=7 idx=004694 GeodesicLength=0.4816909925787029 rxn_smarts="[C:1]([C:2]([C:3]#[C:4][C:5](=[O:6])[H:12])([H:10])[H:11])([H:7])([H:8])[H:9]>>[C:1](/[C:2](=[C:3](\[C+:4]=[C:5]([O-:6])[H:12])[H:11])[H:10])([H:7])([H:8])[H:9]"
C       -1.73049158       0.45781668      -0.11542908
C       -0.96886040      -0.78609602      -0.43402261
C        0.41961941      -0.83272217      -0.43454568
C        1.51697359      -0.17550232      -0.32545706
C        2.41607966       0.57235146       0.46906508
O        2.18396787       1.56778908       1.12486097
H       -1.70225812       0.67434327       0.95556557
H       -1.27517002       1.31212182      -0.61951512
H       -2.77504613       0.35809013      -0.41075023
H       -1.49593604      -1.60243601      -0.91919687
H       -0.04242333      -1.72909467       0.34153587
H        3.45354509       0.18333876       0.36788917
12
Frame=8 idx=004694 GeodesicLength=0.5503732384454961 rxn_smarts="[C:1]([C:2]([C:3]#[C:4][C:5](=[O:6])[H:12])([H:10])[H:11])([H:7])([H:8])[H:9]>>[C:1](/[C:2](=[C:3](\[C+:4]=[C:5]([O-:6])[H:12])[H:11])[H:10])([H:7])([H:8])[H:9]"
C       -1.69971182       0.46408824      -0.10955079
C       -0.96807269      -0.79821632      -0.42964170
C        0.42054868      -0.87545955      -0.42704933
C        1.52116488      -0.22913095      -0.29101059
C        2.39276842       0.59001912       0.46199963
O        2.11793725       1.56474576       1.13202980
H       -1.64508319       0.69159406       0.95811863
H       -1.23814842       1.30459953      -0.63070934
H       -2.75143841       0.38191606      -0.38371021
H       -1.50767623      -1.58040700      -0.95618535
H       -0.09088935      -1.77573634       0.33861944
H        3.44860087       0.26198738       0.33708982
12
Frame=9 idx=004694 GeodesicLength=0.6191352080069831 rxn_smarts="[C:1]([C:2]([C:3]#[C:4][C:5](=[O:6])[H:12])([H:10])[H:11])([H:7])([H:8])[H:9]>>[C:1](/[C:2](=[C:3](\[C+:4]=[C:5]([O-:6])[H:12])[H:11])[H:10])([H:7])([H:8])[H:9]"
C       -1.66883598       0.46941929      -0.10377272
C       -0.96647356      -0.80976950      -0.42616186
C        0.42163624      -0.91733551      -0.41554992
C        1.52484916      -0.28327286      -0.24726424
C        2.36830423       0.60997904       0.45099110
O        2.05791492       1.56241419       1.13733667
H       -1.59051112       0.70476058       0.96069383
H       -1.20045124       1.29728711      -0.63875499
H       -2.72630207       0.40535961      -0.35971323
H       -1.51481623      -1.55600424      -0.99482273
H       -0.14229703      -1.82130117       0.33525703
H        3.43698267       0.33846346       0.30176106
12
Frame=10 idx=004694 GeodesicLength=0.6859301891868433 rxn_smarts="[C:1]([C:2]([C:3]#[C:4][C:5](=[O:6])[H:12])([H:10])[H:11])([H:7])([H:8])[H:9]>>[C:1](/[C:2](=[C:3](\[C+:4]=[C:5]([O-:6])[H:12])[H:11])[H:10])([H:7])([H:8])[H:9]"
C       -1.63940158       0.47364258      -0.09944313
C       -0.96402673      -0.82065051      -0.42312276
C        0.42294805      -0.95699935      -0.39838825
C        1.52678339      -0.33517582      -0.19221409
C        2.34323268       0.63243119       0.43538683
O        2.00957428       1.55652332       1.14909406
H       -1.54127419       0.71502985       0.96199873
H       -1.16373099       1.28993374      -0.64553169
H       -2.70105683       0.42684016      -0.34098639
H       -1.51584237      -1.53034099      -1.03424927
H       -0.19621223      -1.86410689       0.33295548
H        3.41900652       0.41287271       0.25450049
12
Frame=11 idx=004694 GeodesicLength=0.7500530319051951 rxn_smarts="[C:1]([C:2]([C:3]#[C:4][C:5](=[O:6])[H:12])([H:10])[H:11])([H:7])([H:8])[H:9]>>[C:1](/[C:2](=[C:3](\[C+:4]=[C:5]([O-:6])[H:12])[H:11])[H:10])([H:7])([H:8])[H:9]"
C       -1.61240633       0.47621743      -0.09565334
C       -0.96040399      -0.83056933      -0.42114164
C        0.42482618      -0.99318157      -0.37562366
C        1.52606751      -0.38258560      -0.12504216
C        2.31735434       0.65508053       0.41796222
O        1.97637461       1.55384798       1.16022004
H       -1.49934099       0.72064972       0.96357816
H       -1.12898468       1.28316206      -0.64865189
H       -2.67671495       0.44526757      -0.32746719
H       -1.50922345      -1.50291113      -1.07622392
H       -0.25170050      -1.90434401       0.32937275
H        3.39415224       0.47936636       0.19867062
12
Frame=12 idx=004694 GeodesicLength=0.8114257580517515 rxn_smarts="[C:1]([C:2]([C:3]#[C:4][C:5](=[O:6])[H:12])([H:10])[H:11])([H:7])([H:8])[H:9]>>[C:1](/[C:2](=[C:3](\[C+:4]=[C:5]([O-:6])[H:12])[H:11])[H:10])([H:7])([H:8])[H:9]"
C       -1.58922514       0.47672603      -0.09162950
C       -0.95542865      -0.83922077      -0.42041865
C        0.42751654      -1.02422675      -0.34826015
C        1.52166670      -0.42194294      -0.04862603
C        2.29232079       0.67469144       0.40233935
O        1.95908276       1.55971616       1.16465650
H       -1.46617148       0.72100999       0.96649711
H       -1.09838299       1.27742976      -0.64703548
H       -2.65487527       0.45905271      -0.31817376
H       -1.49395332      -1.47354228      -1.12097013
H       -0.30672865      -1.94141447       0.32264769
H        3.36417871       0.53172111       0.13897306
12
Frame=13 idx=004694 GeodesicLength=0.8708417397973568 rxn_smarts="[C:1]([C:2]([C:3]#[C:4][C:5](=[O:6])[H:12])([H:10])[H:11])([H:7])([H:8])[H:9]>>[C:1](/[C:2](=[C:3](\[C+:4]=[C:5]([O-:6])[H:12])[H:11])[H:10])([H:7])([H:8])[H:9]"
C       -1.57054644       0.47516110      -0.08669488
C       -0.94920748      -0.84649231      -0.42075886
C        0.43103191      -1.04935755      -0.31836156
C        1.51324018      -0.45094587       0.03138471
C        2.27014368       0.68987027       0.38975650
O        1.95398062       1.57602217       1.15832599
H       -1.44116927       0.71675970       0.97126927
H       -1.07374460       1.27288969      -0.64096927
H       -2.63670134       0.46733771      -0.31093536
H       -1.47060610      -1.44233396      -1.16712317
H       -0.35909922      -1.97479949       0.31167647
H        3.33267806       0.56588853       0.08243017
12
Frame=14 idx=004694 GeodesicLength=0.9291239564025046 rxn_smarts="[C:1]([C:2]([C:3]#[C:4][C:5](=[O:6])[H:12])([H:10])[H:11])([H:7])([H:8])[H:9]>>[C:1](/[C:2](=[C:3](\[C+:4]=[C:5]([O-:6])[H:12])[H:11])[H:10])([H:7])([H:8])[H:9]"
C       -1.55596727       0.47210402      -0.08150158
C       -0.94207678      -0.85268494      -0.42143527
C        0.43511862      -1.06923969      -0.28723338
C        1.50135086      -0.46955028       0.10960202
C        2.25101873       0.70150250       0.37951793
O        1.95784800       1.59698047       1.14668101
H       -1.42225215       0.71042867       0.97664302
H       -1.05522145       1.26904956      -0.63324527
H       -2.62224778       0.47057443      -0.30476489
H       -1.44099657      -1.41048076      -1.21182899
H       -0.40779136      -2.00399669       0.29791002
H        3.30121715       0.58531270       0.02965537
12
Frame=15 idx=004694 GeodesicLength=0.9866901563226067 rxn_smarts="[C:1]([C:2]([C:3]#[C:4][C:5](=[O:6])[H:12])([H:10])[H:11])([H:7])([H:8])[H:9]>>[C:1](/[C:2](=[C:3](\[C+:4]=[C:5]([O-:6])[H:12])[H:11])[H:10])([H:7])([H:8])[H:9]"
C       -1.54503429       0.46795234      -0.07632978
C       -0.93442076      -0.85803439      -0.42211459
C        0.43946030      -1.08467270      -0.25589936
C        1.48693079      -0.47884639       0.18271454
C        2.23483621       0.71084518       0.37044124
O        1.96843110       1.61930130       1.13237783
H       -1.40797754       0.70327588       0.98203757
H       -1.04249623       1.26565646      -0.62524507
H       -2.61131868       0.46943970      -0.29904365
H       -1.40707134      -1.37876208      -1.25343620
H       -0.45261550      -2.02914911       0.28225872
H        3.27127595       0.59299383      -0.01776127
12
Frame=16 idx=004694 GeodesicLength=1.04393571634508 rxn_smarts="[C:1]([C:2]([C:3]#[C:4][C:5](=[O:6])[H:12])([H:10])[H:11])([H:7])([H:8])[H:9]>>[C:1](/[C:2](=[C:3](\[C+:4]=[C:5]([O-:6])[H:12])[H:11])[H:10])([H:7])([H:8])[H:9]"
C       -1.53687497       0.46309970      -0.07148968
C       -0.92644293      -0.86281257      -0.42256692
C        0.44378909      -1.09687052      -0.22444757
C        1.47094063      -0.48087706       0.24981614
C        2.22083372       0.71870057       0.36209301
O        1.98421942       1.64046059       1.11815529
H       -1.39725180       0.69602800       0.98705198
H       -1.03412857       1.26251152      -0.61763100
H       -2.60307883       0.46510631      -0.29404153
H       -1.37020172      -1.34764329      -1.29122763
H       -0.49426552      -2.05085475       0.26560716
H        3.24246149       0.59315151      -0.06131926
