12
Frame=0 idx=007083 GeodesicLength=0.0 rxn_smarts="[O:1]=[C:2]1[N:3]([H:8])[C:4]([H:9])([H:10])[C@@:5]2([H:11])[O:6][C@@:7]12[H:12]>>[O:1]=[C:2]([C@@:5]1([H:11])[N:3]([H:8])[C:4]1([H:9])[H:10])[C:7](=[O:6])[H:12]"
O        0.89701623       2.19624528       0.61569144
C        0.36712915       1.14463444       0.49586626
N        0.76779436       0.17541708      -0.51831698
C        0.39815094      -1.25750617      -0.34051868
C       -0.65527497      -0.35969304      -0.77840491
O       -0.86678323      -0.26310905       1.98101514
C       -0.93747386       0.54089637       1.05074170
H        1.44609411       0.43617175      -1.22280095
H        0.38984896      -1.57486095       0.70101759
H        0.94015116      -1.88922348      -1.03747615
H       -0.92850769      -0.33045475      -1.82963809
H       -1.81814514       1.18148247       0.88282358
12
Frame=1 idx=007083 GeodesicLength=0.1068349555044998 rxn_smarts="[O:1]=[C:2]1[N:3]([H:8])[C:4]([H:9])([H:10])[C@@:5]2([H:11])[O:6][C@@:7]12[H:12]>>[O:1]=[C:2]([C@@:5]1([H:11])[N:3]([H:8])[C:4]1([H:9])[H:10])[C:7](=[O:6])[H:12]"
O        0.85914567       2.22311349       0.59124397
C        0.35664664       1.15504294       0.48373073
N        0.80217173       0.16175911      -0.50815820
C        0.40852970      -1.26143566      -0.34111719
C       -0.64677203      -0.35151231      -0.75396458
O       -0.89307716      -0.29571868       1.94175978
C       -0.94076026       0.55737114       1.05086500
H        1.48169194       0.41536779      -1.21351716
H        0.41653039      -1.59156234       0.69599070
H        0.91753749      -1.89878633      -1.05776196
H       -0.94345775      -0.32201791      -1.79878737
H       -1.81818638       1.20837876       0.90971628
12
Frame=2 idx=007083 GeodesicLength=0.21354704385408857 rxn_smarts="[O:1]=[C:2]1[N:3]([H:8])[C:4]([H:9])([H:10])[C@@:5]2([H:11])[O:6][C@@:7]12[H:12]>>[O:1]=[C:2]([C@@:5]1([H:11])[N:3]([H:8])[C:4]1([H:9])[H:10])[C:7](=[O:6])[H:12]"
O        0.82065900       2.24908443       0.56395100
C        0.34587996       1.16531676       0.47087083
N        0.83598546       0.14830350      -0.49694153
C        0.41867701      -1.26499751      -0.34198970
C       -0.63809109      -0.34337546      -0.73010558
O       -0.91918333      -0.32634536       1.90154914
C       -0.94329724       0.57291679       1.05200271
H        1.51760392       0.39430721      -1.20244668
H        0.44099910      -1.60910533       0.68991153
H        0.89533021      -1.90628270      -1.07730838
H       -0.95737897      -0.31350632      -1.76820141
H       -1.81718403       1.23368399       0.93870808
12
Frame=3 idx=007083 GeodesicLength=0.320273645669244 rxn_smarts="[O:1]=[C:2]1[N:3]([H:8])[C:4]([H:9])([H:10])[C@@:5]2([H:11])[O:6][C@@:7]12[H:12]>>[O:1]=[C:2]([C@@:5]1([H:11])[N:3]([H:8])[C:4]1([H:9])[H:10])[C:7](=[O:6])[H:12]"
O        0.78136002       2.27421832       0.53372149
C        0.33482058       1.17546247       0.45732239
N        0.86926050       0.13502951      -0.48465593
C        0.42857874      -1.26824511      -0.34317610
C       -0.62929771      -0.33532033      -0.70689977
O       -0.94512066      -0.35495063       1.86062001
C       -0.94509548       0.58755091       1.05413313
H        1.55391366       0.37304602      -1.18951865
H        0.46311511      -1.62759363       0.68279004
H        0.87378234      -1.91175025      -1.09626824
H       -0.97035143      -0.30504197      -1.73803282
H       -1.81496566       1.25759470       0.96996444
12
Frame=4 idx=007083 GeodesicLength=0.4270183518402099 rxn_smarts="[O:1]=[C:2]1[N:3]([H:8])[C:4]([H:9])([H:10])[C@@:5]2([H:11])[O:6][C@@:7]12[H:12]>>[O:1]=[C:2]([C@@:5]1([H:11])[N:3]([H:8])[C:4]1([H:9])[H:10])[C:7](=[O:6])[H:12]"
O        0.74107145       2.29834931       0.50045979
C        0.32345572       1.18540615       0.44306646
N        0.90198630       0.12190968      -0.47123299
C        0.43820958      -1.27111596      -0.34467665
C       -0.62047731      -0.32736003      -0.68437881
O       -0.97083451      -0.38146044       1.81903113
C       -0.94612771       0.60125925       1.05712017
H        1.59065202       0.35160696      -1.17452585
H        0.48281395      -1.64696776       0.67458778
H        0.85305917      -1.91508339      -1.11470604
H       -0.98251246      -0.29673311      -1.70831766
H       -1.81129620       1.28018934       1.00357267
12
Frame=5 idx=007083 GeodesicLength=0.5337988112555426 rxn_smarts="[O:1]=[C:2]1[N:3]([H:8])[C:4]([H:9])([H:10])[C@@:5]2([H:11])[O:6][C@@:7]12[H:12]>>[O:1]=[C:2]([C@@:5]1([H:11])[N:3]([H:8])[C:4]1([H:9])[H:10])[C:7](=[O:6])[H:12]"
O        0.69953291       2.32144555       0.46396753
C        0.31175674       1.19514567       0.42813190
N        0.93418357       0.10891440      -0.45659639
C        0.44756321      -1.27362994      -0.34652952
C       -0.61168047      -0.31951241      -0.66262488
O       -0.99629750      -0.40577622       1.77707448
C       -0.94641610       0.61402045       1.06085949
H        1.62792948       0.33004849      -1.15726385
H        0.50002076      -1.66727353       0.66527017
H        0.83327748      -1.91634418      -1.13279086
H       -0.99391237      -0.28860794      -1.67920007
H       -1.80595772       1.30156966       1.03970200
12
Frame=6 idx=007083 GeodesicLength=0.6406060455651984 rxn_smarts="[O:1]=[C:2]1[N:3]([H:8])[C:4]([H:9])([H:10])[C@@:5]2([H:11])[O:6][C@@:7]12[H:12]>>[O:1]=[C:2]([C@@:5]1([H:11])[N:3]([H:8])[C:4]1([H:9])[H:10])[C:7](=[O:6])[H:12]"
O        0.65670919       2.34327961       0.42440527
C        0.29964817       1.20466801       0.41243443
N        0.96580447       0.09603446      -0.44072441
C        0.45664459      -1.27576011      -0.34873207
C       -0.60300623      -0.31183862      -0.64169129
O       -1.02144933      -0.42777910       1.73490286
C       -0.94601751       0.62589157       1.06516706
H        1.66571627       0.30843708      -1.13761778
H        0.51475143      -1.68843518       0.65481625
H        0.81461758      -1.91550518      -1.15061097
H       -1.00468047      -0.28083568      -1.65076350
H       -1.79873816       1.32184314       1.07841415
12
Frame=7 idx=007083 GeodesicLength=0.7473333037703278 rxn_smarts="[O:1]=[C:2]1[N:3]([H:8])[C:4]([H:9])([H:10])[C@@:5]2([H:11])[O:6][C@@:7]12[H:12]>>[O:1]=[C:2]([C@@:5]1([H:11])[N:3]([H:8])[C:4]1([H:9])[H:10])[C:7](=[O:6])[H:12]"
O        0.61268655       2.36353111       0.38204121
C        0.28707763       1.21389764       0.39594385
N        0.99677655       0.08328976      -0.42362031
C        0.46549209      -1.27743509      -0.35124377
C       -0.59454328      -0.30440998      -0.62163926
O       -1.04643355      -0.44741176       1.69257663
C       -0.94499162       0.63688899       1.06980605
H        1.70380167       0.28693835      -1.11559812
H        0.52713823      -1.71023951       0.64325547
H        0.79724283      -1.91254916      -1.16816240
H       -1.01496966      -0.27365267      -1.62308530
H       -1.78927743       1.34115231       1.11972595
12
Frame=8 idx=007083 GeodesicLength=0.8540413006802454 rxn_smarts="[O:1]=[C:2]1[N:3]([H:8])[C:4]([H:9])([H:10])[C@@:5]2([H:11])[O:6][C@@:7]12[H:12]>>[O:1]=[C:2]([C@@:5]1([H:11])[N:3]([H:8])[C:4]1([H:9])[H:10])[C:7](=[O:6])[H:12]"
O        0.56736092       2.38207120       0.33707615
C        0.27400236       1.22283217       0.37856955
N        1.02704870       0.07066856      -0.40527523
C        0.47409569      -1.27864604      -0.35405097
C       -0.58639228      -0.29726429      -0.60251438
O       -1.07123300      -0.46461511       1.65016555
C       -0.94338968       0.64714824       1.07462151
H        1.74215980       0.26556516      -1.09111772
H        0.53722675      -1.73262647       0.63055845
H        0.78133073      -1.90750995      -1.18549906
H       -1.02490713      -0.26719353      -1.59624129
H       -1.77730285       1.35957006       1.16370743
12
Frame=9 idx=007083 GeodesicLength=0.9607216209497653 rxn_smarts="[O:1]=[C:2]1[N:3]([H:8])[C:4]([H:9])([H:10])[C@@:5]2([H:11])[O:6][C@@:7]12[H:12]>>[O:1]=[C:2]([C@@:5]1([H:11])[N:3]([H:8])[C:4]1([H:9])[H:10])[C:7](=[O:6])[H:12]"
O        0.52070037       2.39870788       0.28970472
C        0.26037515       1.23141965       0.36028117
N        1.05656920       0.05818437      -0.38568810
C        0.48250050      -1.27936028      -0.35710666
C       -0.57862830      -0.29045437      -0.58438372
O       -1.09609737      -0.47938905       1.60765987
C       -0.94131098       0.65671773       1.07939764
H        1.78063694       0.24443637      -1.06418862
H        0.54515648      -1.75542332       0.61675220
H        0.76703240      -1.90044020      -1.20261844
H       -1.03459622      -0.26164121      -1.57032251
H       -1.76233816       1.37724242       1.21051246
12
Frame=10 idx=007083 GeodesicLength=1.067370910353748 rxn_smarts="[O:1]=[C:2]1[N:3]([H:8])[C:4]([H:9])([H:10])[C@@:5]2([H:11])[O:6][C@@:7]12[H:12]>>[O:1]=[C:2]([C@@:5]1([H:11])[N:3]([H:8])[C:4]1([H:9])[H:10])[C:7](=[O:6])[H:12]"
O        0.47264582       2.41329113       0.24022347
C        0.24613745       1.23963088       0.34098120
N        1.08526022       0.04584395      -0.36485097
C        0.49071205      -1.27954184      -0.36035887
C       -0.57134682      -0.28401539      -0.56731039
O       -1.12109211      -0.49167420       1.56506376
C       -0.93884391       0.66570577       1.08391146
H        1.81910564       0.22359483      -1.03476611
H        0.55102882      -1.77847290       0.60184722
H        0.75446204      -1.89138528      -1.21949933
H       -1.04413741      -0.25713504      -1.54542301
H       -1.74393182       1.39415810       1.26018159
12
Frame=11 idx=007083 GeodesicLength=1.1739773064130739 rxn_smarts="[O:1]=[C:2]1[N:3]([H:8])[C:4]([H:9])([H:10])[C@@:5]2([H:11])[O:6][C@@:7]12[H:12]>>[O:1]=[C:2]([C@@:5]1([H:11])[N:3]([H:8])[C:4]1([H:9])[H:10])[C:7](=[O:6])[H:12]"
O        0.42313481       2.42569174       0.18893046
C        0.23124146       1.24742162       0.32061516
N        1.11304341       0.03366410      -0.34276084
C        0.49874749      -1.27915491      -0.36373235
C       -0.56463073      -0.27797728      -0.55136183
O       -1.14639805      -0.50143851       1.52233632
C       -0.93611004       0.67420326       1.08793743
H        1.85737107       0.20311349      -1.00287999
H        0.55496337      -1.80159080       0.58589010
H        0.74373194      -1.88041656      -1.23607909
H       -1.05358805      -0.25379961      -1.52165411
H       -1.72150668       1.41028346       1.31275873
12
Frame=12 idx=007083 GeodesicLength=1.280530410524255 rxn_smarts="[O:1]=[C:2]1[N:3]([H:8])[C:4]([H:9])([H:10])[C@@:5]2([H:11])[O:6][C@@:7]12[H:12]>>[O:1]=[C:2]([C@@:5]1([H:11])[N:3]([H:8])[C:4]1([H:9])[H:10])[C:7](=[O:6])[H:12]"
O        0.37216040       2.43583698       0.13627447
C        0.21563895       1.25476258       0.29910326
N        1.13982431       0.02167022      -0.31943617
C        0.50660776      -1.27816203      -0.36713386
C       -0.55857411      -0.27235674      -0.53659316
O       -1.17211506      -0.50862297       1.47946044
C       -0.93324024       0.68233477       1.09125104
H        1.89521539       0.18304461      -0.96859960
H        0.55709609      -1.82457983       0.56895028
H        0.73490114      -1.86763138      -1.25225878
H       -1.06300515      -0.25173525      -1.49911977
H       -1.69450946       1.42543905       1.36810185
12
Frame=13 idx=007083 GeodesicLength=1.3870140935872037 rxn_smarts="[O:1]=[C:2]1[N:3]([H:8])[C:4]([H:9])([H:10])[C@@:5]2([H:11])[O:6][C@@:7]12[H:12]>>[O:1]=[C:2]([C@@:5]1([H:11])[N:3]([H:8])[C:4]1([H:9])[H:10])[C:7](=[O:6])[H:12]"
O        0.31972065       2.44369154       0.08271238
C        0.19928571       1.26161403       0.27641174
N        1.16550287       0.00989656      -0.29489961
C        0.51428995      -1.27652728      -0.37044584
C       -0.55326577      -0.26716160      -0.52305321
O       -1.19840314      -0.51319149       1.43639365
C       -0.93041175       0.69021002       1.09362859
H        1.93237180       0.16345698      -0.93205551
H        0.55758128      -1.84722233       0.55114025
H        0.72801370      -1.85314415      -1.26790028
H       -1.07239993      -0.25100876      -1.47793868
H       -1.66228538       1.43938648       1.42600654
12
Frame=14 idx=007083 GeodesicLength=1.4934232307876676 rxn_smarts="[O:1]=[C:2]1[N:3]([H:8])[C:4]([H:9])([H:10])[C@@:5]2([H:11])[O:6][C@@:7]12[H:12]>>[O:1]=[C:2]([C@@:5]1([H:11])[N:3]([H:8])[C:4]1([H:9])[H:10])[C:7](=[O:6])[H:12]"
O        0.26591914       2.44933384       0.02888529
C        0.18217202       1.26796698       0.25250587
N        1.18997913      -0.00161997      -0.26921192
C        0.52176442      -1.27422087      -0.37354516
C       -0.54880410      -0.26237094      -0.51073980
O       -1.22523305      -0.51508862       1.39320669
C       -0.92777939       0.69799767       1.09489821
H        1.96858848       0.14437871      -0.89343079
H        0.55660137      -1.86932391       0.53258026
H        0.72301011      -1.83710656      -1.28285352
H       -1.08181346      -0.25163323      -1.45816836
H       -1.62440469       1.45168689       1.48587323
12
Frame=15 idx=007083 GeodesicLength=1.5997571410380704 rxn_smarts="[O:1]=[C:2]1[N:3]([H:8])[C:4]([H:9])([H:10])[C@@:5]2([H:11])[O:6][C@@:7]12[H:12]>>[O:1]=[C:2]([C@@:5]1([H:11])[N:3]([H:8])[C:4]1([H:9])[H:10])[C:7](=[O:6])[H:12]"
O        0.21075447       2.45282855      -0.02479520
C        0.16427880       1.27379185       0.22743824
N        1.21315074      -0.01284465      -0.24238074
C        0.52899615      -1.27121437      -0.37629307
C       -0.54527291      -0.25796073      -0.49964069
O       -1.25269443      -0.51432192       1.34991259
C       -0.92558021       0.70581939       1.09488807
H        2.00359472       0.12585946      -0.85288067
H        0.55431821      -1.89069806       0.51341541
H        0.71985956      -1.81962500      -1.29696352
H       -1.09119533      -0.25355877      -1.43990081
H       -1.58020976       1.46192426       1.54720038
12
Frame=16 idx=007083 GeodesicLength=1.7059784134993217 rxn_smarts="[O:1]=[C:2]1[N:3]([H:8])[C:4]([H:9])([H:10])[C@@:5]2([H:11])[O:6][C@@:7]12[H:12]>>[O:1]=[C:2]([C@@:5]1([H:11])[N:3]([H:8])[C:4]1([H:9])[H:10])[C:7](=[O:6])[H:12]"
O        0.15467164       2.45435057      -0.07739311
C        0.14584664       1.27907264       0.20140538
N        1.23498691      -0.02378773      -0.21454576
C        0.53590469      -1.26745639      -0.37859537
C       -0.54272754      -0.25380195      -0.48948590
O       -1.28011434      -0.51088901       1.30703325
C       -0.92367260       0.71390369       1.09377288
H        2.03712855       0.10782363      -0.81078874
H        0.55103900      -1.91122925       0.49368292
H        0.71812936      -1.80079774      -1.31015618
H       -1.10072676      -0.25654952      -1.42281862
H       -1.53046553       1.46936106       1.60788925
