12
Frame=0 idx=007313 GeodesicLength=0.0 rxn_smarts="[O:1]([C:2]([c:3]1[n:4][n:5]([H:11])[c:6]([H:12])[n:7]1)([H:9])[H:10])[H:8]>>[N:5](=[C:6]=[N:7][H:12])[H:11].[O:1]([C:2]([C:3]#[N:4])([H:9])[H:10])[H:8]"
O       -2.91287435       0.66552031      -0.12153104
C       -1.78422092      -0.08867931       0.18731926
C       -0.50914443       0.61157503      -0.14561815
N        0.18367958       1.44645252      -0.57536643
N        2.81470635       0.34915888      -0.33799768
C        1.98567391      -0.42785109       0.21113662
N        0.75180698      -0.60954572       0.48452696
H       -2.98171192       0.77020651      -1.07291680
H       -1.74986558      -1.05866795      -0.31817381
H       -1.77927752      -0.27068706       1.26116829
H        3.77456720       0.03190975      -0.30976589
H        2.20666067      -1.41939182       0.73721870
12
Frame=1 idx=007313 GeodesicLength=0.10003557270750595 rxn_smarts="[O:1]([C:2]([c:3]1[n:4][n:5]([H:11])[c:6]([H:12])[n:7]1)([H:9])[H:10])[H:8]>>[N:5](=[C:6]=[N:7][H:12])[H:11].[O:1]([C:2]([C:3]#[N:4])([H:9])[H:10])[H:8]"
O       -2.89134732       0.68541665      -0.13164048
C       -1.78055967      -0.09140836       0.18861501
C       -0.48965796       0.57251088      -0.15441274
N        0.20444458       1.40138278      -0.60353661
N        2.76972543       0.39679845      -0.29513236
C        1.99290746      -0.40289955       0.29700305
N        0.75880448      -0.65893587       0.49774634
H       -2.93868541       0.80470211      -1.08270211
H       -1.77008728      -1.06875980      -0.30383096
H       -1.78102768      -0.25942134       1.26488963
H        3.72581392       0.08205581      -0.38826883
H        2.19966944      -1.46144176       0.71127006
12
Frame=2 idx=007313 GeodesicLength=0.20096958081535982 rxn_smarts="[O:1]([C:2]([c:3]1[n:4][n:5]([H:11])[c:6]([H:12])[n:7]1)([H:9])[H:10])[H:8]>>[N:5](=[C:6]=[N:7][H:12])[H:11].[O:1]([C:2]([C:3]#[N:4])([H:9])[H:10])[H:8]"
O       -2.86714327       0.70586715      -0.14278968
C       -1.77466042      -0.09131107       0.19269497
C       -0.46920634       0.53280347      -0.16636404
N        0.22705647       1.35263707      -0.63802330
N        2.72643711       0.44622299      -0.23455598
C        1.99562204      -0.39501443       0.36022592
N        0.76727402      -0.70458792       0.51324925
H       -2.89415802       0.83178537      -1.09387395
H       -1.78968681      -1.07834797      -0.28015615
H       -1.77856713      -0.23831321       1.27216431
H        3.66507094       0.14186385      -0.45194449
H        2.19196142      -1.50360529       0.66937315
12
Frame=3 idx=007313 GeodesicLength=0.3033577901303053 rxn_smarts="[O:1]([C:2]([c:3]1[n:4][n:5]([H:11])[c:6]([H:12])[n:7]1)([H:9])[H:10])[H:8]>>[N:5](=[C:6]=[N:7][H:12])[H:11].[O:1]([C:2]([C:3]#[N:4])([H:9])[H:10])[H:8]"
O       -2.84086292       0.72751929      -0.15297121
C       -1.76752990      -0.09016371       0.19723692
C       -0.44843140       0.49175731      -0.17936076
N        0.25029831       1.30220126      -0.67258783
N        2.68188033       0.48864218      -0.17627789
C        1.99608476      -0.39710656       0.40913657
N        0.77634059      -0.75240234       0.52477098
H       -2.84825957       0.85866148      -1.10377870
H       -1.81000117      -1.08615311      -0.25495709
H       -1.77279603      -0.21499941       1.27961374
H        3.59636284       0.21195018      -0.50386431
H        2.18691417      -1.53990658       0.63303960
12
Frame=4 idx=007313 GeodesicLength=0.40661057706128967 rxn_smarts="[O:1]([C:2]([c:3]1[n:4][n:5]([H:11])[c:6]([H:12])[n:7]1)([H:9])[H:10])[H:8]>>[N:5](=[C:6]=[N:7][H:12])[H:11].[O:1]([C:2]([C:3]#[N:4])([H:9])[H:10])[H:8]"
O       -2.81435857       0.74467038      -0.16808199
C       -1.75932808      -0.08956265       0.20074146
C       -0.42778981       0.45545939      -0.18435710
N        0.27301789       1.26216326      -0.68978410
N        2.63705982       0.52077028      -0.13163982
C        1.99678499      -0.40253235       0.44894616
N        0.78651606      -0.79286013       0.54573501
H       -2.79750488       0.88221860      -1.11793985
H       -1.82350582      -1.09251602      -0.23336250
H       -1.77054989      -0.19491306       1.28526738
H        3.51875526       0.27803450      -0.55949972
H        2.18090304      -1.57093220       0.60397507
12
Frame=5 idx=007313 GeodesicLength=0.5105024427724671 rxn_smarts="[O:1]([C:2]([c:3]1[n:4][n:5]([H:11])[c:6]([H:12])[n:7]1)([H:9])[H:10])[H:8]>>[N:5](=[C:6]=[N:7][H:12])[H:11].[O:1]([C:2]([C:3]#[N:4])([H:9])[H:10])[H:8]"
O       -2.78805158       0.75895492      -0.18560512
C       -1.75064076      -0.08881558       0.20417779
C       -0.40767821       0.42183591      -0.18577679
N        0.29449292       1.22847967      -0.69845315
N        2.59332371       0.54618235      -0.09653741
C        1.99839078      -0.41048667       0.47999697
N        0.79734967      -0.82835081       0.57111608
H       -2.74506948       0.90207966      -1.13390177
H       -1.83374120      -1.09799475      -0.21218647
H       -1.76954528      -0.17482161       1.29043718
H        3.43844694       0.34301755      -0.60968126
H        2.17272250      -1.60008063       0.57641395
12
Frame=6 idx=007313 GeodesicLength=0.6148136319093571 rxn_smarts="[O:1]([C:2]([c:3]1[n:4][n:5]([H:11])[c:6]([H:12])[n:7]1)([H:9])[H:10])[H:8]>>[N:5](=[C:6]=[N:7][H:12])[H:11].[O:1]([C:2]([C:3]#[N:4])([H:9])[H:10])[H:8]"
O       -2.76205762       0.77165071      -0.20247579
C       -1.74148898      -0.08836076       0.20678843
C       -0.38833995       0.38991908      -0.18665144
N        0.31429119       1.19996962      -0.70244148
N        2.55094427       0.56696122      -0.06867856
C        2.00044052      -0.41843495       0.50513618
N        0.80894451      -0.86184532       0.59424764
H       -2.69317320       0.92115314      -1.14834642
H       -1.84258092      -1.10244987      -0.19365049
H       -1.76760417      -0.15688537       1.29427822
H        3.35569402       0.40416125      -0.65513355
H        2.16493034      -1.62583875       0.55692725
12
Frame=7 idx=007313 GeodesicLength=0.719171987019727 rxn_smarts="[O:1]([C:2]([c:3]1[n:4][n:5]([H:11])[c:6]([H:12])[n:7]1)([H:9])[H:10])[H:8]>>[N:5](=[C:6]=[N:7][H:12])[H:11].[O:1]([C:2]([C:3]#[N:4])([H:9])[H:10])[H:8]"
O       -2.73703141       0.78246462      -0.21884775
C       -1.73230140      -0.08834659       0.20860409
C       -0.37008906       0.36089326      -0.18567910
N        0.33184937       1.17749719      -0.70126943
N        2.51011681       0.58355319      -0.04955939
C        2.00309926      -0.42552112       0.52476401
N        0.82119314      -0.89191578       0.61680022
H       -2.64245633       0.93895744      -1.16144891
H       -1.84941874      -1.10598688      -0.17851699
H       -1.76606888      -0.14204569       1.29684420
H        3.27428880       0.45970624      -0.69628616
H        2.15681844      -1.64925587       0.54459520
12
Frame=8 idx=007313 GeodesicLength=0.8235255038990892 rxn_smarts="[O:1]([C:2]([c:3]1[n:4][n:5]([H:11])[c:6]([H:12])[n:7]1)([H:9])[H:10])[H:8]>>[N:5](=[C:6]=[N:7][H:12])[H:11].[O:1]([C:2]([C:3]#[N:4])([H:9])[H:10])[H:8]"
O       -2.71289514       0.79266875      -0.23370747
C       -1.72316890      -0.08780717       0.21075464
C       -0.35315793       0.33196038      -0.18701666
N        0.34744240       1.15528286      -0.70308999
N        2.46965483       0.59855920      -0.03337647
C        2.00539044      -0.43264933       0.53940453
N        0.83361189      -0.92185363       0.63459484
H       -2.59405175       0.95547725      -1.17257119
H       -1.85723867      -1.10885045      -0.16194199
H       -1.76218376      -0.12563946       1.29962074
H        3.19733612       0.51491564      -0.72648972
H        2.14926046      -1.67206403       0.53381875
12
Frame=9 idx=007313 GeodesicLength=0.9282043254609895 rxn_smarts="[O:1]([C:2]([c:3]1[n:4][n:5]([H:11])[c:6]([H:12])[n:7]1)([H:9])[H:10])[H:8]>>[N:5](=[C:6]=[N:7][H:12])[H:11].[O:1]([C:2]([C:3]#[N:4])([H:9])[H:10])[H:8]"
O       -2.68958379       0.80162102      -0.24858888
C       -1.71410149      -0.08703946       0.21284526
C       -0.33714682       0.30460143      -0.18788855
N        0.36123278       1.13637883      -0.70291061
N        2.43014275       0.61147103      -0.02064931
C        2.00810460      -0.44007380       0.54930828
N        0.84649547      -0.95021754       0.65066931
H       -2.54682570       0.97019345      -1.18318570
H       -1.86428154      -1.11103195      -0.14566995
H       -1.75803590      -0.10916184       1.30209235
H        3.12246199       0.56831464      -0.75220361
H        2.14153764      -1.69505582       0.52618141
12
Frame=10 idx=007313 GeodesicLength=1.0330282793751016 rxn_smarts="[O:1]([C:2]([c:3]1[n:4][n:5]([H:11])[c:6]([H:12])[n:7]1)([H:9])[H:10])[H:8]>>[N:5](=[C:6]=[N:7][H:12])[H:11].[O:1]([C:2]([C:3]#[N:4])([H:9])[H:10])[H:8]"
O       -2.66746533       0.80862280      -0.26398358
C       -1.70520306      -0.08644664       0.21454194
C       -0.32192409       0.28007530      -0.18663272
N        0.37326992       1.12240752      -0.69844890
N        2.39232977       0.62198197      -0.01231809
C        2.01166472      -0.44749540       0.55468717
N        0.85990130      -0.97569114       0.66697210
H       -2.50029473       0.98361709      -1.19343001
H       -1.86935442      -1.11277851      -0.13126604
H       -1.75504631      -0.09418440       1.30386652
H        3.04917672       0.61825862      -0.77671720
H        2.13294551      -1.71836721       0.52272881
12
Frame=11 idx=007313 GeodesicLength=1.1378389478187165 rxn_smarts="[O:1]([C:2]([c:3]1[n:4][n:5]([H:11])[c:6]([H:12])[n:7]1)([H:9])[H:10])[H:8]>>[N:5](=[C:6]=[N:7][H:12])[H:11].[O:1]([C:2]([C:3]#[N:4])([H:9])[H:10])[H:8]"
O       -2.64617154       0.81655980      -0.27635193
C       -1.69652129      -0.08548473       0.21605742
C       -0.30816660       0.25504460      -0.18904695
N        0.38344382       1.10750035      -0.69883440
N        2.35397243       0.63195798      -0.00531294
C        2.01398493      -0.45402031       0.55748123
N        0.87345475      -1.00335839       0.67508502
H       -2.45729098       0.99785345      -1.20051353
H       -1.87651161      -1.11345359      -0.11713163
H       -1.74896092      -0.07931903       1.30540888
H        2.98036241       0.66752277      -0.79371027
H        2.12840460      -1.74080290       0.52686909
12
Frame=12 idx=007313 GeodesicLength=1.2426103385453395 rxn_smarts="[O:1]([C:2]([c:3]1[n:4][n:5]([H:11])[c:6]([H:12])[n:7]1)([H:9])[H:10])[H:8]>>[N:5](=[C:6]=[N:7][H:12])[H:11].[O:1]([C:2]([C:3]#[N:4])([H:9])[H:10])[H:8]"
O       -2.62561354       0.82527394      -0.28625747
C       -1.68800599      -0.08417521       0.21742980
C       -0.29574971       0.22981346      -0.19436520
N        0.39200937       1.09198941      -0.70310392
N        2.31507594       0.64135641       0.00066762
C        2.01517455      -0.45968370       0.55826962
N        0.88714048      -1.03252451       0.67663655
H       -2.41741951       1.01238600      -1.20519236
H       -1.88518594      -1.11308924      -0.10324268
H       -1.74034654      -0.06464154       1.30676527
H        2.91564921       0.71577389      -0.80455849
H        2.12727167      -1.76247893       0.53695127
12
Frame=13 idx=007313 GeodesicLength=1.3472914976593675 rxn_smarts="[O:1]([C:2]([c:3]1[n:4][n:5]([H:11])[c:6]([H:12])[n:7]1)([H:9])[H:10])[H:8]>>[N:5](=[C:6]=[N:7][H:12])[H:11].[O:1]([C:2]([C:3]#[N:4])([H:9])[H:10])[H:8]"
O       -2.60608484       0.83346580      -0.29538448
C       -1.67968473      -0.08257557       0.21889212
C       -0.28443473       0.20545741      -0.20047484
N        0.39921883       1.07713011      -0.70881683
N        2.27615648       0.64978968       0.00534665
C        2.01595170      -0.46532985       0.55611540
N        0.90098627      -1.06151289       0.67487804
H       -2.37938416       1.02630581      -1.20883634
H       -1.89391815      -1.11208407      -0.08905951
H       -1.73077938      -0.04970489       1.30810331
H        2.85476425       0.76340251      -0.81096729
H        2.12720845      -1.78434406       0.55020377
12
Frame=14 idx=007313 GeodesicLength=1.4519290107342642 rxn_smarts="[O:1]([C:2]([c:3]1[n:4][n:5]([H:11])[c:6]([H:12])[n:7]1)([H:9])[H:10])[H:8]>>[N:5](=[C:6]=[N:7][H:12])[H:11].[O:1]([C:2]([C:3]#[N:4])([H:9])[H:10])[H:8]"
O       -2.58764335       0.84059448      -0.30444185
C       -1.67161072      -0.08111574       0.22006636
C       -0.27384204       0.18326674      -0.20536168
N        0.40520700       1.06535203      -0.71231816
N        2.23839954       0.65667739       0.00752884
C        2.01708314      -0.47092167       0.55107155
N        0.91516736      -1.08878199       0.67242692
H       -2.34243028       1.03977403      -1.21183097
H       -1.90138012      -1.11075732      -0.07642783
H       -1.72200909      -0.03620772       1.30901882
H        2.79597305       0.80847171      -0.81683995
H        2.12708551      -1.80635195       0.56710796
12
Frame=15 idx=007313 GeodesicLength=1.5565265452772639 rxn_smarts="[O:1]([C:2]([c:3]1[n:4][n:5]([H:11])[c:6]([H:12])[n:7]1)([H:9])[H:10])[H:8]>>[N:5](=[C:6]=[N:7][H:12])[H:11].[O:1]([C:2]([C:3]#[N:4])([H:9])[H:10])[H:8]"
O       -2.57008428       0.84743448      -0.31261535
C       -1.66369921      -0.07958925       0.22107668
C       -0.26411561       0.16208985      -0.21083628
N        0.41009389       1.05477023      -0.71628756
N        2.20103275       0.66249706       0.00835696
C        2.01796907      -0.47648227       0.54355579
N        0.92958035      -1.11588957       0.66686875
H       -2.30717858       1.05318385      -1.21366432
H       -1.90869625      -1.10893727      -0.06446109
H       -1.71263490      -0.02338193       1.30971040
H        2.73976566       0.85238301      -0.82030479
H        2.12796711      -1.82807819       0.58860082
12
Frame=16 idx=007313 GeodesicLength=1.6610877243487687 rxn_smarts="[O:1]([C:2]([c:3]1[n:4][n:5]([H:11])[c:6]([H:12])[n:7]1)([H:9])[H:10])[H:8]>>[N:5](=[C:6]=[N:7][H:12])[H:11].[O:1]([C:2]([C:3]#[N:4])([H:9])[H:10])[H:8]"
O       -2.55343190       0.85392297      -0.31991614
C       -1.65596005      -0.07818689       0.22177128
C       -0.25512396       0.14229071      -0.21645059
N        0.41395167       1.04610935      -0.71968284
N        2.16444578       0.66703946       0.00738195
C        2.01881827      -0.48213847       0.53340367
N        0.94429042      -1.14264545       0.65842936
H       -2.27342672       1.06692120      -1.21420763
H       -1.91552024      -1.10677176      -0.05391548
H       -1.70310848      -0.01198614       1.31006128
H        2.68557679       0.89465727      -0.82270536
H        2.12948843      -1.84921224       0.61583049
