15
Frame=0 idx=000250 GeodesicLength=0.0 rxn_smarts="[C:1]([C:2]([C:3]([C:4]([C:5]#[N:6])([H:14])[H:15])([H:12])[H:13])([H:10])[H:11])([H:7])([H:8])[H:9]>>[C:1]([C:2]([C:3]([C:4]([N+:6]#[C-:5])([H:14])[H:15])([H:12])[H:13])([H:10])[H:11])([H:7])([H:8])[H:9]"
C       -2.14195354      -0.18997726       0.40720561
C       -0.83998856       0.54304764       0.11230897
C        0.33664247      -0.41599682      -0.06270604
C        1.60427104       0.34252601      -0.37211794
C        2.79967831      -0.85318445      -0.89508872
N        3.19262933      -0.47798953       0.15700840
H       -2.06425809      -0.77626208       1.32559124
H       -2.96999995       0.50980122       0.52868146
H       -2.39942846      -0.87584971      -0.40282319
H       -0.62083006       1.24526061       0.92302957
H       -0.95629789       1.14643278      -0.79379238
H        0.48231778      -0.99772676       0.85074146
H        0.12799865      -1.12984242      -0.86244562
H        1.85016487       1.06087146       0.40728219
H        1.59905406       0.86888937      -1.32287506
15
Frame=1 idx=000250 GeodesicLength=0.029180670663300778 rxn_smarts="[C:1]([C:2]([C:3]([C:4]([C:5]#[N:6])([H:14])[H:15])([H:12])[H:13])([H:10])[H:11])([H:7])([H:8])[H:9]>>[C:1]([C:2]([C:3]([C:4]([N+:6]#[C-:5])([H:14])[H:15])([H:12])[H:13])([H:10])[H:11])([H:7])([H:8])[H:9]"
C       -2.14322935      -0.18958720       0.40626757
C       -0.84090224       0.54306026       0.11229153
C        0.33635015      -0.41540092      -0.05986965
C        1.60703727       0.34063818      -0.36875033
C        2.80576852      -0.86064170      -0.89896647
N        3.20251564      -0.47738861       0.14586836
H       -2.06679199      -0.77478838       1.32545152
H       -2.97176880       0.51000298       0.52544203
H       -2.39960204      -0.87654437      -0.40321554
H       -0.62302106       1.24658693       0.92222909
H       -0.95586618       1.14535167      -0.79473784
H        0.48072534      -0.99702446       0.85388160
H        0.12720976      -1.12948827      -0.85941899
H        1.84676311       1.06222768       0.41020694
H        1.59481186       0.87299621      -1.31667981
15
Frame=2 idx=000250 GeodesicLength=0.05835594097181765 rxn_smarts="[C:1]([C:2]([C:3]([C:4]([C:5]#[N:6])([H:14])[H:15])([H:12])[H:13])([H:10])[H:11])([H:7])([H:8])[H:9]>>[C:1]([C:2]([C:3]([C:4]([N+:6]#[C-:5])([H:14])[H:15])([H:12])[H:13])([H:10])[H:11])([H:7])([H:8])[H:9]"
C       -2.14450515      -0.18919763       0.40531637
C       -0.84181626       0.54307705       0.11227728
C        0.33606212      -0.41479080      -0.05701156
C        1.60982915       0.33874493      -0.36534604
C        2.81186443      -0.86822836      -0.90283224
N        3.21240249      -0.47668735       0.13454541
H       -2.06933589      -0.77331568       1.32529551
H       -2.97353659       0.51019864       0.52218253
H       -2.39976424      -0.87723880      -0.40362192
H       -0.62522169       1.24791890       0.92142809
H       -0.95542115       1.14427202      -0.79567928
H        0.47911151      -0.99630569       0.85704733
H        0.12643797      -1.12912490      -0.85636963
H        1.84330707       1.06358841       0.41313242
H        1.59058622       0.87708926      -1.31036427
15
Frame=3 idx=000250 GeodesicLength=0.0875213981540563 rxn_smarts="[C:1]([C:2]([C:3]([C:4]([C:5]#[N:6])([H:14])[H:15])([H:12])[H:13])([H:10])[H:11])([H:7])([H:8])[H:9]>>[C:1]([C:2]([C:3]([C:4]([N+:6]#[C-:5])([H:14])[H:15])([H:12])[H:13])([H:10])[H:11])([H:7])([H:8])[H:9]"
C       -2.14577971      -0.18880897       0.40435401
C       -0.84273033       0.54309881       0.11226717
C        0.33577753      -0.41416560      -0.05413776
C        1.61264550       0.33684844      -0.36190965
C        2.81797208      -0.87594914      -0.90666536
N        3.22228046      -0.47587986       0.12305274
H       -2.07188429      -0.77185324       1.32511928
H       -2.97530010       0.51038795       0.51891789
H       -2.39991855      -0.87792571      -0.40404539
H       -0.62742920       1.24925261       0.92063100
H       -0.95496416       1.14319938      -0.79661223
H        0.47747488      -0.99557374       0.86023006
H        0.12568241      -1.12874782      -0.85330678
H        1.83979172       1.06496256       0.41604692
H        1.58638176       0.88115434      -1.30394192
15
Frame=4 idx=000250 GeodesicLength=0.1166716252441418 rxn_smarts="[C:1]([C:2]([C:3]([C:4]([C:5]#[N:6])([H:14])[H:15])([H:12])[H:13])([H:10])[H:11])([H:7])([H:8])[H:9]>>[C:1]([C:2]([C:3]([C:4]([N+:6]#[C-:5])([H:14])[H:15])([H:12])[H:13])([H:10])[H:11])([H:7])([H:8])[H:9]"
C       -2.14705183      -0.18842175       0.40338288
C       -0.84364422       0.54312646       0.11226203
C        0.33549536      -0.41352457      -0.05125500
C        1.61548515       0.33495112      -0.35844590
C        2.82409826      -0.88380880      -0.91044394
N        3.23214013      -0.47496074       0.11140564
H       -2.07443118      -0.77041079       1.32491935
H       -2.97705606       0.51057071       0.51566424
H       -2.40006905      -0.87859782      -0.40448880
H       -0.62964045       1.25058431       0.91984231
H       -0.95449688       1.14213968      -0.79753248
H        0.47581385      -0.99483268       0.86342023
H        0.12494184      -1.12835212      -0.85024111
H        1.83621183       1.06635969       0.41893800
H        1.58220325       0.88517728      -1.29742747
15
Frame=5 idx=000250 GeodesicLength=0.14580429934669586 rxn_smarts="[C:1]([C:2]([C:3]([C:4]([C:5]#[N:6])([H:14])[H:15])([H:12])[H:13])([H:10])[H:11])([H:7])([H:8])[H:9]>>[C:1]([C:2]([C:3]([C:4]([N+:6]#[C-:5])([H:14])[H:15])([H:12])[H:13])([H:10])[H:11])([H:7])([H:8])[H:9]"
C       -2.14831998      -0.18803634       0.40240586
C       -0.84455804       0.54316057       0.11226204
C        0.33521473      -0.41286632      -0.04837071
C        1.61834670       0.33305572      -0.35495943
C        2.83025077      -0.89181070      -0.91414542
N        3.24197069      -0.47392831       0.09961881
H       -2.07696975      -0.76899616       1.32469282
H       -2.97880141       0.51074624       0.51243764
H       -2.40021892      -0.87924844      -0.40495300
H       -0.63185323       1.25191005       0.91906472
H       -0.95402187       1.14109731      -0.79843612
H        0.47412695      -0.99408576       0.86660663
H        0.12421596      -1.12793153      -0.84718363
H        1.83256171       1.06778814       0.42179400
H        1.57805568       0.88914554      -1.29083420
15
Frame=6 idx=000250 GeodesicLength=0.17491892145323212 rxn_smarts="[C:1]([C:2]([C:3]([C:4]([C:5]#[N:6])([H:14])[H:15])([H:12])[H:13])([H:10])[H:11])([H:7])([H:8])[H:9]>>[C:1]([C:2]([C:3]([C:4]([N+:6]#[C-:5])([H:14])[H:15])([H:12])[H:13])([H:10])[H:11])([H:7])([H:8])[H:9]"
C       -2.14958283      -0.18765359       0.40142640
C       -0.84547176       0.54320218       0.11226735
C        0.33493441      -0.41218979      -0.04549343
C        1.62122885       0.33116581      -0.35145569
C        2.83643863      -0.89995877      -0.91774399
N        3.25176193      -0.47278213       0.08771069
H       -2.07949264      -0.76761977       1.32443728
H       -2.98053271       0.51091406       0.50925703
H       -2.40037313      -0.87987050      -0.40543983
H       -0.63406410       1.25322634       0.91830203
H       -0.95354181       1.14007828      -0.79931976
H        0.47241232      -0.99333793       0.86977735
H        0.12350334      -1.12747993      -0.84414781
H        1.82883534       1.06925936       0.42460136
H        1.57394418       0.89304640      -1.28417897
15
Frame=7 idx=000250 GeodesicLength=0.2040344355851474 rxn_smarts="[C:1]([C:2]([C:3]([C:4]([C:5]#[N:6])([H:14])[H:15])([H:12])[H:13])([H:10])[H:11])([H:7])([H:8])[H:9]>>[C:1]([C:2]([C:3]([C:4]([N+:6]#[C-:5])([H:14])[H:15])([H:12])[H:13])([H:10])[H:11])([H:7])([H:8])[H:9]"
C       -2.15083983      -0.18727677       0.40044931
C       -0.84638510       0.54325401       0.11227649
C        0.33465307      -0.41149392      -0.04263282
C        1.62413189       0.32928944      -0.34794129
C        2.84267195      -0.90825666      -0.92121222
N        3.26149768      -0.47153522       0.07569969
H       -2.08199251      -0.76629382       1.32415725
H       -2.98224735       0.51107249       0.50614088
H       -2.40053882      -0.88046444      -0.40595084
H       -0.63626777       1.25453546       0.91755809
H       -0.95305996       1.13909088      -0.80018658
H        0.47066816      -0.99259629       0.87292340
H        0.12280098      -1.12699397      -0.84115131
H        1.82503057       1.07079063       0.42735167
H        1.56987705       0.89687816      -1.27748172
15
Frame=8 idx=000250 GeodesicLength=0.23306072659391452 rxn_smarts="[C:1]([C:2]([C:3]([C:4]([C:5]#[N:6])([H:14])[H:15])([H:12])[H:13])([H:10])[H:11])([H:7])([H:8])[H:9]>>[C:1]([C:2]([C:3]([C:4]([N+:6]#[C-:5])([H:14])[H:15])([H:12])[H:13])([H:10])[H:11])([H:7])([H:8])[H:9]"
C       -2.15208541      -0.18689789       0.39947443
C       -0.84729799       0.54331237       0.11229579
C        0.33437082      -0.41077915      -0.03979516
C        1.62704856       0.32741565      -0.34441751
C        2.84896292      -0.91670677      -0.92453159
N        3.27116668      -0.47013557       0.06361916
H       -2.08445801      -0.76502317       1.32382935
H       -2.98393826       0.51122737       0.50311153
H       -2.40071296      -0.88099838      -0.40648962
H       -0.63846509       1.25581583       0.91683945
H       -0.95257915       1.13813673      -0.80101083
H        0.46889419      -0.99186414       0.87602079
H        0.12211459      -1.12645796      -0.83819904
H        1.82113626       1.07236833       0.43001334
H        1.56584284       0.90058676      -1.27076008
15
Frame=9 idx=000250 GeodesicLength=0.26209297399183307 rxn_smarts="[C:1]([C:2]([C:3]([C:4]([C:5]#[N:6])([H:14])[H:15])([H:12])[H:13])([H:10])[H:11])([H:7])([H:8])[H:9]>>[C:1]([C:2]([C:3]([C:4]([N+:6]#[C-:5])([H:14])[H:15])([H:12])[H:13])([H:10])[H:11])([H:7])([H:8])[H:9]"
C       -2.15332439      -0.18652599       0.39850604
C       -0.84821301       0.54338143       0.11231161
C        0.33408744      -0.41004134      -0.03697942
C        1.62998694       0.32556208      -0.34087765
C        2.85530318      -0.92530432      -0.92770958
N        3.28077427      -0.46865500       0.05143022
H       -2.08689332      -0.76379988       1.32348286
H       -2.98561268       0.51137097       0.50015402
H       -2.40090044      -0.88151076      -0.40704225
H       -0.64065820       1.25709525       0.91612656
H       -0.95210357       1.13720679      -0.80182947
H        0.46708860      -0.99113917       0.87908437
H        0.12144180      -1.12588042      -0.83529446
H        1.81716509       1.07400144       0.43262837
H        1.56185829       0.90423891      -1.26399120
15
Frame=10 idx=000250 GeodesicLength=0.29109993332027695 rxn_smarts="[C:1]([C:2]([C:3]([C:4]([C:5]#[N:6])([H:14])[H:15])([H:12])[H:13])([H:10])[H:11])([H:7])([H:8])[H:9]>>[C:1]([C:2]([C:3]([C:4]([N+:6]#[C-:5])([H:14])[H:15])([H:12])[H:13])([H:10])[H:11])([H:7])([H:8])[H:9]"
C       -2.15455659      -0.18615741       0.39753998
C       -0.84913066       0.54345940       0.11232434
C        0.33380464      -0.40928176      -0.03417546
C        1.63294593       0.32372522      -0.33730819
C        2.86168548      -0.93405140      -0.93077324
N        3.29032392      -0.46707563       0.03910157
H       -2.08930433      -0.76260758       1.32311808
H       -2.98727518       0.51150485       0.49724366
H       -2.40109024      -0.88200803      -0.40760329
H       -0.64285427       1.25837653       0.91541311
H       -0.95163060       1.13629344      -0.80264223
H        0.46525279      -0.99041675       0.88212348
H        0.12078901      -1.12526240      -0.83242379
H        1.81312332       1.07566433       0.43521572
H        1.55791678       0.90783719      -1.25715373
15
Frame=11 idx=000250 GeodesicLength=0.3200891040429689 rxn_smarts="[C:1]([C:2]([C:3]([C:4]([C:5]#[N:6])([H:14])[H:15])([H:12])[H:13])([H:10])[H:11])([H:7])([H:8])[H:9]>>[C:1]([C:2]([C:3]([C:4]([N+:6]#[C-:5])([H:14])[H:15])([H:12])[H:13])([H:10])[H:11])([H:7])([H:8])[H:9]"
C       -2.15578343      -0.18579256       0.39657399
C       -0.85005164       0.54354441       0.11233141
C        0.33352419      -0.40850040      -0.03137778
C        1.63592747       0.32190664      -0.33370074
C        2.86810476      -0.94294831      -0.93372709
N        3.29982263      -0.46539959       0.02660546
H       -2.09169573      -0.76143901       1.32273734
H       -2.98892810       0.51162836       0.49437450
H       -2.40128320      -0.88249275      -0.40817294
H       -0.64505778       1.25966411       0.91469126
H       -0.95116004       1.13538777      -0.80345605
H        0.46338815      -0.98969368       0.88514511
H        0.12015949      -1.12460554      -0.82958041
H        1.80901580       1.07734822       0.43779106
H        1.55401742       0.91139233      -1.25023513
15
Frame=12 idx=000250 GeodesicLength=0.34906268606597357 rxn_smarts="[C:1]([C:2]([C:3]([C:4]([C:5]#[N:6])([H:14])[H:15])([H:12])[H:13])([H:10])[H:11])([H:7])([H:8])[H:9]>>[C:1]([C:2]([C:3]([C:4]([N+:6]#[C-:5])([H:14])[H:15])([H:12])[H:13])([H:10])[H:11])([H:7])([H:8])[H:9]"
C       -2.15700755      -0.18543195       0.39560073
C       -0.85097591       0.54363623       0.11233616
C        0.33324812      -0.40769675      -0.02857392
C        1.63893284       0.32010605      -0.33004993
C        2.87455536      -0.95200058      -0.93658083
N        3.30927817      -0.46361950       0.01390644
H       -2.09407941      -0.76029342       1.32233550
H       -2.99057567       0.51174084       0.49153125
H       -2.40147634      -0.88296373      -0.40876222
H       -0.64727412       1.26095713       0.91396668
H       -0.95068681       1.13449219      -0.80426682
H        0.46149935      -0.98896017       0.88816756
H        0.11955617      -1.12391970      -0.82674277
H        1.80485108       1.07904663       0.44036158
H        1.55015472       0.91490673      -1.24322941
15
Frame=13 idx=000250 GeodesicLength=0.3780251078358817 rxn_smarts="[C:1]([C:2]([C:3]([C:4]([C:5]#[N:6])([H:14])[H:15])([H:12])[H:13])([H:10])[H:11])([H:7])([H:8])[H:9]>>[C:1]([C:2]([C:3]([C:4]([N+:6]#[C-:5])([H:14])[H:15])([H:12])[H:13])([H:10])[H:11])([H:7])([H:8])[H:9]"
C       -2.15822860      -0.18507550       0.39461855
C       -0.85190349       0.54373353       0.11233594
C        0.33297655      -0.40687170      -0.02576165
C        1.64196115       0.31832415      -0.32635082
C        2.88103646      -0.96121120      -0.93933088
N        3.31868920      -0.46172923       0.00098263
H       -2.09645530      -0.75916701       1.32191216
H       -2.99221627       0.51184360       0.48871267
H       -2.40167032      -0.88342149      -0.40937148
H       -0.64950591       1.26225671       0.91323510
H       -0.95020916       1.13360232      -0.80507921
H        0.45958574      -0.98821360       0.89119449
H        0.11898098      -1.12320746      -0.82390782
H        1.80063123       1.08075178       0.44293930
H        1.54632774       0.91838510      -1.23612900
15
Frame=14 idx=000250 GeodesicLength=0.40697065071804794 rxn_smarts="[C:1]([C:2]([C:3]([C:4]([C:5]#[N:6])([H:14])[H:15])([H:12])[H:13])([H:10])[H:11])([H:7])([H:8])[H:9]>>[C:1]([C:2]([C:3]([C:4]([N+:6]#[C-:5])([H:14])[H:15])([H:12])[H:13])([H:10])[H:11])([H:7])([H:8])[H:9]"
C       -2.15944363      -0.18472468       0.39362759
C       -0.85283329       0.54384073       0.11233784
C        0.33271091      -0.40602039      -0.02293737
C        1.64501196       0.31656782      -0.32260227
C        2.88754148      -0.97058054      -0.94198179
N        3.32804142      -0.45974534      -0.01217577
H       -2.09882424      -0.75804862       1.32147598
H       -2.99385544       0.51193001       0.48588423
H       -2.40184668      -0.88388355      -0.40999156
H       -0.65175179       1.26356344       0.91250639
H       -0.94972686       1.13272102      -0.80588614
H        0.45764955      -0.98745246       0.89422685
H        0.11843437      -1.12245825      -0.82107648
H        1.79635880       1.08246049       0.44552903
H        1.54253343       0.92183031      -1.22893652
15
Frame=15 idx=000250 GeodesicLength=0.4359069758556527 rxn_smarts="[C:1]([C:2]([C:3]([C:4]([C:5]#[N:6])([H:14])[H:15])([H:12])[H:13])([H:10])[H:11])([H:7])([H:8])[H:9]>>[C:1]([C:2]([C:3]([C:4]([N+:6]#[C-:5])([H:14])[H:15])([H:12])[H:13])([H:10])[H:11])([H:7])([H:8])[H:9]"
C       -2.16065496      -0.18437974       0.39262643
C       -0.85376686       0.54395656       0.11233720
C        0.33245198      -0.40514269      -0.02009573
C        1.64808731       0.31483873      -0.31879536
C        2.89406805      -0.98010586      -0.94454587
N        3.33733381      -0.45767147      -0.02560081
H       -2.10119050      -0.75692802       1.32103257
H       -2.99549667       0.51200004       0.48303388
H       -2.40200410      -0.88435989      -0.41061660
H       -0.65401577       1.26488630       0.91176740
H       -0.94924095       1.13183906      -0.80669860
H        0.45568973      -0.98667421       0.89727224
H        0.11792003      -1.12167696      -0.81823999
H        1.79204455       1.08415795       0.44815621
H        1.53877434       0.92526020      -1.22163298
15
Frame=16 idx=000250 GeodesicLength=0.46483575917633607 rxn_smarts="[C:1]([C:2]([C:3]([C:4]([C:5]#[N:6])([H:14])[H:15])([H:12])[H:13])([H:10])[H:11])([H:7])([H:8])[H:9]>>[C:1]([C:2]([C:3]([C:4]([N+:6]#[C-:5])([H:14])[H:15])([H:12])[H:13])([H:10])[H:11])([H:7])([H:8])[H:9]"
C       -2.16186424      -0.18404052       0.39160748
C       -0.85470344       0.54408012       0.11233624
C        0.33220169      -0.40423853      -0.01722406
C        1.65118777       0.31313671      -0.31492317
C        2.90060767      -0.98979315      -0.94702976
N        3.34656978      -0.45549789      -0.03933471
H       -2.10356388      -0.75580651       1.32057363
H       -2.99714070       0.51205522       0.48014836
H       -2.40213947      -0.88484975      -0.41125605
H       -0.65630200       1.26622586       0.91101988
H       -0.94874515       1.13095442      -0.80751518
H        0.45370935      -0.98586693       0.90035021
H        0.11744190      -1.12087322      -0.81537730
H        1.78769510       1.08583536       0.45083269
H        1.53504562       0.92867883      -1.21420825
