14
Frame=0 idx=004134 GeodesicLength=0.0 rxn_smarts="[C:1]([C:2](=[O:3])[C:4]([C:5]([O:6][H:14])([H:12])[H:13])([H:10])[H:11])([H:7])([H:8])[H:9]>>[C:1]([C@@:2]([O:3][H:14])([C@@:4]1([H:10])[C:5]([H:12])([H:13])[O:6]1)[H:11])([H:7])([H:8])[H:9]"
C        1.88058363      -0.07013958      -0.49220630
C        0.60647778      -0.01743202       0.34288809
O        0.41066391       1.06640581       1.06638784
C       -0.60241119      -0.53956053      -0.26464463
C       -1.87335306      -0.08104336       0.30478993
O       -1.59712043       1.17426988      -0.28904858
H        2.73827266       0.06596556       0.16418908
H        1.98763144      -1.01607849      -1.02889119
H        1.86305982       0.75380806      -1.20653126
H       -0.57050415      -1.17396510      -1.14778925
H        0.58559871      -1.03748895       0.94562688
H       -1.91017754      -0.05183417       1.39581911
H       -2.76709420      -0.53342160      -0.11952107
H       -0.75162741       1.46051451       0.32893141
14
Frame=1 idx=004134 GeodesicLength=0.0824559264173937 rxn_smarts="[C:1]([C:2](=[O:3])[C:4]([C:5]([O:6][H:14])([H:12])[H:13])([H:10])[H:11])([H:7])([H:8])[H:9]>>[C:1]([C@@:2]([O:3][H:14])([C@@:4]1([H:10])[C:5]([H:12])([H:13])[O:6]1)[H:11])([H:7])([H:8])[H:9]"
C        1.88369145      -0.06855778      -0.49111274
C        0.61102486      -0.00921441       0.34348977
O        0.41244471       1.08107432       1.05548618
C       -0.60135130      -0.54182321      -0.25662475
C       -1.87578581      -0.08785818       0.31102921
O       -1.60052174       1.15892785      -0.30056232
H        2.74153946       0.04510552       0.16964107
H        1.98203956      -1.00844922      -1.03975689
H        1.87885165       0.76313683      -1.19652502
H       -0.56948655      -1.16228855      -1.14954609
H        0.56539218      -1.04952222       0.93591726
H       -1.91021684      -0.04394195       1.40149818
H       -2.76654679      -0.54994300      -0.10880881
H       -0.75107485       1.47335400       0.32587495
14
Frame=2 idx=004134 GeodesicLength=0.16491842037740934 rxn_smarts="[C:1]([C:2](=[O:3])[C:4]([C:5]([O:6][H:14])([H:12])[H:13])([H:10])[H:11])([H:7])([H:8])[H:9]>>[C:1]([C@@:2]([O:3][H:14])([C@@:4]1([H:10])[C:5]([H:12])([H:13])[O:6]1)[H:11])([H:7])([H:8])[H:9]"
C        1.88668324      -0.06689580      -0.48995757
C        0.61549544      -0.00129794       0.34430792
O        0.41419233       1.09558969       1.04439928
C       -0.60029789      -0.54391565      -0.24883233
C       -1.87818102      -0.09461306       0.31719355
O       -1.60386336       1.14354631      -0.31173912
H        2.74433635       0.02409557       0.17485983
H        1.97640347      -1.00033197      -1.05077560
H        1.89470867       0.77247502      -1.18610991
H       -0.56855634      -1.15115210      -1.15074396
H        0.54557074      -1.06152172       0.92614280
H       -1.91033238      -0.03610076       1.40690384
H       -2.76588607      -0.56629861      -0.09815659
H       -0.75027317       1.48642102       0.32250785
14
Frame=3 idx=004134 GeodesicLength=0.2473817556585557 rxn_smarts="[C:1]([C:2](=[O:3])[C:4]([C:5]([O:6][H:14])([H:12])[H:13])([H:10])[H:11])([H:7])([H:8])[H:9]>>[C:1]([C@@:2]([O:3][H:14])([C@@:4]1([H:10])[C:5]([H:12])([H:13])[O:6]1)[H:11])([H:7])([H:8])[H:9]"
C        1.88956884      -0.06515986      -0.48874372
C        0.61989563       0.00634896       0.34533170
O        0.41591602       1.10994007       1.03315840
C       -0.59925427      -0.54583765      -0.24125766
C       -1.88054635      -0.10130988       0.32328337
O       -1.60715278       1.12814070      -0.32257157
H        2.74668045       0.00302668       0.17980583
H        1.97075835      -0.99177582      -1.06185335
H        1.91059874       0.78174503      -1.17535496
H       -0.56769690      -1.14051984      -1.15144944
H        0.52610736      -1.07351214       0.91630131
H       -1.91052830      -0.02833239       1.41204289
H       -2.76512243      -0.58248044      -0.08757818
H       -0.74922437       1.49972659       0.31888538
14
Frame=4 idx=004134 GeodesicLength=0.3298473203588951 rxn_smarts="[C:1]([C:2](=[O:3])[C:4]([C:5]([O:6][H:14])([H:12])[H:13])([H:10])[H:11])([H:7])([H:8])[H:9]>>[C:1]([C@@:2]([O:3][H:14])([C@@:4]1([H:10])[C:5]([H:12])([H:13])[O:6]1)[H:11])([H:7])([H:8])[H:9]"
C        1.89235943      -0.06335702      -0.48746514
C        0.62422496       0.01377869       0.34653267
O        0.41760792       1.12415822       1.02173125
C       -0.59822287      -0.54759337      -0.23388767
C       -1.88287879      -0.10796581       0.32932063
O       -1.61042980       1.11269401      -0.33308361
H        2.74856383      -0.01819309       0.18450277
H        1.96507626      -0.98275833      -1.07301738
H        1.92659387       0.79095484      -1.16421734
H       -0.56689304      -1.13034978      -1.15171936
H        0.50697808      -1.08548471       0.90639546
H       -1.91078348      -0.02062511       1.41693921
H       -2.76424507      -0.59854600      -0.07701866
H       -0.74795130       1.51328747       0.31498718
14
Frame=5 idx=004134 GeodesicLength=0.4123135834754968 rxn_smarts="[C:1]([C:2](=[O:3])[C:4]([C:5]([O:6][H:14])([H:12])[H:13])([H:10])[H:11])([H:7])([H:8])[H:9]>>[C:1]([C@@:2]([O:3][H:14])([C@@:4]1([H:10])[C:5]([H:12])([H:13])[O:6]1)[H:11])([H:7])([H:8])[H:9]"
C        1.89506117      -0.06148961      -0.48612733
C        0.62848892       0.02101356       0.34790480
O        0.41927868       1.13822717       1.01015528
C       -0.59720607      -0.54919075      -0.22670681
C       -1.88518586      -0.11458129       0.33530235
O       -1.61368696       1.09721819      -0.34327520
H        2.75000513      -0.03946896       0.18890923
H        1.95938793      -0.97332129      -1.08419069
H        1.94265818       0.80004508      -1.15275904
H       -0.56613604      -1.12062141      -1.15159723
H        0.48815531      -1.09746758       0.89642530
H       -1.91111147      -0.01299366       1.42159643
H       -2.76326419      -0.61448295      -0.06649968
H       -0.74644472       1.52711351       0.31086260
14
Frame=6 idx=004134 GeodesicLength=0.49477601583656083 rxn_smarts="[C:1]([C:2](=[O:3])[C:4]([C:5]([O:6][H:14])([H:12])[H:13])([H:10])[H:11])([H:7])([H:8])[H:9]>>[C:1]([C@@:2]([O:3][H:14])([C@@:4]1([H:10])[C:5]([H:12])([H:13])[O:6]1)[H:11])([H:7])([H:8])[H:9]"
C        1.89767991      -0.05956119      -0.48473404
C        0.63269366       0.02807467       0.34943915
O        0.42093526       1.15212730       0.99846707
C       -0.59620481      -0.55063730      -0.21970097
C       -1.88747167      -0.12115551       0.34122656
O       -1.61692020       1.08172397      -0.35315015
H        2.75101945      -0.06071159       0.19300075
H        1.95372569      -0.96350899      -1.09530150
H        1.95874488       0.80895656      -1.14104639
H       -0.56541417      -1.11130754      -1.15112410
H        0.46961687      -1.10948744       0.88638304
H       -1.91152199      -0.00544743       1.42601838
H       -2.76218534      -0.63028025      -0.05603806
H       -0.74469753       1.54121475       0.30656026
14
Frame=7 idx=004134 GeodesicLength=0.5772445679122347 rxn_smarts="[C:1]([C:2](=[O:3])[C:4]([C:5]([O:6][H:14])([H:12])[H:13])([H:10])[H:11])([H:7])([H:8])[H:9]>>[C:1]([C@@:2]([O:3][H:14])([C@@:4]1([H:10])[C:5]([H:12])([H:13])[O:6]1)[H:11])([H:7])([H:8])[H:9]"
C        1.90022785      -0.05757641      -0.48328236
C        0.63683872       0.03500593       0.35110985
O        0.42257196       1.16589274       0.98663588
C       -0.59522070      -0.55194084      -0.21285585
C       -1.88973781      -0.12770535       0.34711195
O       -1.62016635       1.06619148      -0.36273193
H        2.75160563      -0.08201395       0.19679502
H        1.94806277      -0.95329323      -1.10639034
H        1.97493323       0.81771249      -1.12902463
H       -0.56472205      -1.10238300      -1.15033420
H        0.45134067      -1.12153696       0.87627168
H       -1.91200290       0.00202796       1.43022436
H       -2.76100385      -0.64599194      -0.04558574
H       -0.74272717       1.55561109       0.30205630
14
Frame=8 idx=004134 GeodesicLength=0.6597137272304621 rxn_smarts="[C:1]([C:2](=[O:3])[C:4]([C:5]([O:6][H:14])([H:12])[H:13])([H:10])[H:11])([H:7])([H:8])[H:9]>>[C:1]([C@@:2]([O:3][H:14])([C@@:4]1([H:10])[C:5]([H:12])([H:13])[O:6]1)[H:11])([H:7])([H:8])[H:9]"
C        1.90271213      -0.05553888      -0.48176771
C        0.64091907       0.04185342       0.35288882
O        0.42417639       1.17955549       0.97462670
C       -0.59425244      -0.55310824      -0.20615827
C       -1.89197894      -0.13424788       0.35297843
O       -1.62345560       1.05059067      -0.37204781
H        2.75174096      -0.10348539       0.20030711
H        1.94236181      -0.94262567      -1.11751105
H        1.99131826       0.82633222      -1.11662277
H       -0.56405032      -1.09382290      -1.14925659
H        0.43330074      -1.13359518       0.86609567
H       -1.91253701       0.00944905       1.43423439
H       -2.75970357      -0.66167327      -0.03508731
H       -0.74055147       1.57031656       0.29732038
14
Frame=9 idx=004134 GeodesicLength=0.7421881081075391 rxn_smarts="[C:1]([C:2](=[O:3])[C:4]([C:5]([O:6][H:14])([H:12])[H:13])([H:10])[H:11])([H:7])([H:8])[H:9]>>[C:1]([C@@:2]([O:3][H:14])([C@@:4]1([H:10])[C:5]([H:12])([H:13])[O:6]1)[H:11])([H:7])([H:8])[H:9]"
C        1.90513833      -0.05344908      -0.48019571
C        0.64494390       0.04862741       0.35477213
O        0.42576199       1.19309187       0.96248101
C       -0.59330074      -0.55414822      -0.19959300
C       -1.89420179      -0.14078003       0.35881856
O       -1.62677842       1.03493503      -0.38109927
H        2.75144840      -0.12501848       0.20350532
H        1.93666321      -0.93155363      -1.12858502
H        2.00783283       0.83476248      -1.10390957
H       -0.56339673      -1.08561419      -1.14791155
H        0.41547849      -1.14570170       0.85584341
H       -1.91313946       0.01680590       1.43804273
H       -2.75829633      -0.67730323      -0.02457150
H       -0.73815368       1.58534587       0.29240246
14
Frame=10 idx=004134 GeodesicLength=0.8246547289698701 rxn_smarts="[C:1]([C:2](=[O:3])[C:4]([C:5]([O:6][H:14])([H:12])[H:13])([H:10])[H:11])([H:7])([H:8])[H:9]>>[C:1]([C@@:2]([O:3][H:14])([C@@:4]1([H:10])[C:5]([H:12])([H:13])[O:6]1)[H:11])([H:7])([H:8])[H:9]"
C        1.90750519      -0.05130749      -0.47857449
C        0.64891487       0.05534270       0.35675195
O        0.42733382       1.20648469       0.95023552
C       -0.59236155      -0.55507001      -0.19314514
C       -1.89640579      -0.14730130       0.36462737
O       -1.63011527       1.01922891      -0.38989158
H        2.75073391      -0.14652880       0.20636747
H        1.93099049      -0.92012022      -1.13955282
H        2.02442689       0.84295783      -1.09094958
H       -0.56274649      -1.07774188      -1.14631820
H        0.39784834      -1.15788007       0.84551031
H       -1.91382242       0.02408669       1.44164945
H       -2.75677964      -0.69286411      -0.01406245
H       -0.73552236       1.60071305       0.28735219
14
Frame=11 idx=004134 GeodesicLength=0.9071315567222116 rxn_smarts="[C:1]([C:2](=[O:3])[C:4]([C:5]([O:6][H:14])([H:12])[H:13])([H:10])[H:11])([H:7])([H:8])[H:9]>>[C:1]([C@@:2]([O:3][H:14])([C@@:4]1([H:10])[C:5]([H:12])([H:13])[O:6]1)[H:11])([H:7])([H:8])[H:9]"
C        1.90982163      -0.04911457      -0.47690439
C        0.65283807       0.06202232       0.35881580
O        0.42890010       1.21974232       0.93789797
C       -0.59143669      -0.55588438      -0.18680202
C       -1.89859548      -0.15381938       0.37040835
O       -1.63347935       1.00346894      -0.39844388
H        2.74961061      -0.16801059       0.20889385
H        1.92534562      -0.90833373      -1.15040400
H        2.04110697       0.85091330      -1.07774790
H       -0.56210328      -1.07019683      -1.14449543
H        0.38039008      -1.17014790       0.83509041
H       -1.91458505       0.03129475       1.44506120
H       -2.75516105      -0.70837601      -0.00355176
H       -0.73265217       1.61644176       0.28218180
14
Frame=12 idx=004134 GeodesicLength=0.9895707277364919 rxn_smarts="[C:1]([C:2](=[O:3])[C:4]([C:5]([O:6][H:14])([H:12])[H:13])([H:10])[H:11])([H:7])([H:8])[H:9]>>[C:1]([C@@:2]([O:3][H:14])([C@@:4]1([H:10])[C:5]([H:12])([H:13])[O:6]1)[H:11])([H:7])([H:8])[H:9]"
C        1.91208304      -0.04687567      -0.47518772
C        0.65670712       0.06868082       0.36095058
O        0.43044701       1.23284385       0.92547823
C       -0.59051625      -0.55658967      -0.18055139
C       -1.90076026      -0.16033227       0.37616465
O       -1.63685759       0.98763959      -0.40676015
H        2.74806183      -0.18941454       0.21106806
H        1.91974830      -0.89621001      -1.16110030
H        2.05784462       0.85858278      -1.06432998
H       -0.56144206      -1.06294640      -1.14245579
H        0.36306485      -1.18250695       0.82455765
H       -1.91543194       0.03843786       1.44827537
H       -2.75341625      -0.72383443       0.00696957
H       -0.72953243       1.63252505       0.27692122
14
Frame=13 idx=004134 GeodesicLength=1.0720275195914266 rxn_smarts="[C:1]([C:2](=[O:3])[C:4]([C:5]([O:6][H:14])([H:12])[H:13])([H:10])[H:11])([H:7])([H:8])[H:9]>>[C:1]([C@@:2]([O:3][H:14])([C@@:4]1([H:10])[C:5]([H:12])([H:13])[O:6]1)[H:11])([H:7])([H:8])[H:9]"
C        1.91430687      -0.04458458      -0.47342136
C        0.66052623       0.07536255       0.36313069
O        0.43197693       1.24584992       0.91293826
C       -0.58960619      -0.55720538      -0.17437595
C       -1.90290932      -0.16686220       0.38191382
O       -1.64029524       0.97171112      -0.41488302
H        2.74608153      -0.21090872       0.21291214
H        1.91414625      -0.88366682      -1.17174802
H        2.07477030       0.86603990      -1.05058022
H       -0.56077943      -1.05601895      -1.14019853
H        0.34586920      -1.19496137       0.81393222
H       -1.91635146       0.04553668       1.45130942
H       -2.75155675      -0.73930726       0.01755794
H       -0.72617892       1.64901510       0.27151262
14
Frame=14 idx=004134 GeodesicLength=1.1544765845577973 rxn_smarts="[C:1]([C:2](=[O:3])[C:4]([C:5]([O:6][H:14])([H:12])[H:13])([H:10])[H:11])([H:7])([H:8])[H:9]>>[C:1]([C@@:2]([O:3][H:14])([C@@:4]1([H:10])[C:5]([H:12])([H:13])[O:6]1)[H:11])([H:7])([H:8])[H:9]"
C        1.91648898      -0.04224339      -0.47161228
C        0.66429752       0.08207040       0.36535411
O        0.43349648       1.25873115       0.90032042
C       -0.58869971      -0.55773677      -0.16826386
C       -1.90503892      -0.17340375       0.38764712
O       -1.64376663       0.95568584      -0.42281496
H        2.74367963      -0.23236939       0.21440413
H        1.90857529      -0.87076477      -1.18226414
H        2.09179788       0.87322492      -1.03658384
H       -0.56010018      -1.04939281      -1.13773827
H        0.32877272      -1.20753916       0.80319128
H       -1.91735697       0.05258514       1.45415566
H       -2.74957630      -0.75476823       0.02818428
H       -0.72256980       1.66592083       0.26602036
14
Frame=15 idx=004134 GeodesicLength=1.2369098891143417 rxn_smarts="[C:1]([C:2](=[O:3])[C:4]([C:5]([O:6][H:14])([H:12])[H:13])([H:10])[H:11])([H:7])([H:8])[H:9]>>[C:1]([C@@:2]([O:3][H:14])([C@@:4]1([H:10])[C:5]([H:12])([H:13])[O:6]1)[H:11])([H:7])([H:8])[H:9]"
C        1.91862298      -0.03984990      -0.46977117
C        0.66802784       0.08879822       0.36762390
O        0.43501768       1.27145289       0.88768095
C       -0.58779148      -0.55819559      -0.16219815
C       -1.90714728      -0.17995091       0.39335150
O       -1.64723711       0.93957281      -0.43056311
H        2.74087784      -0.25365961       0.21552961
H        1.90307197      -0.85757081      -1.19257585
H        2.10882128       0.88010020      -1.02243630
H       -0.55939670      -1.04306458      -1.13507450
H        0.31174001      -1.22028148       0.79231760
H       -1.91846786       0.05957800       1.45680123
H       -2.74747660      -0.77018738       0.03881071
H       -0.71866257       1.68325811       0.26050358
14
Frame=16 idx=004134 GeodesicLength=1.3193369995889637 rxn_smarts="[C:1]([C:2](=[O:3])[C:4]([C:5]([O:6][H:14])([H:12])[H:13])([H:10])[H:11])([H:7])([H:8])[H:9]>>[C:1]([C@@:2]([O:3][H:14])([C@@:4]1([H:10])[C:5]([H:12])([H:13])[O:6]1)[H:11])([H:7])([H:8])[H:9]"
C        1.92072048      -0.03740510      -0.46789278
C        0.67171349       0.09558141       0.36991727
O        0.43653091       1.28405470       0.87498386
C       -0.58687994      -0.55858940      -0.15616795
C       -1.90923531      -0.18651849       0.39904421
O       -1.65074102       0.92333469      -0.43815529
H        2.73765882      -0.27488947       0.21629513
H        1.89760775      -0.84402655      -1.20274338
H        2.12593442       0.88669219      -1.00805133
H       -0.55866621      -1.03703247      -1.13221500
H        0.29475252      -1.23318429       0.78130241
H       -1.91967539       0.06653915       1.45925708
H       -2.74525002      -0.78561638       0.04949393
H       -0.71447050       1.70106003       0.25493183
