16
Frame=0 idx=011242 GeodesicLength=0.0 rxn_smarts="[C:1]([C@@:2]([O:3][H:12])([C@@:4]([C:5]([H:14])([H:15])[H:16])([C:6]#[N:7])[H:13])[H:11])([H:8])([H:9])[H:10]>>[C:1]([C@@:2]([O:3][H:12])([C@@:4]([C:5]([H:14])([H:15])[H:16])([N+:7]#[C-:6])[H:13])[H:11])([H:8])([H:9])[H:10]"
C       -1.43336841      -0.38707596      -0.79444386
C       -0.82781256      -0.04368540       0.55213594
O       -0.78451643      -1.18111129       1.40001052
C        0.60136315       0.53085018       0.51744523
C        1.61693057      -0.15719681      -0.36076002
C        0.27268424       2.10919865      -0.34391665
N        0.87477133       2.34248941       0.64890556
H       -1.46655475       0.48479286      -1.44484208
H       -2.44845587      -0.75816750      -0.65014691
H       -0.85419529      -1.16656594      -1.29862850
H       -1.45558516       0.68813826       1.06424798
H       -0.66739888      -1.96602534       0.86121919
H        0.93454581       0.52208080       1.55225328
H        2.59588504       0.30424319      -0.24245759
H        1.34310307      -0.12039366      -1.41411267
H        1.69860420      -1.20157150      -0.04690947
16
Frame=1 idx=011242 GeodesicLength=0.044725455195337466 rxn_smarts="[C:1]([C@@:2]([O:3][H:12])([C@@:4]([C:5]([H:14])([H:15])[H:16])([C:6]#[N:7])[H:13])[H:11])([H:8])([H:9])[H:10]>>[C:1]([C@@:2]([O:3][H:12])([C@@:4]([C:5]([H:14])([H:15])[H:16])([N+:7]#[C-:6])[H:13])[H:11])([H:8])([H:9])[H:10]"
C       -1.43131907      -0.38392692      -0.79324844
C       -0.82170715      -0.04791854       0.55332654
O       -0.76420416      -1.18629909       1.39806267
C        0.60366353       0.53631613       0.51496536
C        1.62037290      -0.15930837      -0.35845302
C        0.28345552       2.11576553      -0.35990457
N        0.84988714       2.35480828       0.64888868
H       -1.47587488       0.49305244      -1.43624107
H       -2.44405255      -0.76171644      -0.64863981
H       -0.85004546      -1.15564196      -1.30634308
H       -1.45162442       0.67915144       1.07055878
H       -0.70688399      -1.97930374       0.86222613
H        0.94105641       0.52452871       1.54919412
H        2.59936960       0.30274073      -0.24232583
H        1.34713767      -0.13017380      -1.41225215
H        1.70076890      -1.20207441      -0.03981430
16
Frame=2 idx=011242 GeodesicLength=0.0894657731149699 rxn_smarts="[C:1]([C@@:2]([O:3][H:12])([C@@:4]([C:5]([H:14])([H:15])[H:16])([C:6]#[N:7])[H:13])[H:11])([H:8])([H:9])[H:10]>>[C:1]([C@@:2]([O:3][H:12])([C@@:4]([C:5]([H:14])([H:15])[H:16])([N+:7]#[C-:6])[H:13])[H:11])([H:8])([H:9])[H:10]"
C       -1.42900571      -0.38089785      -0.79216434
C       -0.81534183      -0.05246193       0.55442732
O       -0.74337421      -1.19232504       1.39510974
C        0.60609122       0.54165753       0.51238954
C        1.62397972      -0.16119453      -0.35643946
C        0.29449775       2.12247826      -0.37541145
N        0.82397778       2.36676307       0.64866004
H       -1.48449451       0.50114408      -1.42754077
H       -2.43954571      -0.76492659      -0.64750455
H       -0.84582312      -1.14497749      -1.31391199
H       -1.44749838       0.66940815       1.07715871
H       -0.74865393      -1.99111700       0.86559655
H        0.94770208       0.52689388       1.54601174
H        2.60302961       0.30139720      -0.24236578
H        1.35127786      -0.13939673      -1.41060957
H        1.70318140      -1.20244500      -0.03340573
16
Frame=3 idx=011242 GeodesicLength=0.13413726645707505 rxn_smarts="[C:1]([C@@:2]([O:3][H:12])([C@@:4]([C:5]([H:14])([H:15])[H:16])([C:6]#[N:7])[H:13])[H:11])([H:8])([H:9])[H:10]>>[C:1]([C@@:2]([O:3][H:12])([C@@:4]([C:5]([H:14])([H:15])[H:16])([N+:7]#[C-:6])[H:13])[H:11])([H:8])([H:9])[H:10]"
C       -1.42645398      -0.37797409      -0.79119496
C       -0.80873130      -0.05733825       0.55544192
O       -0.72205758      -1.19933642       1.39099933
C        0.60862443       0.54684689       0.50972240
C        1.62775201      -0.16287402      -0.35470344
C        0.30582389       2.12934516      -0.39041105
N        0.79700785       2.37826977       0.64818914
H       -1.49241266       0.50908650      -1.41875532
H       -2.43496972      -0.76778299      -0.64674091
H       -0.84156178      -1.13456718      -1.32135798
H       -1.44320706       0.65885313       1.08408158
H       -0.79254253      -2.00108886       0.87138245
H        0.95443011       0.52914580       1.54271899
H        2.60685204       0.30023333      -0.24259765
H        1.35550615      -0.14814115      -1.40916922
H        1.70594013      -1.20267761      -0.02760528
16
Frame=4 idx=011242 GeodesicLength=0.17864270311782313 rxn_smarts="[C:1]([C@@:2]([O:3][H:12])([C@@:4]([C:5]([H:14])([H:15])[H:16])([C:6]#[N:7])[H:13])[H:11])([H:8])([H:9])[H:10]>>[C:1]([C@@:2]([O:3][H:12])([C@@:4]([C:5]([H:14])([H:15])[H:16])([N+:7]#[C-:6])[H:13])[H:11])([H:8])([H:9])[H:10]"
C       -1.42364755      -0.37525324      -0.79041105
C       -0.80192290      -0.06251399       0.55627079
O       -0.70048475      -1.20725145       1.38561824
C        0.61124335       0.55184029       0.50697852
C        1.63164257      -0.16430266      -0.35333502
C        0.31745840       2.13645296      -0.40464161
N        0.76907693       2.38921319       0.64763813
H       -1.49948521       0.51677183      -1.40999274
H       -2.43034299      -0.77031835      -0.64643369
H       -0.83723659      -1.12456441      -1.32866274
H       -1.43881448       0.64752118       1.09116245
H       -0.83824121      -2.00895939       0.88023847
H        0.96121123       0.53109129       1.53932070
H        2.61081773       0.29921224      -0.24302099
H        1.35979946      -0.15614611      -1.40802518
H        1.70892600      -1.20279340      -0.02270428
16
Frame=5 idx=011242 GeodesicLength=0.2228953049402913 rxn_smarts="[C:1]([C@@:2]([O:3][H:12])([C@@:4]([C:5]([H:14])([H:15])[H:16])([C:6]#[N:7])[H:13])[H:11])([H:8])([H:9])[H:10]>>[C:1]([C@@:2]([O:3][H:12])([C@@:4]([C:5]([H:14])([H:15])[H:16])([N+:7]#[C-:6])[H:13])[H:11])([H:8])([H:9])[H:10]"
C       -1.42064910      -0.37267979      -0.78981016
C       -0.79494813      -0.06800745       0.55694594
O       -0.67872379      -1.21626231       1.37882131
C        0.61391103       0.55661368       0.50417740
C        1.63564391      -0.16554630      -0.35226845
C        0.32939214       2.14380318      -0.41813336
N        0.74019216       2.39953155       0.64689647
H       -1.50581987       0.52428364      -1.40124405
H       -2.42570098      -0.77256331      -0.64656213
H       -0.83290285      -1.11487706      -1.33591353
H       -1.43432035       0.63537712       1.09847517
H       -0.88531945      -2.01431622       0.89199821
H        0.96795871       0.53273611       1.53586403
H        2.61489994       0.29833155      -0.24363806
H        1.36412752      -0.16360876      -1.40712414
H        1.71225911      -1.20281563      -0.01848463
16
Frame=6 idx=011242 GeodesicLength=0.2669627448321117 rxn_smarts="[C:1]([C@@:2]([O:3][H:12])([C@@:4]([C:5]([H:14])([H:15])[H:16])([C:6]#[N:7])[H:13])[H:11])([H:8])([H:9])[H:10]>>[C:1]([C@@:2]([O:3][H:12])([C@@:4]([C:5]([H:14])([H:15])[H:16])([N+:7]#[C-:6])[H:13])[H:11])([H:8])([H:9])[H:10]"
C       -1.41744557      -0.37033076      -0.78946375
C       -0.78783195      -0.07380643       0.55737712
O       -0.65691252      -1.22633772       1.37047608
C        0.61662007       0.56112786       0.50132849
C        1.63974102      -0.16656982      -0.35157430
C        0.34165443       2.15146780      -0.43068637
N        0.71039134       2.40913555       0.64609429
H       -1.51135945       0.53156324      -1.39257847
H       -2.42102914      -0.77461203      -0.64720120
H       -0.82851057      -1.10557253      -1.34316409
H       -1.42976224       0.62242343       1.10589185
H       -0.93367184      -2.01689515       0.90730243
H        0.97465460       0.53392066       1.53235453
H        2.61909890       0.29757388      -0.24443204
H        1.36849949      -0.17032166      -1.40654789
H        1.71586342      -1.20276632      -0.01517667
16
Frame=7 idx=011242 GeodesicLength=0.31061246197813597 rxn_smarts="[C:1]([C@@:2]([O:3][H:12])([C@@:4]([C:5]([H:14])([H:15])[H:16])([C:6]#[N:7])[H:13])[H:11])([H:8])([H:9])[H:10]>>[C:1]([C@@:2]([O:3][H:12])([C@@:4]([C:5]([H:14])([H:15])[H:16])([N+:7]#[C-:6])[H:13])[H:11])([H:8])([H:9])[H:10]"
C       -1.41414506      -0.36813718      -0.78937587
C       -0.78067805      -0.07986225       0.55756849
O       -0.63535480      -1.23751834       1.36048614
C        0.61929678       0.56535346       0.49846788
C        1.64386170      -0.16748219      -0.35115087
C        0.35421655       2.15942964      -0.44229210
N        0.67986224       2.41794604       0.64508429
H       -1.51629840       0.53870657      -1.38396191
H       -2.41636772      -0.77656904      -0.64832943
H       -0.82412924      -1.09647859      -1.35053052
H       -1.42519932       0.60873888       1.11339286
H       -0.98213360      -2.01638473       0.92588723
H        0.98115108       0.53461237       1.52885295
H        2.62335233       0.29682011      -0.24532517
H        1.37285892      -0.17645596      -1.40620631
H        1.71970657      -1.20271881      -0.01256765
16
Frame=8 idx=011242 GeodesicLength=0.3540726200584423 rxn_smarts="[C:1]([C@@:2]([O:3][H:12])([C@@:4]([C:5]([H:14])([H:15])[H:16])([C:6]#[N:7])[H:13])[H:11])([H:8])([H:9])[H:10]>>[C:1]([C@@:2]([O:3][H:12])([C@@:4]([C:5]([H:14])([H:15])[H:16])([N+:7]#[C-:6])[H:13])[H:11])([H:8])([H:9])[H:10]"
C       -1.41077021      -0.36612026      -0.78960839
C       -0.77350510      -0.08616804       0.55745791
O       -0.61415963      -1.24981412       1.34873867
C        0.62193994       0.56925969       0.49560961
C        1.64800321      -0.16829386      -0.35102033
C        0.36720601       2.16773332      -0.45287061
N        0.64847594       2.42592212       0.64395625
H       -1.52066955       0.54573657      -1.37541768
H       -2.41170556      -0.77854108      -0.64999322
H       -0.81974352      -1.08755816      -1.35812354
H       -1.42064956       0.59433313       1.12089594
H       -1.03047798      -2.01256878       0.94817654
H        0.98743033       0.53470689       1.52538487
H        2.62766106       0.29604981      -0.24629254
H        1.37721419      -0.18195522      -1.40614148
H        1.72375044      -1.20272201      -0.01075200
16
Frame=9 idx=011242 GeodesicLength=0.3973374615210966 rxn_smarts="[C:1]([C@@:2]([O:3][H:12])([C@@:4]([C:5]([H:14])([H:15])[H:16])([C:6]#[N:7])[H:13])[H:11])([H:8])([H:9])[H:10]>>[C:1]([C@@:2]([O:3][H:12])([C@@:4]([C:5]([H:14])([H:15])[H:16])([N+:7]#[C-:6])[H:13])[H:11])([H:8])([H:9])[H:10]"
C       -1.40737961      -0.36422442      -0.79015309
C       -0.76636212      -0.09273050       0.55705383
O       -0.59350570      -1.26331702       1.33511281
C        0.62450707       0.57281159       0.49277268
C        1.65214305      -0.16906491      -0.35110873
C        0.38058289       2.17634598      -0.46241058
N        0.61633498       2.43296986       0.64256924
H       -1.52462252       0.55271625      -1.36689056
H       -2.40703046      -0.78063638      -0.65215909
H       -0.81537828      -1.07864717      -1.36603199
H       -1.41613168       0.57919723       1.12839695
H       -1.07810518      -2.00509205       0.97399195
H        0.99338960       0.53417235       1.52198096
H        2.63198938       0.29524466      -0.24730976
H        1.38154342      -0.18695877      -1.40627796
H        1.72802518      -1.20278670      -0.00953665
16
Frame=10 idx=011242 GeodesicLength=0.44010549962046086 rxn_smarts="[C:1]([C@@:2]([O:3][H:12])([C@@:4]([C:5]([H:14])([H:15])[H:16])([C:6]#[N:7])[H:13])[H:11])([H:8])([H:9])[H:10]>>[C:1]([C@@:2]([O:3][H:12])([C@@:4]([C:5]([H:14])([H:15])[H:16])([N+:7]#[C-:6])[H:13])[H:11])([H:8])([H:9])[H:10]"
C       -1.40416997      -0.36234634      -0.79103203
C       -0.75951711      -0.09928037       0.55629543
O       -0.57405117      -1.27747246       1.31985821
C        0.62685620       0.57602130       0.49001957
C        1.65606570      -0.16999614      -0.35126364
C        0.39444136       2.18521517      -0.47088830
N        0.58379710       2.43910089       0.64075716
H       -1.52844012       0.55977026      -1.35833683
H       -2.40241371      -0.78301379      -0.65478510
H       -0.81111506      -1.06943997      -1.37438956
H       -1.41187111       0.56379747       1.13563931
H       -1.12240529      -1.99461745       1.00284123
H        0.99879522       0.53297029       1.51871771
H        2.63622331       0.29392322      -0.24803380
H        1.38578553      -0.19146909      -1.40649673
H        1.73201911      -1.20316300      -0.00890264
16
Frame=11 idx=011242 GeodesicLength=0.4824989762231331 rxn_smarts="[C:1]([C@@:2]([O:3][H:12])([C@@:4]([C:5]([H:14])([H:15])[H:16])([C:6]#[N:7])[H:13])[H:11])([H:8])([H:9])[H:10]>>[C:1]([C@@:2]([O:3][H:12])([C@@:4]([C:5]([H:14])([H:15])[H:16])([N+:7]#[C-:6])[H:13])[H:11])([H:8])([H:9])[H:10]"
C       -1.40124647      -0.36029197      -0.79212826
C       -0.75299103      -0.10580374       0.55531481
O       -0.55595882      -1.29224650       1.30323199
C        0.62896280       0.57890100       0.48737162
C        1.65974998      -0.17124719      -0.35129884
C        0.40890873       2.19425966      -0.47855822
N        0.55065166       2.44432012       0.63819857
H       -1.53236990       0.56710258      -1.34956981
H       -2.39788783      -0.78562153      -0.65770107
H       -0.80708238      -1.05966767      -1.38318395
H       -1.40784122       0.54821893       1.14271710
H       -1.16250352      -1.98139102       1.03337367
H        1.00360166       0.53127904       1.51563553
H        2.64030024       0.29208211      -0.24853907
H        1.38984982      -0.19601681      -1.40659748
H        1.73585628      -1.20387700      -0.00826659
16
Frame=12 idx=011242 GeodesicLength=0.5248252925898538 rxn_smarts="[C:1]([C@@:2]([O:3][H:12])([C@@:4]([C:5]([H:14])([H:15])[H:16])([C:6]#[N:7])[H:13])[H:11])([H:8])([H:9])[H:10]>>[C:1]([C@@:2]([O:3][H:12])([C@@:4]([C:5]([H:14])([H:15])[H:16])([N+:7]#[C-:6])[H:13])[H:11])([H:8])([H:9])[H:10]"
C       -1.39862411      -0.35809583      -0.79351094
C       -0.74681327      -0.11227864       0.55407783
O       -0.53922943      -1.30753901       1.28529213
C        0.63083156       0.58148189       0.48485485
C        1.66318724      -0.17278838      -0.35122173
C        0.42393163       2.20355522      -0.48533938
N        0.51712896       2.44872601       0.63483465
H       -1.53646582       0.57470136      -1.34065745
H       -2.39343567      -0.78858761      -0.66098721
H       -0.80324944      -1.04929226      -1.39251579
H       -1.40406319       0.53253599       1.14956048
H       -1.19842109      -1.96578350       1.06591171
H        1.00781863       0.52908398       1.51279033
H        2.64424659       0.28967493      -0.24867847
H        1.39377575      -0.20040855      -1.40663701
H        1.73938165      -1.20498561      -0.00777400
16
Frame=13 idx=011242 GeodesicLength=0.5670568308599206 rxn_smarts="[C:1]([C@@:2]([O:3][H:12])([C@@:4]([C:5]([H:14])([H:15])[H:16])([C:6]#[N:7])[H:13])[H:11])([H:8])([H:9])[H:10]>>[C:1]([C@@:2]([O:3][H:12])([C@@:4]([C:5]([H:14])([H:15])[H:16])([N+:7]#[C-:6])[H:13])[H:11])([H:8])([H:9])[H:10]"
C       -1.39638662      -0.35560977      -0.79509580
C       -0.74108844      -0.11857965       0.55262144
O       -0.52403108      -1.32296909       1.26632398
C        0.63240230       0.58380108       0.48248262
C        1.66629733      -0.17473114      -0.35089255
C        0.43960268       2.21296350      -0.49136650
N        0.48323427       2.45234378       0.63034434
H       -1.54088643       0.58268734      -1.33145584
H       -2.38908577      -0.79183482      -0.66452407
H       -0.79966716      -1.03804948      -1.40234491
H       -1.40062086       0.51696326       1.15611564
H       -1.22908150      -1.94863056       1.09961286
H        1.01135363       0.52652274       1.51017794
H        2.64801246       0.28648694      -0.24828851
H        1.39755071      -0.20479925      -1.40646341
H        1.74239447      -1.20656487      -0.00724722
16
Frame=14 idx=011242 GeodesicLength=0.6093873350781898 rxn_smarts="[C:1]([C@@:2]([O:3][H:12])([C@@:4]([C:5]([H:14])([H:15])[H:16])([C:6]#[N:7])[H:13])[H:11])([H:8])([H:9])[H:10]>>[C:1]([C@@:2]([O:3][H:12])([C@@:4]([C:5]([H:14])([H:15])[H:16])([N+:7]#[C-:6])[H:13])[H:11])([H:8])([H:9])[H:10]"
C       -1.39449505      -0.35282353      -0.79683680
C       -0.73575853      -0.12476392       0.55101508
O       -0.51030104      -1.33856398       1.24650009
C        0.63369746       0.58587203       0.48025801
C        1.66910670      -0.17706121      -0.35030294
C        0.45588185       2.22251639      -0.49663643
N        0.44893246       2.45517038       0.62460498
H       -1.54559413       0.59104491      -1.32193709
H       -2.38481312      -0.79530083      -0.66827759
H       -0.79633699      -1.02598500      -1.41257711
H       -1.39745823       0.50147696       1.16242834
H       -1.25484254      -1.93003784       1.13404143
H        1.01425709       0.52364944       1.50780246
H        2.65158401       0.28264514      -0.24748163
H        1.40115048      -0.20928192      -1.40606257
H        1.74498959      -1.20855705      -0.00653824
16
Frame=15 idx=011242 GeodesicLength=0.6518327286467257 rxn_smarts="[C:1]([C@@:2]([O:3][H:12])([C@@:4]([C:5]([H:14])([H:15])[H:16])([C:6]#[N:7])[H:13])[H:11])([H:8])([H:9])[H:10]>>[C:1]([C@@:2]([O:3][H:12])([C@@:4]([C:5]([H:14])([H:15])[H:16])([N+:7]#[C-:6])[H:13])[H:11])([H:8])([H:9])[H:10]"
C       -1.39301884      -0.34964828      -0.79868344
C       -0.73089052      -0.13073601       0.54931754
O       -0.49804613      -1.35403470       1.22614006
C        0.63469688       0.58776770       0.47820328
C        1.67156641      -0.17983427      -0.34935157
C        0.47279680       2.23219222      -0.50126588
N        0.41434801       2.45733845       0.61732619
H       -1.55068986       0.59985003      -1.31206572
H       -2.38068669      -0.79888929      -0.67219684
H       -0.79333085      -1.01298957      -1.42315518
H       -1.39461732       0.48625977       1.16850706
H       -1.27517742      -1.91095735       1.16850899
H        1.01652692       0.52062922       1.50570132
H        2.65494980       0.27801815      -0.24610984
H        1.40455521      -0.21393465      -1.40535317
H        1.74701758      -1.21103142      -0.00552279
16
Frame=16 idx=011242 GeodesicLength=0.6944209923894633 rxn_smarts="[C:1]([C@@:2]([O:3][H:12])([C@@:4]([C:5]([H:14])([H:15])[H:16])([C:6]#[N:7])[H:13])[H:11])([H:8])([H:9])[H:10]>>[C:1]([C@@:2]([O:3][H:12])([C@@:4]([C:5]([H:14])([H:15])[H:16])([N+:7]#[C-:6])[H:13])[H:11])([H:8])([H:9])[H:10]"
C       -1.39193508      -0.34603402      -0.80057552
C       -0.72648826      -0.13647304       0.54756738
O       -0.48716694      -1.36921752       1.20539498
C        0.63539278       0.58951739       0.47631846
C        1.67366939      -0.18304330      -0.34800974
C        0.49033814       2.24192041      -0.50528182
N        0.37946660       2.45885983       0.60829008
H       -1.55613334       0.60910725      -1.30179773
H       -2.37670338      -0.80246044      -0.67623858
H       -0.79063517      -0.99901925      -1.43397805
H       -1.39210321       0.47134989       1.17437820
H       -1.29017817      -1.89191279       1.20268781
H        1.01816280       0.51755328       1.50385679
H        2.65809668       0.27258957      -0.24413897
H        1.40777565      -0.21877164      -1.40429329
H        1.74844151      -1.21396561      -0.00418001
