11
Frame=0 idx=005909 GeodesicLength=0.0 rxn_smarts="[N:1](=[C:2]1[O:3][C:4]([H:8])([H:9])[C:5]([H:10])([H:11])[O:6]1)[H:7]>>[C:4]([C:5](=[O:6])[H:11])([H:8])([H:9])[H:10].[N:1](=[C:2]=[O:3])[H:7]"
N        2.27467294       1.28071560       0.20258623
C        1.06980014       1.02901483       0.04191154
O       -0.02337583       1.54586345      -0.11681481
C       -1.35523594      -0.06746629       0.17989835
C       -0.38103448      -0.90536995      -0.40145111
O        0.83591058      -0.73709435       0.01475554
H        2.84710493       0.45174328       0.26940906
H       -2.32328841       0.07006684      -0.29236753
H       -1.24035153       0.20769504       1.21805801
H       -1.13685345      -1.59042795       0.29588905
H       -0.56734895      -1.28474049      -1.41187436
11
Frame=1 idx=005909 GeodesicLength=0.08483760636231324 rxn_smarts="[N:1](=[C:2]1[O:3][C:4]([H:8])([H:9])[C:5]([H:10])([H:11])[O:6]1)[H:7]>>[C:4]([C:5](=[O:6])[H:11])([H:8])([H:9])[H:10].[N:1](=[C:2]=[O:3])[H:7]"
N        2.29157090       1.27880710       0.16272855
C        1.07474082       1.04348266       0.11100576
O       -0.01430717       1.57573928      -0.03811269
C       -1.36344496      -0.07032893       0.16658315
C       -0.37169816      -0.91216474      -0.38915555
O        0.83720945      -0.73418813       0.04659288
H        2.85538199       0.44061573       0.17134169
H       -2.31131065       0.06522275      -0.34698813
H       -1.30816785       0.20635114       1.20893667
H       -1.15533429      -1.58824034       0.30549977
H       -0.53464009      -1.30529654      -1.39843212
11
Frame=2 idx=005909 GeodesicLength=0.16939130235298228 rxn_smarts="[N:1](=[C:2]1[O:3][C:4]([H:8])([H:9])[C:5]([H:10])([H:11])[O:6]1)[H:7]>>[C:4]([C:5](=[O:6])[H:11])([H:8])([H:9])[H:10].[N:1](=[C:2]=[O:3])[H:7]"
N        2.30167864       1.27760076       0.12515737
C        1.08279799       1.05594325       0.17457781
O       -0.00327669       1.60332885       0.04329782
C       -1.36812666      -0.07224818       0.15364739
C       -0.36212892      -0.92028688      -0.37758888
O        0.83984082      -0.73291373       0.07384344
H        2.85347921       0.43200589       0.07797196
H       -2.29448348       0.06320627      -0.39925278
H       -1.37147954       0.20636880       1.19668427
H       -1.17346771      -1.58513842       0.31593323
H       -0.50483366      -1.32786661      -1.38427163
11
Frame=3 idx=005909 GeodesicLength=0.25307539769274473 rxn_smarts="[N:1](=[C:2]1[O:3][C:4]([H:8])([H:9])[C:5]([H:10])([H:11])[O:6]1)[H:7]>>[C:4]([C:5](=[O:6])[H:11])([H:8])([H:9])[H:10].[N:1](=[C:2]=[O:3])[H:7]"
N        2.30603899       1.27764514       0.08856308
C        1.09336670       1.06624431       0.23183353
O        0.00950239       1.62812362       0.12733851
C       -1.36960240      -0.07337539       0.14116608
C       -0.35277737      -0.92984493      -0.36706112
O        0.84372788      -0.73316496       0.09532629
H        2.84377806       0.42650950      -0.00754707
H       -2.27339650       0.06366118      -0.44883159
H       -1.43033375       0.20785088       1.18149701
H       -1.19127477      -1.58095157       0.32742516
H       -0.47902924      -1.35269777      -1.36970989
11
Frame=4 idx=005909 GeodesicLength=0.33674884993085485 rxn_smarts="[N:1](=[C:2]1[O:3][C:4]([H:8])([H:9])[C:5]([H:10])([H:11])[O:6]1)[H:7]>>[C:4]([C:5](=[O:6])[H:11])([H:8])([H:9])[H:10].[N:1](=[C:2]=[O:3])[H:7]"
N        2.30591203       1.27895018       0.05445335
C        1.10598224       1.07491609       0.28473393
O        0.02389515       1.65005449       0.21490898
C       -1.36854253      -0.07377941       0.12871159
C       -0.34350102      -0.94096772      -0.35690437
O        0.84875606      -0.73471257       0.11287748
H        2.82738985       0.42394298      -0.09026441
H       -2.24827584       0.06636518      -0.49720199
H       -1.48633085       0.21116565       1.16290466
H       -1.20927607      -1.57570552       0.33998737
H       -0.45600902      -1.38022934      -1.35420659
11
Frame=5 idx=005909 GeodesicLength=0.42028745803860457 rxn_smarts="[N:1](=[C:2]1[O:3][C:4]([H:8])([H:9])[C:5]([H:10])([H:11])[O:6]1)[H:7]>>[C:4]([C:5](=[O:6])[H:11])([H:8])([H:9])[H:10].[N:1](=[C:2]=[O:3])[H:7]"
N        2.30136063       1.28165396       0.02155783
C        1.12044266       1.08173241       0.33560887
O        0.04019497       1.66833910       0.30776482
C       -1.36505172      -0.07340031       0.11584342
C       -0.33409399      -0.95379920      -0.34640003
O        0.85481613      -0.73766502       0.12808963
H        2.80400295       0.42467671      -0.17315446
H       -2.21838826       0.07141816      -0.54584107
H       -1.54053650       0.21678019       1.14016662
H       -1.22800233      -1.56909503       0.35351052
H       -0.43474455      -1.41064097      -1.33714615
11
Frame=6 idx=005909 GeodesicLength=0.5038113003101317 rxn_smarts="[N:1](=[C:2]1[O:3][C:4]([H:8])([H:9])[C:5]([H:10])([H:11])[O:6]1)[H:7]>>[C:4]([C:5](=[O:6])[H:11])([H:8])([H:9])[H:10].[N:1](=[C:2]=[O:3])[H:7]"
N        2.29189752       1.28631534      -0.01157391
C        1.13674786       1.08636564       0.38525369
O        0.05878609       1.68195202       0.40674756
C       -1.35907565      -0.07215861       0.10234781
C       -0.32468678      -0.96858603      -0.33540871
O        0.86205387      -0.74221704       0.14053114
H        2.77390018       0.42943058      -0.25549605
H       -2.18334554       0.07888733      -0.59510612
H       -1.59297302       0.22524244       1.11267552
H       -1.24764946      -1.56077336       0.36823519
H       -0.41565507      -1.44445831      -1.31820613
11
Frame=7 idx=005909 GeodesicLength=0.5874753945757814 rxn_smarts="[N:1](=[C:2]1[O:3][C:4]([H:8])([H:9])[C:5]([H:10])([H:11])[O:6]1)[H:7]>>[C:4]([C:5](=[O:6])[H:11])([H:8])([H:9])[H:10].[N:1](=[C:2]=[O:3])[H:7]"
N        2.27675474       1.29323559      -0.04484048
C        1.15500986       1.08843994       0.43494281
O        0.08020508       1.68958535       0.51307386
C       -1.35033157      -0.06988412       0.08778306
C       -0.31517219      -0.98560678      -0.32339481
O        0.87057664      -0.74860292       0.15075785
H        2.73567730       0.43897743      -0.33942729
H       -2.14212670       0.08877243      -0.64590700
H       -1.64360580       0.23754293       1.07932261
H       -1.26851990      -1.55016540       0.38433593
H       -0.39846746      -1.48229444      -1.29664654
11
Frame=8 idx=005909 GeodesicLength=0.671323005805234 rxn_smarts="[N:1](=[C:2]1[O:3][C:4]([H:8])([H:9])[C:5]([H:10])([H:11])[O:6]1)[H:7]>>[C:4]([C:5](=[O:6])[H:11])([H:8])([H:9])[H:10].[N:1](=[C:2]=[O:3])[H:7]"
N        2.25549881       1.30284176      -0.07732372
C        1.17514421       1.08776658       0.48446648
O        0.10477409       1.69016700       0.62512573
C       -1.33870493      -0.06667481       0.07218894
C       -0.30588888      -1.00503139      -0.31060088
O        0.88053887      -0.75677133       0.15715320
H        2.68926665       0.45398687      -0.42300775
H       -2.09495898       0.10023162      -0.69749921
H       -1.69097450       0.25471317       1.03972813
H       -1.29028479      -1.53684266       0.40226164
H       -0.38441055      -1.52438680      -1.27249256
11
Frame=9 idx=005909 GeodesicLength=0.7556221557743195 rxn_smarts="[N:1](=[C:2]1[O:3][C:4]([H:8])([H:9])[C:5]([H:10])([H:11])[O:6]1)[H:7]>>[C:4]([C:5](=[O:6])[H:11])([H:8])([H:9])[H:10].[N:1](=[C:2]=[O:3])[H:7]"
N        2.22724535       1.31551119      -0.10849854
C        1.19721376       1.08398961       0.53415240
O        0.13295047       1.68220895       0.74319573
C       -1.32390098      -0.06247347       0.05515870
C       -0.29691007      -1.02707966      -0.29667337
O        0.89202238      -0.76680457       0.15934998
H        2.63325653       0.47532509      -0.50662055
H       -2.04112003       0.11281863      -0.75036239
H       -1.73397737       0.27785008       0.99294377
H       -1.31294838      -1.52004155       0.42235178
H       -0.37383165      -1.57130429      -1.24499752
11
Frame=10 idx=005909 GeodesicLength=0.8407293992236967 rxn_smarts="[N:1](=[C:2]1[O:3][C:4]([H:8])([H:9])[C:5]([H:10])([H:11])[O:6]1)[H:7]>>[C:4]([C:5](=[O:6])[H:11])([H:8])([H:9])[H:10].[N:1](=[C:2]=[O:3])[H:7]"
N        2.19161343       1.33175919      -0.13685456
C        1.22127405       1.07667988       0.58386072
O        0.16511691       1.66421725       0.86613847
C       -1.30580275      -0.05728999       0.03628317
C       -0.28860014      -1.05185025      -0.28167553
O        0.90515481      -0.77855892       0.15541125
H        2.56723445       0.50420082      -0.58891947
H       -1.98093138       0.12517997      -0.80438657
H       -1.77087237       0.30820190       0.93825238
H       -1.33603261      -1.49876326       0.44539907
H       -0.36815441      -1.62377660      -1.21350893
11
Frame=11 idx=005909 GeodesicLength=0.9272549932693752 rxn_smarts="[N:1](=[C:2]1[O:3][C:4]([H:8])([H:9])[C:5]([H:10])([H:11])[O:6]1)[H:7]>>[C:4]([C:5](=[O:6])[H:11])([H:8])([H:9])[H:10].[N:1](=[C:2]=[O:3])[H:7]"
N        2.14799048       1.35189665      -0.16136899
C        1.24731215       1.06556710       0.63320442
O        0.20153779       1.63470133       0.99270243
C       -1.28436623      -0.05126617       0.01519030
C       -0.28119993      -1.07928472      -0.26541104
O        0.91983282      -0.79175913       0.14393431
H        2.49060076       0.54141493      -0.66839769
H       -1.91468415       0.13588770      -0.85965009
H       -1.79972088       0.34673681       0.87515957
H       -1.35905002      -1.47201569       0.47187144
H       -0.36825278      -1.68187881      -1.17723466
11
Frame=12 idx=005909 GeodesicLength=1.0152218088218696 rxn_smarts="[N:1](=[C:2]1[O:3][C:4]([H:8])([H:9])[C:5]([H:10])([H:11])[O:6]1)[H:7]>>[C:4]([C:5](=[O:6])[H:11])([H:8])([H:9])[H:10].[N:1](=[C:2]=[O:3])[H:7]"
N        2.09705665       1.37597774      -0.18010817
C        1.27487253       1.05065799       0.68077426
O        0.24184330       1.59328393       1.11895758
C       -1.26028279      -0.04481529      -0.00822385
C       -0.27522588      -1.10872005      -0.24831772
O        0.93557788      -0.80537972       0.12195662
H        2.40600602       0.58710580      -0.74090059
H       -1.84517551       0.14241484      -0.91506258
H       -1.81824933       0.39338864       0.80438235
H       -1.38072648      -1.43896747       0.50231381
H       -0.37569639      -1.74494641      -1.13577171
11
Frame=13 idx=005909 GeodesicLength=1.10525699030811 rxn_smarts="[N:1](=[C:2]1[O:3][C:4]([H:8])([H:9])[C:5]([H:10])([H:11])[O:6]1)[H:7]>>[C:4]([C:5](=[O:6])[H:11])([H:8])([H:9])[H:10].[N:1](=[C:2]=[O:3])[H:7]"
N        2.04036033       1.40251659      -0.19186084
C        1.30358114       1.03285654       0.72568553
O        0.28539362       1.54175353       1.24061520
C       -1.23444674      -0.03847583      -0.03357762
C       -0.27041272      -1.13891873      -0.23043205
O        0.95126905      -0.81869737       0.09106368
H        2.31372647       0.63923254      -0.80491107
H       -1.77554404       0.14252549      -0.96940822
H       -1.82473374       0.44697377       0.72786718
H       -1.40047422      -1.40004425       0.53493947
H       -0.38871915      -1.80972229      -1.08998127
11
Frame=14 idx=005909 GeodesicLength=1.1975466776818373 rxn_smarts="[N:1](=[C:2]1[O:3][C:4]([H:8])([H:9])[C:5]([H:10])([H:11])[O:6]1)[H:7]>>[C:4]([C:5](=[O:6])[H:11])([H:8])([H:9])[H:10].[N:1](=[C:2]=[O:3])[H:7]"
N        1.97936801       1.43041560      -0.19645148
C        1.33287724       1.01309026       0.76675195
O        0.33143527       1.48227892       1.35452899
C       -1.20804503      -0.03265368      -0.06053421
C       -0.26656795      -1.16851343      -0.21218673
O        0.96585667      -0.83073204       0.05168642
H        2.21701125       0.69553144      -0.85788477
H       -1.70955254       0.13477179      -1.02155496
H       -1.81884398       0.50544412       0.64765032
H       -1.41739361      -1.35575927       0.56848295
H       -0.40614532      -1.87387371      -1.04048847
11
Frame=15 idx=005909 GeodesicLength=1.2917706289535376 rxn_smarts="[N:1](=[C:2]1[O:3][C:4]([H:8])([H:9])[C:5]([H:10])([H:11])[O:6]1)[H:7]>>[C:4]([C:5](=[O:6])[H:11])([H:8])([H:9])[H:10].[N:1](=[C:2]=[O:3])[H:7]"
N        1.91622224       1.45786564      -0.19452914
C        1.36206731       0.99293014       0.80304837
O        0.37897649       1.41883742       1.45777146
C       -1.18244068      -0.02776835      -0.08808439
C       -0.26321563      -1.19605003      -0.19419792
O        0.97823841      -0.84085073       0.00664513
H        2.11907331       0.75231386      -0.89870802
H       -1.65058214       0.11915574      -1.06994803
H       -1.80178615       0.56568264       0.56661368
H       -1.43117686      -1.30795736       0.60069256
H       -0.42537629      -1.93415897      -0.98930368
11
Frame=16 idx=005909 GeodesicLength=1.3879812949118524 rxn_smarts="[N:1](=[C:2]1[O:3][C:4]([H:8])([H:9])[C:5]([H:10])([H:11])[O:6]1)[H:7]>>[C:4]([C:5](=[O:6])[H:11])([H:8])([H:9])[H:10].[N:1](=[C:2]=[O:3])[H:7]"
N        1.85293857       1.48299134      -0.18719609
C        1.39090425       0.97380214       0.83466213
O        0.42762794       1.35544841       1.54969536
C       -1.15819649      -0.02395690      -0.11521539
C       -0.25968837      -1.22084029      -0.17670840
O        0.98808586      -0.84950836      -0.03937641
H        2.01880754       0.80641687      -0.92902400
H       -1.59902077       0.09761808      -1.11387624
H       -1.77554277       0.62510075       0.48665648
H       -1.44250612      -1.25886163       0.62918027
H       -0.44340964      -1.98821041      -0.93879771
