12
Frame=0 idx=003624 GeodesicLength=0.0 rxn_smarts="[C:1](#[C:2][C:3]([C@@:4]1([H:10])[C:5]([H:11])([H:12])[O:6]1)([H:8])[H:9])[H:7]>>[C:1](#[C:2][C:3]([C-:4]=[O+:6][C:5]([H:10])([H:11])[H:12])([H:8])[H:9])[H:7]"
C        2.67950842       0.04154502      -0.21220723
C        1.55566997      -0.19959438      -0.54599405
C        0.17176828      -0.46668342      -0.91204018
C       -0.68017976      -0.94621022       0.26889462
C       -1.49237706       0.55657654       0.87250399
O       -1.99583076      -0.48295249       0.07688884
H        3.68400281       0.24553464       0.07443068
H        0.13135251      -1.32626082      -1.59177996
H       -0.26304968       0.38212839      -1.45245465
H       -0.48922298       0.04893053       1.30356234
H       -1.23868375       1.46251018       0.32869254
H       -2.06295796       0.68447599       1.78950309
12
Frame=1 idx=003624 GeodesicLength=0.062346901984772024 rxn_smarts="[C:1](#[C:2][C:3]([C@@:4]1([H:10])[C:5]([H:11])([H:12])[O:6]1)([H:8])[H:9])[H:7]>>[C:1](#[C:2][C:3]([C-:4]=[O+:6][C:5]([H:10])([H:11])[H:12])([H:8])[H:9])[H:7]"
C        2.69325700       0.03578442      -0.21435438
C        1.56579730      -0.19974077      -0.53974294
C        0.18240722      -0.46565314      -0.90900685
C       -0.67665417      -0.92751285       0.27144825
C       -1.51031165       0.56002040       0.87898106
O       -1.99053403      -0.47789925       0.06450169
H        3.71172739       0.23000483       0.02923173
H        0.14271221      -1.33061552      -1.58201613
H       -0.24727507       0.38001761      -1.45814524
H       -0.50246212       0.04726923       1.32969392
H       -1.26633374       1.47470188       0.34526666
H       -2.10233035       0.67362317       1.78414223
12
Frame=2 idx=003624 GeodesicLength=0.12469154492823636 rxn_smarts="[C:1](#[C:2][C:3]([C@@:4]1([H:10])[C:5]([H:11])([H:12])[O:6]1)([H:8])[H:9])[H:7]>>[C:1](#[C:2][C:3]([C-:4]=[O+:6][C:5]([H:10])([H:11])[H:12])([H:8])[H:9])[H:7]"
C        2.70729373       0.03479646      -0.21575090
C        1.57650541      -0.19635929      -0.53274056
C        0.19408096      -0.46344653      -0.90524339
C       -0.67166054      -0.90737033       0.27486443
C       -1.52958197       0.56317253       0.88531289
O       -1.98419006      -0.47374045       0.05249010
H        3.73985709       0.20517462      -0.02014336
H        0.15631844      -1.33454103      -1.57048502
H       -0.23146190       0.37781524      -1.46404104
H       -0.51677378       0.04640171       1.35649383
H       -1.29724696       1.48664867       0.36145166
H       -2.14314041       0.66144840       1.77779135
12
Frame=3 idx=003624 GeodesicLength=0.18667867966900625 rxn_smarts="[C:1](#[C:2][C:3]([C@@:4]1([H:10])[C:5]([H:11])([H:12])[O:6]1)([H:8])[H:9])[H:7]>>[C:1](#[C:2][C:3]([C-:4]=[O+:6][C:5]([H:10])([H:11])[H:12])([H:8])[H:9])[H:7]"
C        2.72222449       0.02128668      -0.21896452
C        1.58729187      -0.20068493      -0.52765848
C        0.20475450      -0.46375015      -0.90308138
C       -0.66871734      -0.88744176       0.27642727
C       -1.54586235       0.56745570       0.89233886
O       -1.97825812      -0.46502983       0.03987632
H        3.75976349       0.20159845      -0.06199778
H        0.16554026      -1.34029771      -1.56111463
H       -0.21383625       0.37498367      -1.47062577
H       -0.53021905       0.04151624       1.38309653
H       -1.32274535       1.49965009       0.37983323
H       -2.17993616       0.65071354       1.77187034
12
Frame=4 idx=003624 GeodesicLength=0.2484468242952111 rxn_smarts="[C:1](#[C:2][C:3]([C@@:4]1([H:10])[C:5]([H:11])([H:12])[O:6]1)([H:8])[H:9])[H:7]>>[C:1](#[C:2][C:3]([C-:4]=[O+:6][C:5]([H:10])([H:11])[H:12])([H:8])[H:9])[H:7]"
C        2.73638568       0.01664356      -0.22728459
C        1.59792970      -0.20027141      -0.52651473
C        0.21525998      -0.46313216      -0.90213146
C       -0.66309301      -0.86587488       0.27878472
C       -1.56210904       0.57143736       0.89970624
O       -1.97081221      -0.45809579       0.02965891
H        3.77917775       0.18572956      -0.09496477
H        0.17541509      -1.34654717      -1.55094726
H       -0.19911145       0.37085377      -1.47945542
H       -0.54218588       0.03822947       1.40936384
H       -1.35166442       1.51211613       0.39722245
H       -2.21519218       0.63891155       1.76656207
12
Frame=5 idx=003624 GeodesicLength=0.31001902913042634 rxn_smarts="[C:1](#[C:2][C:3]([C@@:4]1([H:10])[C:5]([H:11])([H:12])[O:6]1)([H:8])[H:9])[H:7]>>[C:1](#[C:2][C:3]([C-:4]=[O+:6][C:5]([H:10])([H:11])[H:12])([H:8])[H:9])[H:7]"
C        2.75000863       0.01758477      -0.23786695
C        1.60860690      -0.19699995      -0.52746611
C        0.22583614      -0.46191385      -0.90179395
C       -0.65595743      -0.84280537       0.28152436
C       -1.57853885       0.57528155       0.90731189
O       -1.96241145      -0.45176091       0.02069681
H        3.79873665       0.16214448      -0.12407028
H        0.18590501      -1.35314738      -1.53988116
H       -0.18579043       0.36580876      -1.48976379
H       -0.55372891       0.03540873       1.43564815
H       -1.38298089       1.52424597       0.41427035
H       -2.24968538       0.62615320       1.76139068
12
Frame=6 idx=003624 GeodesicLength=0.3713652263096837 rxn_smarts="[C:1](#[C:2][C:3]([C@@:4]1([H:10])[C:5]([H:11])([H:12])[O:6]1)([H:8])[H:9])[H:7]>>[C:1](#[C:2][C:3]([C-:4]=[O+:6][C:5]([H:10])([H:11])[H:12])([H:8])[H:9])[H:7]"
C        2.76416697       0.00731539      -0.24513720
C        1.61967327      -0.20090136      -0.52717101
C        0.23621647      -0.46286425      -0.90163012
C       -0.65125413      -0.81971675       0.28269933
C       -1.59351430       0.58021150       0.91523488
O       -1.95478106      -0.44079578       0.00987485
H        3.81446386       0.15723619      -0.15595821
H        0.19369769      -1.36116272      -1.52962176
H       -0.16933861       0.36036672      -1.49982430
H       -0.56661961       0.02805088       1.46231286
H       -1.40979924       1.53756805       0.43374325
H       -2.28291131       0.61469213       1.75547743
12
Frame=7 idx=003624 GeodesicLength=0.4324021433770966 rxn_smarts="[C:1](#[C:2][C:3]([C@@:4]1([H:10])[C:5]([H:11])([H:12])[O:6]1)([H:8])[H:9])[H:7]>>[C:1](#[C:2][C:3]([C-:4]=[O+:6][C:5]([H:10])([H:11])[H:12])([H:8])[H:9])[H:7]"
C        2.77738023       0.00369055      -0.25559299
C        1.63057954      -0.20171779      -0.53025798
C        0.24634071      -0.46332744      -0.90263470
C       -0.64475604      -0.79496496       0.28409188
C       -1.60827059       0.58503104       0.92356050
O       -1.94612983      -0.43047322       0.00071018
H        3.83013263       0.14407967      -0.18092560
H        0.20167852      -1.36980230      -1.51865441
H       -0.15504126       0.35357509      -1.51199899
H       -0.57845399       0.02104209       1.48862154
H       -1.43890123       1.55050032       0.45289028
H       -2.31455869       0.60236694       1.75019030
12
Frame=8 idx=003624 GeodesicLength=0.49320996259373984 rxn_smarts="[C:1](#[C:2][C:3]([C@@:4]1([H:10])[C:5]([H:11])([H:12])[O:6]1)([H:8])[H:9])[H:7]>>[C:1](#[C:2][C:3]([C-:4]=[O+:6][C:5]([H:10])([H:11])[H:12])([H:8])[H:9])[H:7]"
C        2.79040307      -0.00208332      -0.26563546
C        1.64161417      -0.20450467      -0.53417562
C        0.25629776      -0.46462458      -0.90417722
C       -0.63853039      -0.76921659       0.28484735
C       -1.62234752       0.59036863       0.93224319
O       -1.93735668      -0.41809489      -0.00867568
H        3.84439836       0.13593995      -0.20466988
H        0.20851603      -1.37948841      -1.50748158
H       -0.14017263       0.34580541      -1.52510129
H       -0.59073176       0.01171333       1.51491533
H       -1.46700407       1.56389386       0.47317907
H       -2.34508633       0.59029129       1.74473179
12
Frame=9 idx=003624 GeodesicLength=0.5537211024677496 rxn_smarts="[C:1](#[C:2][C:3]([C@@:4]1([H:10])[C:5]([H:11])([H:12])[O:6]1)([H:8])[H:9])[H:7]>>[C:1](#[C:2][C:3]([C-:4]=[O+:6][C:5]([H:10])([H:11])[H:12])([H:8])[H:9])[H:7]"
C        2.80295896      -0.00653401      -0.27662525
C        1.65266929      -0.20731488      -0.53987848
C        0.26606204      -0.46625046      -0.90644335
C       -0.63175755      -0.74200616       0.28523919
C       -1.63596972       0.59600388       0.94132192
O       -1.92812478      -0.40454076      -0.01765026
H        3.85796525       0.12766040      -0.22517173
H        0.21475569      -1.39005997      -1.49566533
H       -0.12578698       0.33676633      -1.53961137
H       -0.60297148       0.00085965       1.54091018
H       -1.49540261       1.57742929       0.49418612
H       -2.37439810       0.57798670       1.73938834
12
Frame=10 idx=003624 GeodesicLength=0.6140630778564542 rxn_smarts="[C:1](#[C:2][C:3]([C@@:4]1([H:10])[C:5]([H:11])([H:12])[O:6]1)([H:8])[H:9])[H:7]>>[C:1](#[C:2][C:3]([C-:4]=[O+:6][C:5]([H:10])([H:11])[H:12])([H:8])[H:9])[H:7]"
C        2.81537992      -0.01132497      -0.28783318
C        1.66387420      -0.21091794      -0.54663645
C        0.27574931      -0.46835869      -0.90915400
C       -0.62474051      -0.71326084       0.28519697
C       -1.64925666       0.60205273       0.95079349
O       -1.91856312      -0.38931255      -0.02664494
H        3.87095388       0.12136053      -0.24423625
H        0.22027398      -1.40154905      -1.48303815
H       -0.11125685       0.32653682      -1.55525122
H       -0.61572586      -0.01209474       1.56667184
H       -1.52377888       1.59130867       0.51624676
H       -2.40290940       0.56556002       1.73388514
12
Frame=11 idx=003624 GeodesicLength=0.6742628995436832 rxn_smarts="[C:1](#[C:2][C:3]([C@@:4]1([H:10])[C:5]([H:11])([H:12])[O:6]1)([H:8])[H:9])[H:7]>>[C:1](#[C:2][C:3]([C-:4]=[O+:6][C:5]([H:10])([H:11])[H:12])([H:8])[H:9])[H:7]"
C        2.82776772      -0.01537998      -0.29985967
C        1.67525105      -0.21438832      -0.55452600
C        0.28548518      -0.47061204      -0.91218020
C       -0.61709816      -0.68251180       0.28489803
C       -1.66251147       0.60841433       0.96067206
O       -1.90845560      -0.37270190      -0.03549799
H        3.88386251       0.11475972      -0.26185222
H        0.22549373      -1.41374264      -1.46912152
H       -0.09681102       0.31503025      -1.57207594
H       -0.62909377      -0.02689885       1.59208973
H       -1.55299575       1.60536992       0.53925765
H       -2.43089443       0.55266131       1.72819607
12
Frame=12 idx=003624 GeodesicLength=0.7342345903396704 rxn_smarts="[C:1](#[C:2][C:3]([C@@:4]1([H:10])[C:5]([H:11])([H:12])[O:6]1)([H:8])[H:9])[H:7]>>[C:1](#[C:2][C:3]([C-:4]=[O+:6][C:5]([H:10])([H:11])[H:12])([H:8])[H:9])[H:7]"
C        2.83997199      -0.01903608      -0.31265701
C        1.68678159      -0.21835334      -0.56387262
C        0.29512569      -0.47328999      -0.91566548
C       -0.60893272      -0.64965897       0.28414416
C       -1.67548710       0.61518996       0.97103991
O       -1.89788012      -0.35428536      -0.04427602
H        3.89638237       0.10920448      -0.27726372
H        0.23000006      -1.42686854      -1.45389273
H       -0.08246347       0.30192936      -1.59025340
H       -0.64292227      -0.04398384       1.61677600
H       -1.58254015       1.61971959       0.56349051
H       -2.45803586       0.53943274       1.72243040
12
Frame=13 idx=003624 GeodesicLength=0.7940500474638161 rxn_smarts="[C:1](#[C:2][C:3]([C@@:4]1([H:10])[C:5]([H:11])([H:12])[O:6]1)([H:8])[H:9])[H:7]>>[C:1](#[C:2][C:3]([C-:4]=[O+:6][C:5]([H:10])([H:11])[H:12])([H:8])[H:9])[H:7]"
C        2.85224787      -0.02257154      -0.32615303
C        1.69855334      -0.22269426      -0.57420681
C        0.30481451      -0.47625848      -0.91928523
C       -0.60015091      -0.61429476       0.28300094
C       -1.68843571       0.62237004       0.98187814
O       -1.88672994      -0.33391332      -0.05315494
H        3.90882087       0.10446983      -0.29165942
H        0.23395691      -1.44079719      -1.43683720
H       -0.06799099       0.28722654      -1.60956928
H       -0.65758000      -0.06359535       1.64056230
H       -1.61280193       1.63438490       0.58910843
H       -2.48470402       0.52567359       1.71631610
12
Frame=14 idx=003624 GeodesicLength=0.8537898376900737 rxn_smarts="[C:1](#[C:2][C:3]([C@@:4]1([H:10])[C:5]([H:11])([H:12])[O:6]1)([H:8])[H:9])[H:7]>>[C:1](#[C:2][C:3]([C-:4]=[O+:6][C:5]([H:10])([H:11])[H:12])([H:8])[H:9])[H:7]"
C        2.86470806      -0.02487175      -0.34092271
C        1.71063719      -0.22660643      -0.58575932
C        0.31463120      -0.47925196      -0.92295456
C       -0.59045963      -0.57576773       0.28153273
C       -1.70162930       0.62987877       0.99326449
O       -1.87488442      -0.31162832      -0.06203678
H        3.92163987       0.09847184      -0.30476298
H        0.23766690      -1.45540810      -1.41730974
H       -0.05365577       0.27063089      -1.63022643
H       -0.67299962      -0.08559509       1.66308412
H       -1.64460353       1.64924106       0.61617397
H       -2.51105094       0.51090682       1.70991722
12
Frame=15 idx=003624 GeodesicLength=0.9134657475332508 rxn_smarts="[C:1](#[C:2][C:3]([C@@:4]1([H:10])[C:5]([H:11])([H:12])[O:6]1)([H:8])[H:9])[H:7]>>[C:1](#[C:2][C:3]([C-:4]=[O+:6][C:5]([H:10])([H:11])[H:12])([H:8])[H:9])[H:7]"
C        2.87758232      -0.02756163      -0.35653007
C        1.72313976      -0.23104761      -0.59795472
C        0.32465217      -0.48250907      -0.92634674
C       -0.58005101      -0.53362701       0.27957621
C       -1.71510936       0.63783046       1.00525915
O       -1.86232221      -0.28652704      -0.07137583
H        3.93465709       0.09357444      -0.31791071
H        0.24084465      -1.47079699      -1.39476440
H       -0.03886093       0.25185529      -1.65199850
H       -0.68962523      -0.11077978       1.68381698
H       -1.67759511       1.66448425       0.64536035
H       -2.53731215       0.49510469       1.70286829
12
Frame=16 idx=003624 GeodesicLength=0.9730812410968194 rxn_smarts="[C:1](#[C:2][C:3]([C@@:4]1([H:10])[C:5]([H:11])([H:12])[O:6]1)([H:8])[H:9])[H:7]>>[C:1](#[C:2][C:3]([C-:4]=[O+:6][C:5]([H:10])([H:11])[H:12])([H:8])[H:9])[H:7]"
C        2.89106673      -0.02989446      -0.37338646
C        1.73616270      -0.23534519      -0.61069860
C        0.33500207      -0.48570446      -0.92911997
C       -0.56863785      -0.48693331       0.27718587
C       -1.72923677       0.64610811       1.01788983
O       -1.84886020      -0.25845829      -0.08116800
H        3.94837162       0.08786756      -0.33157692
H        0.24375306      -1.48668347      -1.36821170
H       -0.02366946       0.23061520      -1.67481141
H       -0.70745629      -0.13913134       1.70205638
H       -1.71280192       1.67992671       0.67682389
H       -2.56369370       0.47763294       1.69501709
