13
Frame=0 idx=001982 GeodesicLength=0.0 rxn_smarts="[N:1]([C:2]([C@@:3]([N:4]([H:12])[H:13])([C:5]#[N:6])[H:11])([H:9])[H:10])([H:7])[H:8]>>[N:1]([C:2]([C-:3]([N+:4]([H:11])([H:12])[H:13])[C:5]#[N:6])([H:9])[H:10])([H:7])[H:8]"
N       -1.76029537      -0.12145778       0.18182945
C       -0.65836814       0.57952141      -0.47383002
C        0.61300304       0.29634337       0.27254142
N        0.81814771      -1.24916601       0.44146231
C        1.80868726       0.90169483      -0.17635408
N        2.79953910       1.39141328      -0.51245040
H       -1.96732089       0.31031999       1.07405016
H       -2.59940720      -0.09214634      -0.38049020
H       -0.78591797       1.66633119      -0.53587257
H       -0.60257634       0.19853744      -1.50446236
H        0.85037051      -0.52152887       1.34241966
H       -0.09110833      -1.69030231       0.35262192
H        1.57524666      -1.66956018      -0.08146525
13
Frame=1 idx=001982 GeodesicLength=0.04248131135708012 rxn_smarts="[N:1]([C:2]([C@@:3]([N:4]([H:12])[H:13])([C:5]#[N:6])[H:11])([H:9])[H:10])([H:7])[H:8]>>[N:1]([C:2]([C-:3]([N+:4]([H:11])([H:12])[H:13])[C:5]#[N:6])([H:9])[H:10])([H:7])[H:8]"
N       -1.76024742      -0.12171595       0.18172459
C       -0.65770296       0.57966684      -0.47251032
C        0.61476049       0.29182930       0.27135488
N        0.81430971      -1.24738193       0.43369795
C        1.80887480       0.90223083      -0.17818318
N        2.79832732       1.39284296      -0.51664335
H       -1.97072388       0.31114480       1.07251934
H       -2.59776630      -0.09638344      -0.38304946
H       -0.78417934       1.66674632      -0.53073495
H       -0.60255324       0.20167679      -1.50418913
H        0.85510905      -0.52046286       1.34977100
H       -0.09616929      -1.68780731       0.35186486
H        1.57796105      -1.67238634      -0.07562224
13
Frame=2 idx=001982 GeodesicLength=0.08496124722571353 rxn_smarts="[N:1]([C:2]([C@@:3]([N:4]([H:12])[H:13])([C:5]#[N:6])[H:11])([H:9])[H:10])([H:7])[H:8]>>[N:1]([C:2]([C-:3]([N+:4]([H:11])([H:12])[H:13])[C:5]#[N:6])([H:9])[H:10])([H:7])[H:8]"
N       -1.76019912      -0.12197197       0.18161586
C       -0.65704149       0.57982124      -0.47119055
C        0.61651647       0.28730422       0.27012766
N        0.81049853      -1.24565321       0.42580256
C        1.80905363       0.90273111      -0.18006246
N        2.79709465       1.39431047      -0.52079219
H       -1.97411875       0.31195093       1.07097992
H       -2.59611295      -0.10060231      -0.38558737
H       -0.78243594       1.66715842      -0.52556495
H       -0.60255921       0.20486159      -1.50392035
H        0.85986952      -0.51937450       1.35704846
H       -0.10119341      -1.68530653       0.35111117
H        1.58062809      -1.67522947      -0.06956777
13
Frame=3 idx=001982 GeodesicLength=0.12743646202063097 rxn_smarts="[N:1]([C:2]([C@@:3]([N:4]([H:12])[H:13])([C:5]#[N:6])[H:11])([H:9])[H:10])([H:7])[H:8]>>[N:1]([C:2]([C-:3]([N+:4]([H:11])([H:12])[H:13])[C:5]#[N:6])([H:9])[H:10])([H:7])[H:8]"
N       -1.76014956      -0.12222509       0.18150759
C       -0.65638449       0.57997816      -0.46987753
C        0.61827102       0.28276546       0.26885281
N        0.80671734      -1.24398166       0.41776571
C        1.80922244       0.90319507      -0.18199986
N        2.79584858       1.39583043      -0.52485860
H       -1.97749404       0.31274170       1.06943799
H       -2.59445266      -0.10479215      -0.38809079
H       -0.78068763       1.66756043      -0.52038201
H       -0.60259938       0.20807486      -1.50365928
H        0.86465278      -0.51825792       1.36425178
H       -0.10617679      -1.68280030       0.35036924
H        1.58323238      -1.67808899      -0.06331704
13
Frame=4 idx=001982 GeodesicLength=0.16990265383063557 rxn_smarts="[N:1]([C:2]([C@@:3]([N:4]([H:12])[H:13])([C:5]#[N:6])[H:11])([H:9])[H:10])([H:7])[H:8]>>[N:1]([C:2]([C-:3]([N+:4]([H:11])([H:12])[H:13])[C:5]#[N:6])([H:9])[H:10])([H:7])[H:8]"
N       -1.76009835      -0.12247443       0.18140450
C       -0.65573318       0.58013233      -0.46857879
C        0.62002405       0.27821012       0.26752422
N        0.80297058      -1.24237191       0.40957840
C        1.80937980       0.90362257      -0.18400284
N        2.79459734       1.39741651      -0.52880608
H       -1.98084034       0.31352116       1.06790148
H       -2.59279152      -0.10894237      -0.39054726
H       -0.77893617       1.66794827      -0.51520614
H       -0.60267792       0.21130077      -1.50341207
H        0.86945984      -0.51710820       1.37138238
H       -0.11111413      -1.68029087       0.34964778
H        1.58576001      -1.68096395      -0.05688558
13
Frame=5 idx=001982 GeodesicLength=0.21237153119434055 rxn_smarts="[N:1]([C:2]([C@@:3]([N:4]([H:12])[H:13])([C:5]#[N:6])[H:11])([H:9])[H:10])([H:7])[H:8]>>[N:1]([C:2]([C-:3]([N+:4]([H:11])([H:12])[H:13])[C:5]#[N:6])([H:9])[H:10])([H:7])[H:8]"
N       -1.76004312      -0.12272030       0.18130877
C       -0.65508616       0.58027459      -0.46729614
C        0.62177499       0.27363670       0.26613525
N        0.79925187      -1.24081363       0.40122542
C        1.80952419       0.90401313      -0.18607528
N        2.79334777       1.39907603      -0.53260346
H       -1.98414354       0.31428935       1.06636852
H       -2.59113258      -0.11304694      -0.39294470
H       -0.77717444       1.66830509      -0.51005030
H       -0.60280036       0.21452318      -1.50316920
H        0.87428816      -0.51591319       1.37843960
H       -0.11600586      -1.67777176       0.34895142
H        1.58819909      -1.68385225      -0.05028990
13
Frame=6 idx=001982 GeodesicLength=0.25483173367942047 rxn_smarts="[N:1]([C:2]([C@@:3]([N:4]([H:12])[H:13])([C:5]#[N:6])[H:11])([H:9])[H:10])([H:7])[H:8]>>[N:1]([C:2]([C-:3]([N+:4]([H:11])([H:12])[H:13])[C:5]#[N:6])([H:9])[H:10])([H:7])[H:8]"
N       -1.75998387      -0.12296694       0.18121217
C       -0.65444050       0.58041538      -0.46602453
C        0.62352664       0.26904184       0.26469731
N        0.79556755      -1.23932150       0.39271055
C        1.80966046       0.90436776      -0.18819812
N        2.79208252       1.40080134      -0.53630826
H       -1.98741966       0.31503790       1.06483724
H       -2.58946910      -0.11711228      -0.39530642
H       -0.77540626       1.66864956      -0.50489181
H       -0.60295273       0.21776644      -1.50293973
H        0.87913954      -0.51467711       1.38543945
H       -0.12084653      -1.67524872       0.34829226
H        1.59054193      -1.68675367      -0.04352012
13
Frame=7 idx=001982 GeodesicLength=0.29728538661560727 rxn_smarts="[N:1]([C:2]([C@@:3]([N:4]([H:12])[H:13])([C:5]#[N:6])[H:11])([H:9])[H:10])([H:7])[H:8]>>[N:1]([C:2]([C-:3]([N+:4]([H:11])([H:12])[H:13])[C:5]#[N:6])([H:9])[H:10])([H:7])[H:8]"
N       -1.75991864      -0.12322322       0.18110347
C       -0.65379122       0.58056412      -0.46474789
C        0.62527920       0.26442887       0.26322469
N        0.79191515      -1.23788549       0.38402738
C        1.80979167       0.90469901      -0.19033962
N        2.79078998       1.40254946      -0.54000658
H       -1.99068698       0.31574453       1.06329467
H       -2.58778659      -0.12115881      -0.39766070
H       -0.77362674       1.66898843      -0.49969085
H       -0.60311867       0.22106419      -1.50271112
H        0.88400374      -0.51339400       1.39239387
H       -0.12563318      -1.67271459       0.34766701
H        1.59278228      -1.68966250      -0.03655434
13
Frame=8 idx=001982 GeodesicLength=0.339736954145552 rxn_smarts="[N:1]([C:2]([C@@:3]([N:4]([H:12])[H:13])([C:5]#[N:6])[H:11])([H:9])[H:10])([H:7])[H:8]>>[N:1]([C:2]([C-:3]([N+:4]([H:11])([H:12])[H:13])[C:5]#[N:6])([H:9])[H:10])([H:7])[H:8]"
N       -1.75984606      -0.12348838       0.18098164
C       -0.65313887       0.58072571      -0.46346188
C        0.62703519       0.25979375       0.26171465
N        0.78829356      -1.23650972       0.37516311
C        1.80991972       0.90499651      -0.19250750
N        2.78946776       1.40432789      -0.54370829
H       -1.99395401       0.31641524       1.06173417
H       -2.58608002      -0.12520134      -0.40001449
H       -0.77183551       1.66932674      -0.49443193
H       -0.60330182       0.22443138      -1.50248198
H        0.88888521      -0.51206427       1.39930720
H       -0.13036274      -1.67016759       0.34707648
H        1.59491758      -1.69258592      -0.02937119
13
Frame=9 idx=001982 GeodesicLength=0.3821965502129836 rxn_smarts="[N:1]([C:2]([C@@:3]([N:4]([H:12])[H:13])([C:5]#[N:6])[H:11])([H:9])[H:10])([H:7])[H:8]>>[N:1]([C:2]([C-:3]([N+:4]([H:11])([H:12])[H:13])[C:5]#[N:6])([H:9])[H:10])([H:7])[H:8]"
N       -1.75976736      -0.12376605       0.18084106
C       -0.65248375       0.58091250      -0.46216014
C        0.62879717       0.25513573       0.26017052
N        0.78470576      -1.23519998       0.36610953
C        1.81005021       0.90526264      -0.19469538
N        2.78810613       1.40611559      -0.54746489
H       -1.99723721       0.31704217       1.06015437
H       -2.58434324      -0.12925647      -0.40238837
H       -0.77003736       1.66968143      -0.48908255
H       -0.60349848       0.22790304      -1.50225969
H        0.89378192      -0.51068591       1.40619369
H       -0.13502883      -1.66761290       0.34651358
H        1.59695505      -1.69553179      -0.02193174
13
Frame=10 idx=001982 GeodesicLength=0.42464569681624803 rxn_smarts="[N:1]([C:2]([C@@:3]([N:4]([H:12])[H:13])([C:5]#[N:6])[H:11])([H:9])[H:10])([H:7])[H:8]>>[N:1]([C:2]([C-:3]([N+:4]([H:11])([H:12])[H:13])[C:5]#[N:6])([H:9])[H:10])([H:7])[H:8]"
N       -1.75967397      -0.12406724       0.18067421
C       -0.65181687       0.58112230      -0.46083050
C        0.63056729       0.25045479       0.25859470
N        0.78113849      -1.23393819       0.35686651
C        1.81018410       0.90550134      -0.19689276
N        2.78670298       1.40789115      -0.55130286
H       -2.00053765       0.31760818       1.05853727
H       -2.58255735      -0.13334815      -0.40479296
H       -0.76821551       1.67004115      -0.48361700
H       -0.60369788       0.23149143      -1.50202234
H        0.89868557      -0.50923464       1.41304825
H       -0.13963507      -1.66503636       0.34599165
H        1.59885587      -1.69848577      -0.01425417
13
Frame=11 idx=001982 GeodesicLength=0.46709606865225317 rxn_smarts="[N:1]([C:2]([C@@:3]([N:4]([H:12])[H:13])([C:5]#[N:6])[H:11])([H:9])[H:10])([H:7])[H:8]>>[N:1]([C:2]([C-:3]([N+:4]([H:11])([H:12])[H:13])[C:5]#[N:6])([H:9])[H:10])([H:7])[H:8]"
N       -1.75956742      -0.12438367       0.18050021
C       -0.65114770       0.58133297      -0.45950056
C        0.63234924       0.24573913       0.25694390
N        0.77759938      -1.23273936       0.34740197
C        1.81031987       0.90567646      -0.19919007
N        2.78529357       1.40974757      -0.55503957
H       -2.00381118       0.31812562       1.05691245
H       -2.58075533      -0.13742260      -0.40717311
H       -0.76637532       1.67038377      -0.47810090
H       -0.60394373       0.23514142      -1.50179166
H        0.90361630      -0.50770118       1.41985039
H       -0.14417623      -1.66244054       0.34551006
H        1.60059855      -1.70145959      -0.00632309
13
Frame=12 idx=001982 GeodesicLength=0.5095472111025998 rxn_smarts="[N:1]([C:2]([C@@:3]([N:4]([H:12])[H:13])([C:5]#[N:6])[H:11])([H:9])[H:10])([H:7])[H:8]>>[N:1]([C:2]([C-:3]([N+:4]([H:11])([H:12])[H:13])[C:5]#[N:6])([H:9])[H:10])([H:7])[H:8]"
N       -1.75944833      -0.12472049       0.18031229
C       -0.65047604       0.58155582      -0.45816524
C        0.63414330       0.24099152       0.25523260
N        0.77409559      -1.23160566       0.33772490
C        1.81045798       0.90580169      -0.20156332
N        2.78387618       1.41165393      -0.55872531
H       -2.00708353       0.31859333       1.05527423
H       -2.57892652      -0.14150071      -0.40955296
H       -0.76452626       1.67072620      -0.47251265
H       -0.60422305       0.23887773      -1.50157287
H        0.90857405      -0.50607376       1.42662718
H       -0.14863454      -1.65983230       0.34509029
H        1.60217117      -1.70446731       0.00183085
13
Frame=13 idx=001982 GeodesicLength=0.5519994560494773 rxn_smarts="[N:1]([C:2]([C@@:3]([N:4]([H:12])[H:13])([C:5]#[N:6])[H:11])([H:9])[H:10])([H:7])[H:8]>>[N:1]([C:2]([C-:3]([N+:4]([H:11])([H:12])[H:13])[C:5]#[N:6])([H:9])[H:10])([H:7])[H:8]"
N       -1.75931260      -0.12508496       0.18010436
C       -0.64979877       0.58179636      -0.45681465
C        0.63595222       0.23621054       0.25345735
N        0.77062057      -1.23053175       0.32782056
C        1.81060220       0.90587585      -0.20401228
N        2.78244949       1.41358959      -0.56239445
H       -2.01035921       0.31899501       1.05361348
H       -2.57705961      -0.14560284      -0.41194575
H       -0.76266302       1.67107007      -0.46681839
H       -0.60453389       0.24272628      -1.50135743
H        0.91355311      -0.50434033       1.43337712
H       -0.15300925      -1.65720354       0.34472708
H        1.60355876      -1.70750028       0.01024298
13
Frame=14 idx=001982 GeodesicLength=0.5944544679313867 rxn_smarts="[N:1]([C:2]([C@@:3]([N:4]([H:12])[H:13])([C:5]#[N:6])[H:11])([H:9])[H:10])([H:7])[H:8]>>[N:1]([C:2]([C-:3]([N+:4]([H:11])([H:12])[H:13])[C:5]#[N:6])([H:9])[H:10])([H:7])[H:8]"
N       -1.75915698      -0.12547708       0.17987608
C       -0.64911307       0.58205826      -0.45544503
C        0.63777927       0.23138970       0.25161523
N        0.76717337      -1.22952270       0.31767424
C        1.81075823       0.90588971      -0.20653715
N        2.78099888       1.41556750      -0.56607076
H       -2.01363979       0.31932963       1.05192926
H       -2.57514809      -0.14973821      -0.41435659
H       -0.76077775       1.67141905      -0.46100085
H       -0.60487481       0.24670238      -1.50114469
H        0.91854774      -0.50249722       1.44010396
H       -0.15729515      -1.65455633       0.34440455
H        1.60474815      -1.71056468       0.01895176
13
Frame=15 idx=001982 GeodesicLength=0.6369169487114265 rxn_smarts="[N:1]([C:2]([C@@:3]([N:4]([H:12])[H:13])([C:5]#[N:6])[H:11])([H:9])[H:10])([H:7])[H:8]>>[N:1]([C:2]([C-:3]([N+:4]([H:11])([H:12])[H:13])[C:5]#[N:6])([H:9])[H:10])([H:7])[H:8]"
N       -1.75897936      -0.12590420       0.17961888
C       -0.64841595       0.58234817      -0.45404591
C        0.63962616       0.22652778       0.24971226
N        0.76375355      -1.22857513       0.30727549
C        1.81092969       0.90584672      -0.20912126
N        2.77951399       1.41756089      -0.56981521
H       -2.01693451       0.31958110       1.05021284
H       -2.57318178      -0.15391956      -0.41680415
H       -0.75886840       1.67177722      -0.45502433
H       -0.60523695       0.25083562      -1.50092857
H        0.92355032      -0.50053570       1.44681870
H       -0.16148372      -1.65188788       0.34411071
H        1.60572697      -1.71365504       0.02799056
13
Frame=16 idx=001982 GeodesicLength=0.679382997394711 rxn_smarts="[N:1]([C:2]([C@@:3]([N:4]([H:12])[H:13])([C:5]#[N:6])[H:11])([H:9])[H:10])([H:7])[H:8]>>[N:1]([C:2]([C-:3]([N+:4]([H:11])([H:12])[H:13])[C:5]#[N:6])([H:9])[H:10])([H:7])[H:8]"
N       -1.75877713      -0.12636924       0.17933464
C       -0.64770672       0.58266147      -0.45262194
C        0.64149415       0.22162139       0.24774210
N        0.76036436      -1.22769125       0.29661553
C        1.81111655       0.90574573      -0.21177227
N        2.77800164       1.41957952      -0.57360127
H       -2.02023304       0.31974452       1.04847026
H       -2.57116304      -0.15813909      -0.41927996
H       -0.75693457       1.67213935      -0.44889936
H       -0.60562222       0.25511674      -1.50071202
H        0.92855973      -0.49843953       1.45352577
H       -0.16556323      -1.64919908       0.34385024
H        1.60646352      -1.71677054       0.03734829
