11
Frame=0 idx=005345 GeodesicLength=0.0 rxn_smarts="[C:1]([C:2](=[O:3])[C:4]([C:5]#[N:6])([H:10])[H:11])([H:7])([H:8])[H:9]>>[C:1]([C:2]([O:3][C:5]#[N:6])=[C:4]([H:10])[H:11])([H:7])([H:8])[H:9]"
C       -1.51749981      -0.07315586      -0.66853032
C       -0.22539855      -0.01770562       0.03684143
O       -0.18953927       0.26567499       1.30921912
C        1.10812969      -0.17137806      -0.35186801
C        1.26624992       0.49685291       1.37404247
N        2.07394745       0.85322547       2.14159794
H       -2.23305983       0.63893061      -0.26127595
H       -1.92663954      -1.08142231      -0.55216044
H       -1.36841121       0.09858875      -1.73308794
H        1.45314171       0.06652077      -1.35224868
H        1.55907942      -1.07613160       0.05747040
11
Frame=1 idx=005345 GeodesicLength=0.07201750642848061 rxn_smarts="[C:1]([C:2](=[O:3])[C:4]([C:5]#[N:6])([H:10])[H:11])([H:7])([H:8])[H:9]>>[C:1]([C:2]([O:3][C:5]#[N:6])=[C:4]([H:10])[H:11])([H:7])([H:8])[H:9]"
C       -1.51607986      -0.06533803      -0.66940972
C       -0.22948550      -0.05717453       0.04853065
O       -0.20149159       0.22493917       1.32138539
C        1.10638558      -0.19091166      -0.34449785
C        1.26919304       0.51762180       1.36958189
N        2.07912177       0.90415616       2.11836860
H       -2.23195933       0.63307692      -0.23952612
H       -1.93346209      -1.07459666      -0.60145500
H       -1.36209775       0.15347705      -1.72471406
H        1.43937584       0.03419029      -1.35173683
H        1.58049989      -1.07944052       0.07347304
11
Frame=2 idx=005345 GeodesicLength=0.1441253028726157 rxn_smarts="[C:1]([C:2](=[O:3])[C:4]([C:5]#[N:6])([H:10])[H:11])([H:7])([H:8])[H:9]>>[C:1]([C:2]([O:3][C:5]#[N:6])=[C:4]([H:10])[H:11])([H:7])([H:8])[H:9]"
C       -1.51385650      -0.05732988      -0.66941327
C       -0.23353757      -0.09639975       0.05953918
O       -0.21313602       0.18384470       1.33300725
C        1.10458483      -0.21076975      -0.33727770
C        1.27073587       0.53845678       1.36387128
N        2.08183627       0.95492513       2.09349000
H       -2.23095389       0.62575946      -0.21743747
H       -1.93847221      -1.06561570      -0.65093924
H       -1.35445617       0.20895739      -1.71302056
H        1.42608571       0.00063353      -1.35101937
H        1.60116968      -1.08246191       0.08919990
11
Frame=3 idx=005345 GeodesicLength=0.2161040257482057 rxn_smarts="[C:1]([C:2](=[O:3])[C:4]([C:5]#[N:6])([H:10])[H:11])([H:7])([H:8])[H:9]>>[C:1]([C:2]([O:3][C:5]#[N:6])=[C:4]([H:10])[H:11])([H:7])([H:8])[H:9]"
C       -1.51080926      -0.04917910      -0.66862175
C       -0.23751354      -0.13464187       0.06971508
O       -0.22454538       0.14274498       1.34399702
C        1.10275069      -0.23060626      -0.33027355
C        1.27100794       0.55883424       1.35720610
N        2.08212889       1.00515312       2.06719994
H       -2.23008738       0.61708951      -0.19546421
H       -1.94147769      -1.05452690      -0.69972175
H       -1.34544585       0.26417402      -1.69819195
H        1.41327610      -0.03369665      -1.35013812
H        1.62071547      -1.08534509       0.10429320
11
Frame=4 idx=005345 GeodesicLength=0.28790879294302146 rxn_smarts="[C:1]([C:2](=[O:3])[C:4]([C:5]#[N:6])([H:10])[H:11])([H:7])([H:8])[H:9]>>[C:1]([C:2]([O:3][C:5]#[N:6])=[C:4]([H:10])[H:11])([H:7])([H:8])[H:9]"
C       -1.50706726      -0.04108434      -0.66707314
C       -0.24143344      -0.17147942       0.07909671
O       -0.23582152       0.10224508       1.35431197
C        1.10086192      -0.25014234      -0.32346535
C        1.27021519       0.57892286       1.34954060
N        2.08055993       1.05367149       2.03983801
H       -2.22946098       0.60729514      -0.17422813
H       -1.94240835      -1.04160149      -0.74733284
H       -1.33545356       0.31825722      -1.68052725
H        1.40100706      -0.06818020      -1.34900930
H        1.63900102      -1.08790399       0.11884872
11
Frame=5 idx=005345 GeodesicLength=0.3599339068348658 rxn_smarts="[C:1]([C:2](=[O:3])[C:4]([C:5]#[N:6])([H:10])[H:11])([H:7])([H:8])[H:9]>>[C:1]([C:2]([O:3][C:5]#[N:6])=[C:4]([H:10])[H:11])([H:7])([H:8])[H:9]"
C       -1.50274724      -0.03291126      -0.66490972
C       -0.24533526      -0.20701400       0.08772227
O       -0.24697445       0.06216074       1.36406571
C        1.09898554      -0.26959334      -0.31679856
C        1.26861089       0.59863408       1.34110015
N        2.07728803       1.10147192       2.01133017
H       -2.22940040       0.59593430      -0.15338074
H       -1.94124207      -1.02678231      -0.79446309
H       -1.32447541       0.37201105      -1.65991064
H        1.38917614      -0.10347111      -1.34770150
H        1.65611424      -1.09044008       0.13294593
11
Frame=6 idx=005345 GeodesicLength=0.4322307211127574 rxn_smarts="[C:1]([C:2](=[O:3])[C:4]([C:5]#[N:6])([H:10])[H:11])([H:7])([H:8])[H:9]>>[C:1]([C:2]([O:3][C:5]#[N:6])=[C:4]([H:10])[H:11])([H:7])([H:8])[H:9]"
C       -1.49787583      -0.02462556      -0.66210164
C       -0.24925279      -0.24165860       0.09575672
O       -0.25808043       0.02211707       1.37339571
C        1.09712862      -0.28910897      -0.31019822
C        1.26617580       0.61800584       1.33178273
N        2.07227856       1.14888664       1.98124041
H       -2.22984246       0.58318993      -0.13296296
H       -1.93806532      -1.00991487      -0.84139951
H       -1.31253933       0.42561964      -1.63619483
H        1.37777571      -0.13956194      -1.34612253
H        1.67229747      -1.09294918       0.14680412
11
Frame=7 idx=005345 GeodesicLength=0.5049612286473967 rxn_smarts="[C:1]([C:2](=[O:3])[C:4]([C:5]#[N:6])([H:10])[H:11])([H:7])([H:8])[H:9]>>[C:1]([C:2]([O:3][C:5]#[N:6])=[C:4]([H:10])[H:11])([H:7])([H:8])[H:9]"
C       -1.49251315      -0.01618214      -0.65871470
C       -0.25324804      -0.27538764       0.10327958
O       -0.26919474      -0.01773933       1.38236540
C        1.09528530      -0.30873816      -0.30360237
C        1.26309716       0.63709238       1.32159643
N        2.06574076       1.19604377       1.94947988
H       -2.23107297       0.56868073      -0.11299646
H       -1.93254756      -0.99089441      -0.88851474
H       -1.29977502       0.47942860      -1.60919981
H        1.36663062      -0.17678775      -1.34428526
H        1.68759765      -1.09551606       0.16059205
11
Frame=8 idx=005345 GeodesicLength=0.5777487693233946 rxn_smarts="[C:1]([C:2](=[O:3])[C:4]([C:5]#[N:6])([H:10])[H:11])([H:7])([H:8])[H:9]>>[C:1]([C:2]([O:3][C:5]#[N:6])=[C:4]([H:10])[H:11])([H:7])([H:8])[H:9]"
C       -1.48655063      -0.00767453      -0.65473738
C       -0.25727277      -0.30822990       0.11022795
O       -0.28037613      -0.05758622       1.39081489
C        1.09336739      -0.32826813      -0.29706562
C        1.25937605       0.65563280       1.31069862
N        2.05748989       1.24278825       1.91612755
H       -2.23248951       0.55309190      -0.09392924
H       -1.92511181      -0.96971609      -0.93491852
H       -1.28599417       0.53238097      -1.57910727
H        1.35571403      -0.21433921      -1.34202040
H        1.70184766      -1.09807984       0.17390942
11
Frame=9 idx=005345 GeodesicLength=0.6511641201118975 rxn_smarts="[C:1]([C:2](=[O:3])[C:4]([C:5]#[N:6])([H:10])[H:11])([H:7])([H:8])[H:9]>>[C:1]([C:2]([O:3][C:5]#[N:6])=[C:4]([H:10])[H:11])([H:7])([H:8])[H:9]"
C       -1.48021401       0.00091910      -0.65027437
C       -0.26139980      -0.34029064       0.11668635
O       -0.29170214      -0.09742458       1.39895129
C        1.09150480      -0.34777459      -0.29055414
C        1.25527249       0.67378118       1.29917117
N        2.04789526       1.28925590       1.88122636
H       -2.23450839       0.53624339      -0.07579936
H       -1.91584271      -0.94627925      -0.98100430
H       -1.27145289       0.58468136      -1.54594940
H        1.34510598      -0.25248378      -1.33945351
H        1.71534142      -1.10062811       0.18699991
11
Frame=10 idx=005345 GeodesicLength=0.7244985307958415 rxn_smarts="[C:1]([C:2](=[O:3])[C:4]([C:5]#[N:6])([H:10])[H:11])([H:7])([H:8])[H:9]>>[C:1]([C:2]([O:3][C:5]#[N:6])=[C:4]([H:10])[H:11])([H:7])([H:8])[H:9]"
C       -1.47323339       0.00972694      -0.64517534
C       -0.26555925      -0.37186432       0.12270799
O       -0.30314374      -0.13771828       1.40660362
C        1.08953929      -0.36741668      -0.28390913
C        1.25048841       0.69136017       1.28675770
N        2.03632646       1.33571858       1.84377152
H       -2.23677568       0.51815772      -0.05865190
H       -1.90416525      -0.92011021      -1.02676486
H       -1.25610041       0.63659084      -1.50919881
H        1.33456705      -0.29120096      -1.33625263
H        1.72805651      -1.10324380       0.20011185
11
Frame=11 idx=005345 GeodesicLength=0.7987468794514425 rxn_smarts="[C:1]([C:2](=[O:3])[C:4]([C:5]#[N:6])([H:10])[H:11])([H:7])([H:8])[H:9]>>[C:1]([C:2]([O:3][C:5]#[N:6])=[C:4]([H:10])[H:11])([H:7])([H:8])[H:9]"
C       -1.46588136       0.01863740      -0.63958928
C       -0.26988267      -0.40272125       0.12828607
O       -0.31501341      -0.17811522       1.41393611
C        1.08765654      -0.38702652      -0.27729559
C        1.24544300       0.70857590       1.27371125
N        2.02337098       1.38194369       1.80453851
H       -2.23965815       0.49899218      -0.04269359
H       -1.89054237      -0.89162816      -1.07185308
H       -1.23998382       0.68764540      -1.46927540
H        1.32443658      -0.33029099      -1.33270671
H        1.74005468      -1.10601244       0.21294172
11
Frame=12 idx=005345 GeodesicLength=0.8730688078344626 rxn_smarts="[C:1]([C:2](=[O:3])[C:4]([C:5]#[N:6])([H:10])[H:11])([H:7])([H:8])[H:9]>>[C:1]([C:2]([O:3][C:5]#[N:6])=[C:4]([H:10])[H:11])([H:7])([H:8])[H:9]"
C       -1.45806031       0.02757542      -0.63356068
C       -0.27429162      -0.43273067       0.13341420
O       -0.32708941      -0.21859556       1.42078919
C        1.08563173      -0.40638996      -0.27058620
C        1.24025536       0.72529018       1.26007119
N        2.00908753       1.42747765       1.76354114
H       -2.24264516       0.47895732      -0.02829967
H       -1.87476079      -0.86068247      -1.11600110
H       -1.22348886       0.73711787      -1.42638590
H        1.31421412      -0.36941255      -1.32855551
H        1.75114742      -1.10860722       0.22557334
11
Frame=13 idx=005345 GeodesicLength=0.9480753273507498 rxn_smarts="[C:1]([C:2](=[O:3])[C:4]([C:5]#[N:6])([H:10])[H:11])([H:7])([H:8])[H:9]>>[C:1]([C:2]([O:3][C:5]#[N:6])=[C:4]([H:10])[H:11])([H:7])([H:8])[H:9]"
C       -1.44989976       0.03657300      -0.62708531
C       -0.27880809      -0.46204157       0.13806867
O       -0.33972186      -0.25946374       1.42721277
C        1.08369052      -0.42555058      -0.26385009
C        1.23495919       0.74147343       1.24601884
N        1.99340654       1.47251677       1.72068428
H       -2.24587414       0.45864500      -0.01549219
H       -1.85726605      -0.82749806      -1.15864995
H       -1.20654259       0.78479587      -1.38087938
H        1.30446465      -0.40812020      -1.32391377
H        1.76159158      -1.11132993       0.23788613
11
Frame=14 idx=005345 GeodesicLength=1.0234947782541235 rxn_smarts="[C:1]([C:2](=[O:3])[C:4]([C:5]#[N:6])([H:10])[H:11])([H:7])([H:8])[H:9]>>[C:1]([C:2]([O:3][C:5]#[N:6])=[C:4]([H:10])[H:11])([H:7])([H:8])[H:9]"
C       -1.44142136       0.04554640      -0.62023884
C       -0.28340237      -0.49050866       0.14222780
O       -0.35291282      -0.30064503       1.43311094
C        1.08176875      -0.44428773      -0.25706049
C        1.22965393       0.75725499       1.23156613
N        1.97662908       1.51652761       1.67631388
H       -2.24912364       0.43832912      -0.00443994
H       -1.83817222      -0.79231074      -1.19939213
H       -1.18940935       0.83014779      -1.33324946
H        1.29507225      -0.44608178      -1.31874103
H        1.77131775      -1.11397197       0.24990316
11
Frame=15 idx=005345 GeodesicLength=1.0993379162941446 rxn_smarts="[C:1]([C:2](=[O:3])[C:4]([C:5]#[N:6])([H:10])[H:11])([H:7])([H:8])[H:9]>>[C:1]([C:2]([O:3][C:5]#[N:6])=[C:4]([H:10])[H:11])([H:7])([H:8])[H:9]"
C       -1.43268267       0.05446839      -0.61307025
C       -0.28806256      -0.51809127       0.14586196
O       -0.36674910      -0.34220674       1.43841546
C        1.07989230      -0.46250541      -0.25022318
C        1.22446741       0.77269512       1.21679011
N        1.95890272       1.55938826       1.63067428
H       -2.25229475       0.41833983       0.00484034
H       -1.81769015      -0.75540156      -1.23790696
H       -1.17223683       0.87291139      -1.28391958
H        1.28610412      -0.48307446      -1.31306365
H        1.78034951      -1.11652354       0.26160148
11
Frame=16 idx=005345 GeodesicLength=1.1755519718197072 rxn_smarts="[C:1]([C:2](=[O:3])[C:4]([C:5]#[N:6])([H:10])[H:11])([H:7])([H:8])[H:9]>>[C:1]([C:2]([O:3][C:5]#[N:6])=[C:4]([H:10])[H:11])([H:7])([H:8])[H:9]"
C       -1.42373504       0.06330331      -0.60561843
C       -0.29277198      -0.54475296       0.14896751
O       -0.38131318      -0.38418397       1.44305982
C        1.07806666      -0.48011576      -0.24331612
C        1.21945036       0.78795506       1.20166113
N        1.94049555       1.60086007       1.58398213
H       -2.25533027       0.39887973       0.01238226
H       -1.79596926      -0.71704543      -1.27399443
H       -1.15520287       0.91293549      -1.23328713
H        1.27761227      -0.51889891      -1.30688309
H        1.78869777      -1.11893664       0.27304634
