13
Frame=0 idx=009886 GeodesicLength=0.0 rxn_smarts="[C:1]([C@@:2]([O:3][C:4](=[O:5])[H:12])([C:6]#[C:7][H:13])[H:11])([H:8])([H:9])[H:10]>>[C:1]1([H:8])([H:10])[C@:2]([O:3][C:4](=[O:5])[H:12])([H:11])[C:6]1=[C:7]([H:9])[H:13]"
C       -0.93520816      -0.65275766       0.37572940
C        0.37050263       0.18119387       0.33110754
O        1.14666357       0.08304936      -0.84616747
C        2.04145922      -0.91561239      -0.86099909
O        2.21866890      -1.70201789       0.01863626
C       -0.77378555       1.01725644       0.28184498
C       -1.79781411       1.83193538       0.20243219
H       -1.09508527      -1.22300156      -0.53283184
H       -1.96681494       0.39098913       0.22353043
H       -1.11619914      -1.16130729       1.31495460
H        0.97127713       0.14099427       1.23348615
H        2.58812830      -0.89340448      -1.81253235
H       -1.65179261       2.90268277       0.07080924
13
Frame=1 idx=009886 GeodesicLength=0.08350210118602518 rxn_smarts="[C:1]([C@@:2]([O:3][C:4](=[O:5])[H:12])([C:6]#[C:7][H:13])[H:11])([H:8])([H:9])[H:10]>>[C:1]1([H:8])([H:10])[C@:2]([O:3][C:4](=[O:5])[H:12])([H:11])[C:6]1=[C:7]([H:9])[H:13]"
C       -0.93850653      -0.65337750       0.37201597
C        0.36731399       0.17673077       0.32592118
O        1.14336415       0.07350286      -0.85171884
C        2.04082704      -0.92236208      -0.86012624
O        2.22978243      -1.69572334       0.02874361
C       -0.76836204       1.02641682       0.26948336
C       -1.78923209       1.84144853       0.21238392
H       -1.10671124      -1.21772736      -0.53898119
H       -1.98969084       0.39057496       0.24837691
H       -1.09956319      -1.17936794       1.30546478
H        0.96831039       0.14232476       1.22835601
H        2.59895458      -0.89348556      -1.80491580
H       -1.65648665       2.91104508       0.06499635
13
Frame=2 idx=009886 GeodesicLength=0.16686157348986647 rxn_smarts="[C:1]([C@@:2]([O:3][C:4](=[O:5])[H:12])([C:6]#[C:7][H:13])[H:11])([H:8])([H:9])[H:10]>>[C:1]1([H:8])([H:10])[C@:2]([O:3][C:4](=[O:5])[H:12])([H:11])[C:6]1=[C:7]([H:9])[H:13]"
C       -0.94168980      -0.65374623       0.36822269
C        0.36424868       0.17254078       0.32070760
O        1.14039666       0.06395643      -0.85712201
C        2.04045647      -0.92914276      -0.85886817
O        2.24042791      -1.68944529       0.03899383
C       -0.76253454       1.03589631       0.25669771
C       -1.78032919       1.85065490       0.22184188
H       -1.11824489      -1.21194339      -0.54525562
H       -2.01210985       0.39024590       0.27439132
H       -1.08277540      -1.19766218       1.29485043
H        0.96534036       0.14385892       1.22325572
H        2.60914987      -0.89425279      -1.79727683
H       -1.66233627       2.91903941       0.05956146
13
Frame=3 idx=009886 GeodesicLength=0.2501599570359881 rxn_smarts="[C:1]([C@@:2]([O:3][C:4](=[O:5])[H:12])([C:6]#[C:7][H:13])[H:11])([H:8])([H:9])[H:10]>>[C:1]1([H:8])([H:10])[C@:2]([O:3][C:4](=[O:5])[H:12])([H:11])[C:6]1=[C:7]([H:9])[H:13]"
C       -0.94470801      -0.65382531       0.36428850
C        0.36132268       0.16871731       0.31541335
O        1.13786018       0.05444523      -0.86236711
C        2.04050014      -0.93585888      -0.85705601
O        2.25074718      -1.68303214       0.04962923
C       -0.75630260       1.04573906       0.24329031
C       -1.77123359       1.85944668       0.23036094
H       -1.12952080      -1.20571686      -0.55167154
H       -2.03407531       0.38989840       0.30128116
H       -1.06583473      -1.21605273       1.28304207
H        0.96231977       0.14578511       1.21817283
H        2.61832282      -0.89630235      -1.78983812
H       -1.66939775       2.92675647       0.05545439
13
Frame=4 idx=009886 GeodesicLength=0.3334319058070129 rxn_smarts="[C:1]([C@@:2]([O:3][C:4](=[O:5])[H:12])([C:6]#[C:7][H:13])[H:11])([H:8])([H:9])[H:10]>>[C:1]1([H:8])([H:10])[C@:2]([O:3][C:4](=[O:5])[H:12])([H:11])[C:6]1=[C:7]([H:9])[H:13]"
C       -0.94762008      -0.65358798       0.36029955
C        0.35852438       0.16520800       0.31004542
O        1.13565116       0.04491219      -0.86749976
C        2.04079585      -0.94260664      -0.85482601
O        2.26064968      -1.67660626       0.06050140
C       -0.74960950       1.05596981       0.22937582
C       -1.76192861       1.86781668       0.23807271
H       -1.14066776      -1.19900835      -0.55813353
H       -2.05559282       0.38954219       0.32916446
H       -1.04877296      -1.23450249       1.27008474
H        0.95929853       0.14798383       1.21306812
H        2.62688476      -0.89922175      -1.78242681
H       -1.67761263       2.93410079       0.05227390
13
Frame=5 idx=009886 GeodesicLength=0.4166970871122627 rxn_smarts="[C:1]([C@@:2]([O:3][C:4](=[O:5])[H:12])([C:6]#[C:7][H:13])[H:11])([H:8])([H:9])[H:10]>>[C:1]1([H:8])([H:10])[C@:2]([O:3][C:4](=[O:5])[H:12])([H:11])[C:6]1=[C:7]([H:9])[H:13]"
C       -0.95041864      -0.65300890       0.35627925
C        0.35585798       0.16203385       0.30456873
O        1.13376270       0.03532655      -0.87255623
C        2.04133549      -0.94941150      -0.85217804
O        2.27014751      -1.67016534       0.07164449
C       -0.74242362       1.06661370       0.21489197
C       -1.75249944       1.87569827       0.24480481
H       -1.15165491      -1.19185449      -0.56458620
H       -2.07668477       0.38913485       0.35792568
H       -1.03162999      -1.25288893       1.25599593
H        0.95628735       0.15051262       1.20790806
H        2.63488005      -0.90307001      -1.77504587
H       -1.68695971       2.94107934       0.05034741
13
Frame=6 idx=009886 GeodesicLength=0.4999797640752291 rxn_smarts="[C:1]([C@@:2]([O:3][C:4](=[O:5])[H:12])([C:6]#[C:7][H:13])[H:11])([H:8])([H:9])[H:10]>>[C:1]1([H:8])([H:10])[C@:2]([O:3][C:4](=[O:5])[H:12])([H:11])[C:6]1=[C:7]([H:9])[H:13]"
C       -0.95314061      -0.65205759       0.35228180
C        0.35332048       0.15916905       0.29900036
O        1.13213278       0.02567282      -0.87754869
C        2.04201058      -0.95631891      -0.84919842
O        2.27917114      -1.66379328       0.08295317
C       -0.73468476       1.07770283       0.19993281
C       -1.74291965       1.88307768       0.25068371
H       -1.16255441      -1.18420805      -0.57097549
H       -2.09736019       0.38866069       0.38762990
H       -1.01444251      -1.27117205       1.24079706
H        0.95332438       0.15327984       1.20267487
H        2.64252893      -0.90757474      -1.76757997
H       -1.69738616       2.94756171       0.04934891
13
Frame=7 idx=009886 GeodesicLength=0.5833401172855746 rxn_smarts="[C:1]([C@@:2]([O:3][C:4](=[O:5])[H:12])([C:6]#[C:7][H:13])[H:11])([H:8])([H:9])[H:10]>>[C:1]1([H:8])([H:10])[C@:2]([O:3][C:4](=[O:5])[H:12])([H:11])[C:6]1=[C:7]([H:9])[H:13]"
C       -0.95578418      -0.65070740       0.34834703
C        0.35092909       0.15660995       0.29335752
O        1.13074649       0.01595005      -0.88247573
C        2.04278254      -0.96334835      -0.84592695
O        2.28768843      -1.65755154       0.09437236
C       -0.72632300       1.08926758       0.18455449
C       -1.73319915       1.88992884       0.25577200
H       -1.17337309      -1.17603366      -0.57726528
H       -2.11767355       0.38810310       0.41824112
H       -0.99726212      -1.28928023       1.22450060
H        0.95044776       0.15624341       1.19737459
H        2.64991712      -0.91263652      -1.76000252
H       -1.70889634       2.95345477       0.04915077
13
Frame=8 idx=009886 GeodesicLength=0.6667617589169541 rxn_smarts="[C:1]([C@@:2]([O:3][C:4](=[O:5])[H:12])([C:6]#[C:7][H:13])[H:11])([H:8])([H:9])[H:10]>>[C:1]1([H:8])([H:10])[C@:2]([O:3][C:4](=[O:5])[H:12])([H:11])[C:6]1=[C:7]([H:9])[H:13]"
C       -0.95835531      -0.64890693       0.34449988
C        0.34870764       0.15435990       0.28766559
O        1.12959972       0.00617792      -0.88732092
C        2.04360427      -0.97051223      -0.84240219
O        2.29564926      -1.65151777       0.10583926
C       -0.71724289       1.10136663       0.16883627
C       -1.72331606       1.89621645       0.26020478
H       -1.18412292      -1.16724788      -0.58344374
H       -2.13762814       0.38744387       0.44978949
H       -0.98015378      -1.30713823       1.20707918
H        0.94769847       0.15933655       1.19202186
H        2.65711173      -0.91816128      -1.75227693
H       -1.72155198       2.95858299       0.04950749
13
Frame=9 idx=009886 GeodesicLength=0.7501525239973448 rxn_smarts="[C:1]([C@@:2]([O:3][C:4](=[O:5])[H:12])([C:6]#[C:7][H:13])[H:11])([H:8])([H:9])[H:10]>>[C:1]1([H:8])([H:10])[C@:2]([O:3][C:4](=[O:5])[H:12])([H:11])[C:6]1=[C:7]([H:9])[H:13]"
C       -0.96082052      -0.64667815       0.34071014
C        0.34654502       0.15258085       0.28147921
O        1.12861768      -0.00397201      -0.89244142
C        2.04454441      -0.97797785      -0.83847752
O        2.30322978      -1.64533259       0.11785134
C       -0.70766552       1.11392478       0.15183695
C       -1.71365680       1.90171664       0.26257205
H       -1.19465286      -1.15840965      -0.58927563
H       -2.15738272       0.38650376       0.48156239
H       -0.96306594      -1.32424600       1.18885301
H        0.94496143       0.16329124       1.18617997
H        2.66417775      -0.92470496      -1.74430008
H       -1.73483172       2.96330394       0.05344959
13
Frame=10 idx=009886 GeodesicLength=0.8335862660860224 rxn_smarts="[C:1]([C@@:2]([O:3][C:4](=[O:5])[H:12])([C:6]#[C:7][H:13])[H:11])([H:8])([H:9])[H:10]>>[C:1]1([H:8])([H:10])[C@:2]([O:3][C:4](=[O:5])[H:12])([H:11])[C:6]1=[C:7]([H:9])[H:13]"
C       -0.96320833      -0.64395697       0.33705302
C        0.34456652       0.15112361       0.27526754
O        1.12784885      -0.01414412      -0.89746345
C        2.04547597      -0.98556716      -0.83434640
O        2.31020296      -1.63941848       0.12983193
C       -0.69726508       1.12706368       0.13457057
C       -1.70383265       1.90658733       0.26439112
H       -1.20510601      -1.14890745      -0.59496343
H       -2.17689370       0.38539853       0.51420540
H       -0.94615447      -1.34095531       1.16956129
H        0.94239746       0.16733099       1.18029068
H        2.67111449      -0.93157512      -1.73614822
H       -1.74914601       2.96702049       0.05774996
13
Frame=11 idx=009886 GeodesicLength=0.9170981259169808 rxn_smarts="[C:1]([C@@:2]([O:3][C:4](=[O:5])[H:12])([C:6]#[C:7][H:13])[H:11])([H:8])([H:9])[H:10]>>[C:1]1([H:8])([H:10])[C@:2]([O:3][C:4](=[O:5])[H:12])([H:11])[C:6]1=[C:7]([H:9])[H:13]"
C       -0.96549640      -0.64074575       0.33352904
C        0.34273726       0.15006011       0.26885670
O        1.12726194      -0.02445879      -0.90252656
C        2.04642359      -0.99333514      -0.82996054
O        2.31663349      -1.63364588       0.14196081
C       -0.68609772       1.14076513       0.11668063
C       -1.69399845       1.91070350       0.26509227
H       -1.21541849      -1.13894573      -0.60040857
H       -2.19632519       0.38400969       0.54740965
H       -0.92943319      -1.35700934       1.14937260
H        0.93997662       0.17174045       1.17417959
H        2.67795566      -0.93896528      -1.72778078
H       -1.76421913       2.96982704       0.06359515
13
Frame=12 idx=009886 GeodesicLength=1.000621437685875 rxn_smarts="[C:1]([C@@:2]([O:3][C:4](=[O:5])[H:12])([C:6]#[C:7][H:13])[H:11])([H:8])([H:9])[H:10]>>[C:1]1([H:8])([H:10])[C@:2]([O:3][C:4](=[O:5])[H:12])([H:11])[C:6]1=[C:7]([H:9])[H:13]"
C       -0.96768563      -0.63698439       0.33017953
C        0.34113107       0.14933708       0.26248967
O        1.12689129      -0.03471388      -0.90743840
C        2.04731305      -1.00119987      -0.82542507
O        2.32239408      -1.62826621       0.15394468
C       -0.67395014       1.15512884       0.09871262
C       -1.68391020       1.91414807       0.26544366
H       -1.22563278      -1.12818171      -0.60570774
H       -2.21564037       0.38237548       0.58146433
H       -0.91301641      -1.37252680       1.12815118
H        0.93779443       0.17613539       1.16808645
H        2.68467313      -0.94656487      -1.71926123
H       -1.78036151       2.97131288       0.06936033
13
Frame=13 idx=009886 GeodesicLength=1.084129249233706 rxn_smarts="[C:1]([C@@:2]([O:3][C:4](=[O:5])[H:12])([C:6]#[C:7][H:13])[H:11])([H:8])([H:9])[H:10]>>[C:1]1([H:8])([H:10])[C@:2]([O:3][C:4](=[O:5])[H:12])([H:11])[C:6]1=[C:7]([H:9])[H:13]"
C       -0.96975236      -0.63270447       0.32699233
C        0.33967823       0.14904910       0.25589429
O        1.12667918      -0.04510245      -0.91241383
C        2.04818700      -1.00923756      -0.82066094
O        2.32757164      -1.62306670       0.16605655
C       -0.66096165       1.17009061       0.08009771
C       -1.67382557       1.91675008       0.26457174
H       -1.23565858      -1.11697763      -0.61071712
H       -2.23504898       0.38035679       0.61590392
H       -0.89688773      -1.38717706       1.10618564
H        0.93578616       0.18095503       1.16173378
H        2.69133289      -0.95464028      -1.71050926
H       -1.79710023       2.97170454       0.07686518
13
Frame=14 idx=009886 GeodesicLength=1.1675867797360027 rxn_smarts="[C:1]([C@@:2]([O:3][C:4](=[O:5])[H:12])([C:6]#[C:7][H:13])[H:11])([H:8])([H:9])[H:10]>>[C:1]1([H:8])([H:10])[C@:2]([O:3][C:4](=[O:5])[H:12])([H:11])[C:6]1=[C:7]([H:9])[H:13]"
C       -0.97169445      -0.62789277       0.32398434
C        0.33837823       0.14921157       0.24908523
O        1.12661148      -0.05558661      -0.91743304
C        2.04901568      -1.01742066      -0.81568310
O        2.33216531      -1.61804364       0.17827058
C       -0.64709450       1.18567120       0.06088441
C       -1.66373511       1.91847693       0.26248428
H       -1.24548050      -1.10531253      -0.61543098
H       -2.25463960       0.37788327       0.65067782
H       -0.88109703      -1.40089346       1.08353204
H        0.93396312       0.18618822       1.15512890
H        2.69790880      -0.96315660      -1.70153789
H       -1.81430145       2.97087506       0.08603740
13
Frame=15 idx=009886 GeodesicLength=1.2509400587501385 rxn_smarts="[C:1]([C@@:2]([O:3][C:4](=[O:5])[H:12])([C:6]#[C:7][H:13])[H:11])([H:8])([H:9])[H:10]>>[C:1]1([H:8])([H:10])[C@:2]([O:3][C:4](=[O:5])[H:12])([H:11])[C:6]1=[C:7]([H:9])[H:13]"
C       -0.97349729      -0.62252547       0.32119973
C        0.33727834       0.14979739       0.24221134
O        1.12669859      -0.06603394      -0.92238956
C        2.04975178      -1.02569007      -0.81057749
O        2.33607091      -1.61338811       0.19038020
C       -0.63221335       1.20192451       0.04143280
C       -1.65346666       1.91939052       0.25962815
H       -1.25510898      -1.09299673      -0.61988442
H       -2.27445431       0.37495221       0.68589279
H       -0.86572639      -1.41370779       1.06019097
H        0.93239857       0.19160985       1.14841552
H        2.70439527      -0.97188754      -1.69239422
H       -1.83212648       2.96855517       0.09589421
13
Frame=16 idx=009886 GeodesicLength=1.334164665128744 rxn_smarts="[C:1]([C@@:2]([O:3][C:4](=[O:5])[H:12])([C:6]#[C:7][H:13])[H:11])([H:8])([H:9])[H:10]>>[C:1]1([H:8])([H:10])[C@:2]([O:3][C:4](=[O:5])[H:12])([H:11])[C:6]1=[C:7]([H:9])[H:13]"
C       -0.97514989      -0.61661922       0.31865555
C        0.33635597       0.15083688       0.23522440
O        1.12691083      -0.07645465      -0.92731848
C        2.05038458      -1.03403628      -0.80534153
O        2.33931994      -1.60903727       0.20242723
C       -0.61634202       1.21883571       0.02166153
C       -1.64306598       1.91944144       0.25578504
H       -1.26450255      -1.08012426      -0.62403101
H       -2.29463835       0.37146805       0.72135759
H       -0.85080313      -1.42550246       1.03630566
H        0.93108132       0.19731971       1.14154041
H        2.71077396      -0.98086653      -1.68308618
H       -1.85032466       2.96473888       0.10681979
