17
Frame=0 idx=002511 GeodesicLength=0.0 rxn_smarts="[C:1]([C@@:2]1([H:10])[C@:3]([C:4]([H:12])([H:13])[H:14])([H:11])[N:5]1[C:6]([H:15])([H:16])[H:17])([H:7])([H:8])[H:9]>>[C:1]([C@@:2]1([H:10])[C:3]([C:4]([H:12])([H:13])[H:14])=[N+:5]1[C-:6]([H:16])[H:17])([H:7])([H:8])[H:9].[H:11][H:15]"
C       -0.68229720       2.02982746       0.26682114
C       -0.56984300       0.68078121      -0.39502753
C        0.58875940      -0.23508263      -0.31529853
C        2.05842046      -0.20164456      -0.12940619
N       -0.45946422      -0.48658424       0.46463213
C       -1.24124153      -1.54418727       0.67582523
H       -0.05900178       2.07811870       1.16089283
H       -1.71407452       2.24789810       0.55198502
H       -0.35546472       2.81111930      -0.42226167
H       -1.21115657       0.54027261      -1.27123365
H        0.04304257      -1.54291685      -1.27275115
H        2.41524488      -1.16060779       0.24894096
H        2.54419552      -0.01822631      -1.08805595
H        2.37173204       0.58497726       0.56482452
H       -0.63027677      -2.03609750      -1.05005949
H       -2.29794403      -1.35658269       0.82206335
H       -0.80063056      -2.39106488       1.18810897
17
Frame=1 idx=002511 GeodesicLength=0.08208331186361079 rxn_smarts="[C:1]([C@@:2]1([H:10])[C@:3]([C:4]([H:12])([H:13])[H:14])([H:11])[N:5]1[C:6]([H:15])([H:16])[H:17])([H:7])([H:8])[H:9]>>[C:1]([C@@:2]1([H:10])[C:3]([C:4]([H:12])([H:13])[H:14])=[N+:5]1[C-:6]([H:16])[H:17])([H:7])([H:8])[H:9].[H:11][H:15]"
C       -0.67398150       2.03190995       0.26093158
C       -0.57254676       0.68099270      -0.39838021
C        0.58365879      -0.23914514      -0.32691527
C        2.05126070      -0.19730261      -0.12243264
N       -0.46284551      -0.48426557       0.46360903
C       -1.24004398      -1.54991691       0.66790128
H       -0.04708469       2.07874924       1.15246303
H       -1.70368050       2.25725166       0.54781889
H       -0.34460020       2.80950801      -0.43122932
H       -1.21799201       0.54419504      -1.27179037
H        0.04156073      -1.54348598      -1.28012855
H        2.41067058      -1.15748535       0.25050405
H        2.54829279       0.00106820      -1.07229843
H        2.34969415       0.58284812       0.58553527
H       -0.64812262      -2.05038552      -1.04832331
H       -2.28910362      -1.36292366       0.86198510
H       -0.78513635      -2.40161217       1.16074989
17
Frame=2 idx=002511 GeodesicLength=0.16377125313298896 rxn_smarts="[C:1]([C@@:2]1([H:10])[C@:3]([C:4]([H:12])([H:13])[H:14])([H:11])[N:5]1[C:6]([H:15])([H:16])[H:17])([H:7])([H:8])[H:9]>>[C:1]([C@@:2]1([H:10])[C:3]([C:4]([H:12])([H:13])[H:14])=[N+:5]1[C-:6]([H:16])[H:17])([H:7])([H:8])[H:9].[H:11][H:15]"
C       -0.66572926       2.03397788       0.25504057
C       -0.57512329       0.68129000      -0.40172792
C        0.57863807      -0.24310808      -0.33827791
C        2.04397070      -0.19306447      -0.11542987
N       -0.46628240      -0.48193401       0.46249741
C       -1.23905937      -1.55540598       0.66001845
H       -0.03548318       2.07929002       1.14419157
H       -1.69337838       2.26654509       0.54338048
H       -0.33366431       2.80789360      -0.44007798
H       -1.22448753       0.54827988      -1.27247004
H        0.04049650      -1.54375350      -1.28770921
H        2.40605591      -1.15434473       0.25222717
H        2.55193102       0.02007933      -1.05627625
H        2.32760369       0.58043684       0.60581071
H       -0.66686537      -2.06455374      -1.04675709
H       -2.27848876      -1.37036236       0.90190795
H       -0.77013405      -2.41126579       1.13365197
17
Frame=3 idx=002511 GeodesicLength=0.2451475421204058 rxn_smarts="[C:1]([C@@:2]1([H:10])[C@:3]([C:4]([H:12])([H:13])[H:14])([H:11])[N:5]1[C:6]([H:15])([H:16])[H:17])([H:7])([H:8])[H:9]>>[C:1]([C@@:2]1([H:10])[C:3]([C:4]([H:12])([H:13])[H:14])=[N+:5]1[C-:6]([H:16])[H:17])([H:7])([H:8])[H:9].[H:11][H:15]"
C       -0.65754102       2.03603516       0.24914307
C       -0.57757301       0.68167048      -0.40507146
C        0.57370226      -0.24696960      -0.34938132
C        2.03656304      -0.18892372      -0.10838718
N       -0.46977387      -0.47958047       0.46131258
C       -1.23826947      -1.56065756       0.65222553
H       -0.02418359       2.07976113       1.13606587
H       -1.68316784       2.27577856       0.53867891
H       -0.32267043       2.80627565      -0.44882367
H       -1.23065095       0.55250919      -1.27326829
H        0.03988710      -1.54373470      -1.29546406
H        2.40140253      -1.15117167       0.25415678
H        2.55512972       0.03877841      -1.03999760
H        2.30547797       0.57778219       0.62565030
H       -0.68668721      -2.07857006      -1.04534608
H       -2.26608072      -1.37889756       0.94171341
H       -0.75556451      -2.42008543       1.10679322
17
Frame=4 idx=002511 GeodesicLength=0.32635524348221556 rxn_smarts="[C:1]([C@@:2]1([H:10])[C@:3]([C:4]([H:12])([H:13])[H:14])([H:11])[N:5]1[C:6]([H:15])([H:16])[H:17])([H:7])([H:8])[H:9]>>[C:1]([C@@:2]1([H:10])[C:3]([C:4]([H:12])([H:13])[H:14])=[N+:5]1[C-:6]([H:16])[H:17])([H:7])([H:8])[H:9].[H:11][H:15]"
C       -0.64941864       2.03808402       0.24323238
C       -0.57989504       0.68213013      -0.40841480
C        0.56885966      -0.25072893      -0.36022200
C        2.02905220      -0.18487292      -0.10129134
N       -0.47331768      -0.47719854       0.46006484
C       -1.23764852      -1.56567758       0.64456099
H       -0.01317748       2.08017843       1.12807486
H       -1.67305105       2.28495094       0.53371705
H       -0.31162977       2.80465316      -0.45748139
H       -1.23648620       0.55686566      -1.27418650
H        0.03977715      -1.54343893      -1.30337569
H        2.39671426      -1.14795278       0.25633850
H        2.55791538       0.05714403      -1.02346386
H        2.28333405       0.57492580       0.64505693
H       -0.70779959      -2.09240273      -1.04404992
H       -2.25185254      -1.38853140       0.98130504
H       -0.74137619      -2.42812835       1.08013492
17
Frame=5 idx=002511 GeodesicLength=0.4073994533830378 rxn_smarts="[C:1]([C@@:2]1([H:10])[C@:3]([C:4]([H:12])([H:13])[H:14])([H:11])[N:5]1[C:6]([H:15])([H:16])[H:17])([H:7])([H:8])[H:9]>>[C:1]([C@@:2]1([H:10])[C:3]([C:4]([H:12])([H:13])[H:14])=[N+:5]1[C-:6]([H:16])[H:17])([H:7])([H:8])[H:9].[H:11][H:15]"
C       -0.64136211       2.04012577       0.23730243
C       -0.58208815       0.68266252      -0.41175587
C        0.56411834      -0.25438596      -0.37079249
C        2.02145255      -0.18090251      -0.09412937
N       -0.47690702      -0.47478058       0.45877346
C       -1.23717287      -1.57047260       0.63708315
H       -0.00245231       2.08056114       1.12020414
H       -1.66302664       2.29405920       0.52850073
H       -0.30055521       2.80302208      -0.46606888
H       -1.24200052       0.56132494      -1.27521522
H        0.04020937      -1.54288626      -1.31140967
H        2.39199593      -1.14467473       0.25881573
H        2.56031024       0.07515680      -1.00668165
H        2.26119294       0.57191700       0.66402888
H       -0.73040606      -2.10601080      -1.04285427
H       -2.23579674      -1.39926105       1.02055569
H       -0.72751176      -2.43545497       1.05364322
17
Frame=6 idx=002511 GeodesicLength=0.48845655113953634 rxn_smarts="[C:1]([C@@:2]1([H:10])[C@:3]([C:4]([H:12])([H:13])[H:14])([H:11])[N:5]1[C:6]([H:15])([H:16])[H:17])([H:7])([H:8])[H:9]>>[C:1]([C@@:2]1([H:10])[C:3]([C:4]([H:12])([H:13])[H:14])=[N+:5]1[C-:6]([H:16])[H:17])([H:7])([H:8])[H:9].[H:11][H:15]"
C       -0.63337317       2.04215852       0.23133997
C       -0.58414818       0.68325808      -0.41510170
C        0.55949199      -0.25794380      -0.38108915
C        2.01378160      -0.17700011      -0.08688414
N       -0.48053326      -0.47232464       0.45744664
C       -1.23680917      -1.57505173       0.62983497
H        0.00799834       2.08092302       1.11243749
H       -1.65309851       2.30309792       0.52302306
H       -0.28945698       2.80137643      -0.47460766
H       -1.24719305       0.56586225      -1.27636066
H        0.04124913      -1.54208682      -1.31955417
H        2.38726092      -1.14132419       0.26162014
H        2.56234409       0.09282590      -0.98964448
H        2.23906364       0.56878684       0.68259234
H       -0.75477871      -2.11934003      -1.04167727
H       -2.21787060      -1.41108985       1.05938001
H       -0.71392809      -2.44212778       1.02724460
17
Frame=7 idx=002511 GeodesicLength=0.5696810938297261 rxn_smarts="[C:1]([C@@:2]1([H:10])[C@:3]([C:4]([H:12])([H:13])[H:14])([H:11])[N:5]1[C:6]([H:15])([H:16])[H:17])([H:7])([H:8])[H:9]>>[C:1]([C@@:2]1([H:10])[C:3]([C:4]([H:12])([H:13])[H:14])=[N+:5]1[C-:6]([H:16])[H:17])([H:7])([H:8])[H:9].[H:11][H:15]"
C       -0.62545383       2.04417886       0.22532825
C       -0.58606730       0.68390329      -0.41845573
C        0.55499994      -0.26140465      -0.39110282
C        2.00606040      -0.17314819      -0.07953157
N       -0.48418036      -0.46982747       0.45609986
C       -1.23652242      -1.57942314       0.62288224
H        0.01817987       2.08128225       1.10475449
H       -1.64327055       2.31205720       0.51727214
H       -0.27834789       2.79970635      -0.48312649
H       -1.25206048       0.57044231      -1.27762175
H        0.04297792      -1.54105699      -1.32778601
H        2.38252567      -1.13788048       0.26480109
H        2.56405287       0.11015178      -0.97233963
H        2.21696189       0.56558728       0.70076637
H       -0.78125161      -2.13231938      -1.04048317
H       -2.19802614      -1.42402893       1.09770168
H       -0.70057798      -2.44822008       1.00084105
17
Frame=8 idx=002511 GeodesicLength=0.6510714183679279 rxn_smarts="[C:1]([C@@:2]1([H:10])[C@:3]([C:4]([H:12])([H:13])[H:14])([H:11])[N:5]1[C:6]([H:15])([H:16])[H:17])([H:7])([H:8])[H:9]>>[C:1]([C@@:2]1([H:10])[C:3]([C:4]([H:12])([H:13])[H:14])=[N+:5]1[C-:6]([H:16])[H:17])([H:7])([H:8])[H:9].[H:11][H:15]"
C       -0.61760736       2.04618132       0.21924731
C       -0.58783953       0.68457870      -0.42182668
C        0.55066407      -0.26477680      -0.40082908
C        1.99831214      -0.16933014      -0.07204991
N       -0.48783181      -0.46729290       0.45474225
C       -1.23627262      -1.58360554       0.61627647
H        0.02809739       2.08165848       1.09713158
H       -1.63355065       2.32092569       0.51123195
H       -0.26724147       2.79799990      -0.49165589
H       -1.25660085       0.57502198      -1.27900714
H        0.04547624      -1.53983031      -1.33609769
H        2.37781754      -1.13433223       0.26837724
H        2.56547038       0.12717067      -0.95474793
H        2.19489560       0.56234333       0.71859093
H       -0.81012872      -2.14481901      -1.03915764
H       -2.17621442      -1.43808743       1.13545569
H       -0.68744593      -2.45380572       0.97431854
17
Frame=9 idx=002511 GeodesicLength=0.7339622513646414 rxn_smarts="[C:1]([C@@:2]1([H:10])[C@:3]([C:4]([H:12])([H:13])[H:14])([H:11])[N:5]1[C:6]([H:15])([H:16])[H:17])([H:7])([H:8])[H:9]>>[C:1]([C@@:2]1([H:10])[C:3]([C:4]([H:12])([H:13])[H:14])=[N+:5]1[C-:6]([H:16])[H:17])([H:7])([H:8])[H:9].[H:11][H:15]"
C       -0.60987654       2.04809070       0.21304353
C       -0.58942302       0.68522280      -0.42526883
C        0.54654951      -0.26807670      -0.41026883
C        1.99058338      -0.16550378      -0.06434261
N       -0.49144138      -0.46478996       0.45330478
C       -1.23596793      -1.58765397       0.61009676
H        0.03764442       2.08198052       1.08954869
H       -1.62399343       2.32958918       0.50479114
H       -0.25616525       2.79620187      -0.50022157
H       -1.26072636       0.57952690      -1.28059044
H        0.04911998      -1.53829682      -1.34456704
H        2.37317334      -1.13059745       0.27254103
H        2.56671676       0.14387038      -0.93676199
H        2.17285231       0.55918166       0.73612603
H       -0.84240506      -2.15671499      -1.03781368
H       -2.15224358      -1.45293269       1.17314926
H       -0.67439714      -2.45909764       0.94723375
17
Frame=10 idx=002511 GeodesicLength=0.8170584908113344 rxn_smarts="[C:1]([C@@:2]1([H:10])[C@:3]([C:4]([H:12])([H:13])[H:14])([H:11])[N:5]1[C:6]([H:15])([H:16])[H:17])([H:7])([H:8])[H:9]>>[C:1]([C@@:2]1([H:10])[C:3]([C:4]([H:12])([H:13])[H:14])=[N+:5]1[C-:6]([H:16])[H:17])([H:7])([H:8])[H:9].[H:11][H:15]"
C       -0.60223604       2.04995651       0.20672323
C       -0.59083169       0.68585065      -0.42875340
C        0.54265675      -0.27130334      -0.41940703
C        1.98288416      -0.16166588      -0.05644346
N       -0.49500588      -0.46226710       0.45186584
C       -1.23560927      -1.59155190       0.60433959
H        0.04690497       2.08233755       1.08198870
H       -1.61457715       2.33811525       0.49799868
H       -0.24511911       2.79433491      -0.50885680
H       -1.26448507       0.58394239      -1.28233530
H        0.05375127      -1.53659166      -1.35310725
H        2.36861754      -1.12670412       0.27719811
H        2.56775451       0.16031727      -0.91843539
H        2.15086070       0.55606526       0.75338557
H       -0.87788182      -2.16790175      -1.03608540
H       -2.12611471      -1.46889125       1.21026844
H       -0.66156916      -2.46404279       0.91965587
17
Frame=11 idx=002511 GeodesicLength=0.9004077164117842 rxn_smarts="[C:1]([C@@:2]1([H:10])[C@:3]([C:4]([H:12])([H:13])[H:14])([H:11])[N:5]1[C:6]([H:15])([H:16])[H:17])([H:7])([H:8])[H:9]>>[C:1]([C@@:2]1([H:10])[C:3]([C:4]([H:12])([H:13])[H:14])=[N+:5]1[C-:6]([H:16])[H:17])([H:7])([H:8])[H:9].[H:11][H:15]"
C       -0.59469667       2.05175469       0.20026541
C       -0.59204537       0.68643574      -0.43229117
C        0.53902073      -0.27446304      -0.42823314
C        1.97524164      -0.15778670      -0.04831646
N       -0.49849605      -0.45973996       0.45042660
C       -1.23515096      -1.59531773       0.59904067
H        0.05585426       2.08272242       1.07443723
H       -1.60531968       2.34646294       0.49081810
H       -0.23411712       2.79237715      -0.51758142
H       -1.26784236       0.58822419      -1.28425921
H        0.05949914      -1.53470372      -1.36170662
H        2.36417610      -1.12260739       0.28242738
H        2.56862679       0.17651890      -0.89974517
H        2.12892694       0.55306632       0.77039280
H       -0.91699516      -2.17830556      -1.03390305
H       -2.09772185      -1.48590782       1.24685152
H       -0.64896037      -2.46873044       0.89137653
17
Frame=12 idx=002511 GeodesicLength=0.9839423121335991 rxn_smarts="[C:1]([C@@:2]1([H:10])[C@:3]([C:4]([H:12])([H:13])[H:14])([H:11])[N:5]1[C:6]([H:15])([H:16])[H:17])([H:7])([H:8])[H:9]>>[C:1]([C@@:2]1([H:10])[C:3]([C:4]([H:12])([H:13])[H:14])=[N+:5]1[C-:6]([H:16])[H:17])([H:7])([H:8])[H:9].[H:11][H:15]"
C       -0.58727299       2.05346749       0.19364320
C       -0.59304608       0.68694862      -0.43589883
C        0.53568198      -0.27756752      -0.43673666
C        1.96768498      -0.15383985      -0.03992151
N       -0.50188377      -0.45722522       0.44898610
C       -1.23455095      -1.59897490       0.59422162
H        0.06446710       2.08313949       1.06687748
H       -1.59624643       2.35460067       0.48320529
H       -0.22317426       2.79030941      -0.52642313
H       -1.27076578       0.59232112      -1.28639245
H        0.06649340      -1.53263927      -1.37036991
H        2.35988457      -1.11827289       0.28829342
H        2.56937677       0.19250671      -0.88065535
H        2.10705311       0.55023622       0.78718802
H       -0.96018064      -2.18778747      -1.03108341
H       -2.06689321      -1.50397661       1.28293193
H       -0.63662780      -2.47324602       0.86213417
17
Frame=13 idx=002511 GeodesicLength=1.067524596003854 rxn_smarts="[C:1]([C@@:2]1([H:10])[C@:3]([C:4]([H:12])([H:13])[H:14])([H:11])[N:5]1[C:6]([H:15])([H:16])[H:17])([H:7])([H:8])[H:9]>>[C:1]([C@@:2]1([H:10])[C:3]([C:4]([H:12])([H:13])[H:14])=[N+:5]1[C-:6]([H:16])[H:17])([H:7])([H:8])[H:9].[H:11][H:15]"
C       -0.57997743       2.05507463       0.18682269
C       -0.59381101       0.68735666      -0.43959068
C        0.53268600      -0.28062559      -0.44490063
C        1.96024562      -0.14979191      -0.03120965
N       -0.50513463      -0.45473762       0.44754958
C       -1.23377283      -1.60253607       0.58993050
H        0.07271848       2.08359769       1.05928377
H       -1.58738099       2.36249051       0.47510717
H       -0.21230634       2.78810790      -0.53542047
H       -1.27321699       0.59617136      -1.28875890
H        0.07487642      -1.53040286      -1.37908726
H        2.35577713      -1.11365684       0.29487304
H        2.57005209       0.20831223      -0.86111936
H        2.08524113       0.54763754       0.80381750
H       -1.00793614      -2.19619919      -1.02750008
H       -2.03342914      -1.52311814       1.31855791
H       -0.62463135      -2.47768029       0.83164488
17
Frame=14 idx=002511 GeodesicLength=1.1510341659073284 rxn_smarts="[C:1]([C@@:2]1([H:10])[C@:3]([C:4]([H:12])([H:13])[H:14])([H:11])[N:5]1[C:6]([H:15])([H:16])[H:17])([H:7])([H:8])[H:9]>>[C:1]([C@@:2]1([H:10])[C:3]([C:4]([H:12])([H:13])[H:14])=[N+:5]1[C-:6]([H:16])[H:17])([H:7])([H:8])[H:9].[H:11][H:15]"
C       -0.57282647       2.05655475       0.17976513
C       -0.59431481       0.68762327      -0.44339074
C        0.53008637      -0.28365208      -0.45271024
C        1.95295802      -0.14560980      -0.02212732
N       -0.50821362      -0.45229837       0.44611233
C       -1.23277520      -1.60601870       0.58619208
H        0.08057644       2.08410556       1.05163037
H       -1.57875585       2.37009324       0.46645997
H       -0.20152949       2.78574892      -0.54461354
H       -1.27515003       0.59971000      -1.29140271
H        0.08481413      -1.52799363      -1.38787690
H        2.35190022      -1.10871790       0.30223947
H        2.57069943       0.22399217      -0.84107693
H        2.06348301       0.54531718       0.82034233
H       -1.06078903      -2.20334783      -1.02285033
H       -1.99704600      -1.54339338       1.35376712
H       -0.61311712      -2.48211341       0.79953991
17
Frame=15 idx=002511 GeodesicLength=1.2342253865183122 rxn_smarts="[C:1]([C@@:2]1([H:10])[C@:3]([C:4]([H:12])([H:13])[H:14])([H:11])[N:5]1[C:6]([H:15])([H:16])[H:17])([H:7])([H:8])[H:9]>>[C:1]([C@@:2]1([H:10])[C:3]([C:4]([H:12])([H:13])[H:14])=[N+:5]1[C-:6]([H:16])[H:17])([H:7])([H:8])[H:9].[H:11][H:15]"
C       -0.56583382       2.05788265       0.17242957
C       -0.59452625       0.68770705      -0.44731620
C        0.52794033      -0.28665970      -0.46014091
C        1.94585498      -0.14125263      -0.01261648
N       -0.51107837      -0.44992915       0.44467750
C       -1.23151764      -1.60943490       0.58305219
H        0.08800950       2.08467383       1.04388814
H       -1.57039904       2.37736102       0.45719523
H       -0.19085977       2.78320411      -0.55404530
H       -1.27651174       0.60286021      -1.29435604
H        0.09647991      -1.52541003      -1.39673629
H        2.34829608      -1.10340012       0.31048467
H        2.57136329       0.23959192      -0.82046872
H        2.04177730       0.54334793       0.83680812
H       -1.11929516      -2.20902964      -1.01687087
H       -1.95745070      -1.56488840       1.38857046
H       -0.60224889      -2.48662413       0.76544492
17
Frame=16 idx=002511 GeodesicLength=1.3168859486513842 rxn_smarts="[C:1]([C@@:2]1([H:10])[C@:3]([C:4]([H:12])([H:13])[H:14])([H:11])[N:5]1[C:6]([H:15])([H:16])[H:17])([H:7])([H:8])[H:9]>>[C:1]([C@@:2]1([H:10])[C:3]([C:4]([H:12])([H:13])[H:14])=[N+:5]1[C-:6]([H:16])[H:17])([H:7])([H:8])[H:9].[H:11][H:15]"
C       -0.55902314       2.05903837       0.16475674
C       -0.59441462       0.68756787      -0.45140328
C        0.52631403      -0.28966356      -0.46717137
C        1.93897426      -0.13668594      -0.00259401
N       -0.51369531      -0.44764955       0.44323344
C       -1.22997602      -1.61278764       0.58054406
H        0.09496664       2.08531924       1.03602258
H       -1.56235713       2.38425587       0.44721064
H       -0.18031093       2.78044610      -0.56377651
H       -1.27724108       0.60554507      -1.29768367
H        0.11005667      -1.52263597      -1.40569987
H        2.34501052      -1.09765915       0.31971108
H        2.57210154       0.25517711      -0.79918865
H        2.02010708       0.54177140       0.85330699
H       -1.18408466      -2.21298962      -1.00914025
H       -1.91414925      -1.58777096       1.42301165
H       -0.59227859      -2.49127864       0.72886045
