15
Frame=0 idx=007218 GeodesicLength=0.0 rxn_smarts="[O:1]([C:2]([C@@:3]1([H:11])[C:4]([H:12])([H:13])[C:5]([H:14])([H:15])[C:6]1=[O:7])([H:9])[H:10])[H:8]>>[C:3]1([H:11])=[C:4]([H:12])[C:5]([H:14])([H:15])[C:6]1=[O:7].[H:8][H:13].[O:1]=[C:2]([H:9])[H:10]"
O        2.07424457       0.16768780      -0.83894307
C        1.69624798      -0.83048539      -0.20112539
C       -0.15820563      -0.27704712       1.00471195
C       -0.54626870       0.96237733       0.49669671
C       -1.46559410       0.36846772      -0.57052385
C       -1.10295611      -0.97332415       0.10713310
O       -1.50944415      -2.09229119      -0.01590988
H        1.22219450       1.26819785      -0.62853155
H        2.17024678      -1.08344483       0.75409154
H        1.14554069      -1.63378535      -0.70292768
H        0.26107201      -0.54751580       1.96364880
H       -0.66398730       1.90013676       1.02487856
H        0.54061677       1.65960643      -0.30704580
H       -1.14119265       0.48887319      -1.60529637
H       -2.52251471       0.62254679      -0.48085708
15
Frame=1 idx=007218 GeodesicLength=0.09963972532347838 rxn_smarts="[O:1]([C:2]([C@@:3]1([H:11])[C:4]([H:12])([H:13])[C:5]([H:14])([H:15])[C:6]1=[O:7])([H:9])[H:10])[H:8]>>[C:3]1([H:11])=[C:4]([H:12])[C:5]([H:14])([H:15])[C:6]1=[O:7].[H:8][H:13].[O:1]=[C:2]([H:9])[H:10]"
O        2.12977319       0.17719827      -0.76758646
C        1.70270106      -0.83818694      -0.18353603
C       -0.15192192      -0.26485180       0.99437421
C       -0.55223747       0.97296278       0.48311890
C       -1.49157181       0.36904254      -0.56103451
C       -1.10215181      -0.96918332       0.10687828
O       -1.48123314      -2.09694350      -0.02228366
H        1.24556982       1.26586492      -0.65649527
H        2.15877444      -1.16117953       0.75950905
H        1.16087308      -1.60673508      -0.74680102
H        0.25682815      -0.52091706       1.96194231
H       -0.67631461       1.90795011       1.01522084
H        0.54435618       1.66158412      -0.33356280
H       -1.19465891       0.49152077      -1.60374286
H       -2.54878626       0.61187375      -0.44600098
15
Frame=2 idx=007218 GeodesicLength=0.19685604126903547 rxn_smarts="[O:1]([C:2]([C@@:3]1([H:11])[C:4]([H:12])([H:13])[C:5]([H:14])([H:15])[C:6]1=[O:7])([H:9])[H:10])[H:8]>>[C:3]1([H:11])=[C:4]([H:12])[C:5]([H:14])([H:15])[C:6]1=[O:7].[H:8][H:13].[O:1]=[C:2]([H:9])[H:10]"
O        2.17817646       0.18509891      -0.69519917
C        1.70868378      -0.84606910      -0.16629602
C       -0.14624609      -0.25266159       0.98439186
C       -0.55806019       0.98355712       0.46938301
C       -1.51720196       0.36963699      -0.55102932
C       -1.10113910      -0.96497372       0.10617280
O       -1.45157153      -2.10094659      -0.03126943
H        1.27157666       1.26125084      -0.68385123
H        2.14497355      -1.23430169       0.76193816
H        1.17881633      -1.57861155      -0.78728692
H        0.25262627      -0.49493543       1.95978292
H       -0.68778487       1.91586185       1.00533909
H        0.54936802       1.66176815      -0.36073443
H       -1.24824849       0.49418953      -1.60104942
H       -2.57396884       0.60113627      -0.41029191
15
Frame=3 idx=007218 GeodesicLength=0.29191785700781653 rxn_smarts="[O:1]([C:2]([C@@:3]1([H:11])[C:4]([H:12])([H:13])[C:5]([H:14])([H:15])[C:6]1=[O:7])([H:9])[H:10])[H:8]>>[C:3]1([H:11])=[C:4]([H:12])[C:5]([H:14])([H:15])[C:6]1=[O:7].[H:8][H:13].[O:1]=[C:2]([H:9])[H:10]"
O        2.21867576       0.19095075      -0.62474326
C        1.71394326      -0.85416264      -0.14971378
C       -0.14121568      -0.24068388       0.97460133
C       -0.56390507       0.99402949       0.45565796
C       -1.54221629       0.37031400      -0.54071879
C       -1.10014401      -0.96068653       0.10491193
O       -1.42132479      -2.10399178      -0.04259819
H        1.30070162       1.25508636      -0.70903202
H        2.13033284      -1.30105828       0.76172148
H        1.19922038      -1.55132858      -0.82328310
H        0.24843608      -0.46987381       1.95701995
H       -0.69894110       1.92353677       0.99566781
H        0.55545224       1.66038112      -0.38787597
H       -1.30124510       0.49689607      -1.59725808
H       -2.59777015       0.59059094      -0.37435727
15
Frame=4 idx=007218 GeodesicLength=0.38517357898209204 rxn_smarts="[O:1]([C:2]([C@@:3]1([H:11])[C:4]([H:12])([H:13])[C:5]([H:14])([H:15])[C:6]1=[O:7])([H:9])[H:10])[H:8]>>[C:3]1([H:11])=[C:4]([H:12])[C:5]([H:14])([H:15])[C:6]1=[O:7].[H:8][H:13].[O:1]=[C:2]([H:9])[H:10]"
O        2.25181880       0.19472620      -0.55780125
C        1.71834665      -0.86244734      -0.13394564
C       -0.13677448      -0.22897315       0.96484720
C       -0.56990369       1.00432989       0.44197604
C       -1.56657211       0.37105511      -0.53023345
C       -1.09935449      -0.95632556       0.10314710
O       -1.39110397      -2.10592514      -0.05583880
H        1.33310134       1.24811849      -0.73113453
H        2.11582285      -1.36121605       0.75932392
H        1.22174925      -1.52593657      -0.85468351
H        0.24424430      -0.44573614       1.95358733
H       -0.71020004       1.93077858       0.98640906
H        0.56235784       1.65768898      -0.41466071
H       -1.35337000       0.49953436      -1.59244646
H       -2.62016225       0.58032836      -0.33854630
15
Frame=5 idx=007218 GeodesicLength=0.47732024840560705 rxn_smarts="[O:1]([C:2]([C@@:3]1([H:11])[C:4]([H:12])([H:13])[C:5]([H:14])([H:15])[C:6]1=[O:7])([H:9])[H:10])[H:8]>>[C:3]1([H:11])=[C:4]([H:12])[C:5]([H:14])([H:15])[C:6]1=[O:7].[H:8][H:13].[O:1]=[C:2]([H:9])[H:10]"
O        2.27886851       0.19657356      -0.49464419
C        1.72195206      -0.87092312      -0.11886082
C       -0.13278875      -0.21747001       0.95500379
C       -0.57609748       1.01451367       0.42825836
C       -1.59044680       0.37181267      -0.51958673
C       -1.09881973      -0.95189610       0.10096080
O       -1.36099096      -2.10671327      -0.07074490
H        1.36867396       1.24077581      -0.75004478
H        2.10163492      -1.41568596       0.75518813
H        1.24611273      -1.50250572      -0.88192121
H        0.24005905      -0.42230426       1.94950595
H       -0.72173731       1.93756137       0.97755830
H        0.56986235       1.65399591      -0.44113842
H       -1.40491692       0.50203310      -1.58671304
H       -2.64136561       0.57023235      -0.30282124
15
Frame=6 idx=007218 GeodesicLength=0.5689049111343718 rxn_smarts="[O:1]([C:2]([C@@:3]1([H:11])[C:4]([H:12])([H:13])[C:5]([H:14])([H:15])[C:6]1=[O:7])([H:9])[H:10])[H:8]>>[C:3]1([H:11])=[C:4]([H:12])[C:5]([H:14])([H:15])[C:6]1=[O:7].[H:8][H:13].[O:1]=[C:2]([H:9])[H:10]"
O        2.30172327       0.19703408      -0.43387046
C        1.72481575      -0.87949787      -0.10436923
C       -0.12917803      -0.20605873       0.94499607
C       -0.58251984       1.02458654       0.41429769
C       -1.61407629       0.37247187      -0.50865737
C       -1.09858670      -0.94744908       0.09852232
O       -1.33107961      -2.10641024      -0.08696350
H        1.40713343       1.23337824      -0.76646063
H        2.08757914      -1.46606991       0.74960311
H        1.27208850      -1.48025768      -0.90620409
H        0.23577253      -0.39928809       1.94485114
H       -0.73350340       1.94396684       0.96882285
H        0.57775806       1.64921890      -0.46773869
H       -1.45635496       0.50416946      -1.57999454
H       -2.66157184       0.56020566      -0.26683466
15
Frame=7 idx=007218 GeodesicLength=0.6601230379403074 rxn_smarts="[O:1]([C:2]([C@@:3]1([H:11])[C:4]([H:12])([H:13])[C:5]([H:14])([H:15])[C:6]1=[O:7])([H:9])[H:10])[H:8]>>[C:3]1([H:11])=[C:4]([H:12])[C:5]([H:14])([H:15])[C:6]1=[O:7].[H:8][H:13].[O:1]=[C:2]([H:9])[H:10]"
O        2.32110294       0.19630732      -0.37515417
C        1.72700794      -0.88810838      -0.09041539
C       -0.12589654      -0.19470168       0.93475403
C       -0.58919472       1.03455995       0.39999982
C       -1.63758606       0.37300358      -0.49739951
C       -1.09866557      -0.94300304       0.09585223
O       -1.30144158      -2.10501397      -0.10440077
H        1.44837530       1.22610007      -0.78052855
H        2.07368273      -1.51300983       0.74280001
H        1.29959740      -1.45902628      -0.92790273
H        0.23134427      -0.37657260       1.93962755
H       -0.74546652       1.95002559       0.96009272
H        0.58596165       1.64333982      -0.49462818
H       -1.50793659       0.50589929      -1.57226811
H       -2.68088464       0.55020016      -0.23042896
15
Frame=8 idx=007218 GeodesicLength=0.7511408986505186 rxn_smarts="[O:1]([C:2]([C@@:3]1([H:11])[C:4]([H:12])([H:13])[C:5]([H:14])([H:15])[C:6]1=[O:7])([H:9])[H:10])[H:8]>>[C:3]1([H:11])=[C:4]([H:12])[C:5]([H:14])([H:15])[C:6]1=[O:7].[H:8][H:13].[O:1]=[C:2]([H:9])[H:10]"
O        2.33744845       0.19456663      -0.31833088
C        1.72857928      -0.89670595      -0.07696589
C       -0.12292475      -0.18338194       0.92420904
C       -0.59614033       1.04444193       0.38529374
C       -1.66107226       0.37340049      -0.48577031
C       -1.09906607      -0.93856640       0.09292491
O       -1.27215279      -2.10248724      -0.12306172
H        1.49233959       1.21897279      -0.79229171
H        2.06007960      -1.55685494       0.73498137
H        1.32858615      -1.43877872      -0.94720730
H        0.22672045      -0.35409862       1.93382077
H       -0.75757744       1.95575722       0.95128381
H        0.59442651       1.63632758      -0.52192566
H       -1.55987713       0.50722105      -1.56349618
H       -2.69936927       0.54018611      -0.19346398
15
Frame=9 idx=007218 GeodesicLength=0.8423079549611051 rxn_smarts="[O:1]([C:2]([C@@:3]1([H:11])[C:4]([H:12])([H:13])[C:5]([H:14])([H:15])[C:6]1=[O:7])([H:9])[H:10])[H:8]>>[C:3]1([H:11])=[C:4]([H:12])[C:5]([H:14])([H:15])[C:6]1=[O:7].[H:8][H:13].[O:1]=[C:2]([H:9])[H:10]"
O        2.35128300       0.19188729      -0.26316102
C        1.72965825      -0.90532454      -0.06377650
C       -0.12019341      -0.17205574       0.91331156
C       -0.60333537       1.05428876       0.37011844
C       -1.68466728       0.37365666      -0.47368757
C       -1.09970771      -0.93412366       0.08968512
O       -1.24300941      -2.09876694      -0.14314852
H        1.53882315       1.21181643      -0.80211629
H        2.04652036      -1.59814591       0.72631670
H        1.35909563      -1.41914961      -0.96421310
H        0.22184790      -0.33176314       1.92745521
H       -0.76973872       1.96122911       0.94231408
H        0.60307394       1.62823179      -0.54975258
H       -1.61252359       0.50820230      -1.55360683
H       -2.71712673       0.53001718      -0.15573869
15
Frame=10 idx=007218 GeodesicLength=0.9333291308268418 rxn_smarts="[O:1]([C:2]([C@@:3]1([H:11])[C:4]([H:12])([H:13])[C:5]([H:14])([H:15])[C:6]1=[O:7])([H:9])[H:10])[H:8]>>[C:3]1([H:11])=[C:4]([H:12])[C:5]([H:14])([H:15])[C:6]1=[O:7].[H:8][H:13].[O:1]=[C:2]([H:9])[H:10]"
O        2.36269502       0.18851815      -0.20958581
C        1.73017924      -0.91384988      -0.05104614
C       -0.11775774      -0.16075137       0.90200999
C       -0.61085665       1.06402994       0.35442251
C       -1.70832108       0.37376407      -0.46114670
C       -1.10068162      -0.92970361       0.08614220
O       -1.21439178      -2.09387229      -0.16449403
H        1.58784957       1.20478789      -0.80977213
H        2.03340658      -1.63680392       0.71684630
H        1.39101551      -1.40041659      -0.97905636
H        0.21669179      -0.30960036       1.92047050
H       -0.78196329       1.96641089       0.93310237
H        0.61191930       1.61890185      -0.57810668
H       -1.66575689       0.50874167      -1.54251927
H       -2.73402795       0.51984355      -0.11726676
15
Frame=11 idx=007218 GeodesicLength=1.0243668617738544 rxn_smarts="[O:1]([C:2]([C@@:3]1([H:11])[C:4]([H:12])([H:13])[C:5]([H:14])([H:15])[C:6]1=[O:7])([H:9])[H:10])[H:8]>>[C:3]1([H:11])=[C:4]([H:12])[C:5]([H:14])([H:15])[C:6]1=[O:7].[H:8][H:13].[O:1]=[C:2]([H:9])[H:10]"
O        2.37191034       0.18457922      -0.15749540
C        1.73019487      -0.92224200      -0.03875375
C       -0.11560337      -0.14945902       0.89024882
C       -0.61873031       1.07366241       0.33815227
C       -1.73207816       0.37371400      -0.44811515
C       -1.10197940      -0.92531551       0.08226652
O       -1.18634157      -2.08774696      -0.18711898
H        1.63939673       1.19777788      -0.81526526
H        2.02080388      -1.67307124       0.70676775
H        1.42428745      -1.38247798      -0.99192171
H        0.21122907      -0.28757196       1.91283387
H       -0.79420803       1.97132909       0.92356835
H        0.62090282       1.60835501      -0.60704266
H       -1.71969801       0.50884098      -1.53016822
H       -2.75008632       0.50962608      -0.07795645
15
Frame=12 idx=007218 GeodesicLength=1.1153330021402967 rxn_smarts="[O:1]([C:2]([C@@:3]1([H:11])[C:4]([H:12])([H:13])[C:5]([H:14])([H:15])[C:6]1=[O:7])([H:9])[H:10])[H:8]>>[C:3]1([H:11])=[C:4]([H:12])[C:5]([H:14])([H:15])[C:6]1=[O:7].[H:8][H:13].[O:1]=[C:2]([H:9])[H:10]"
O        2.37906174       0.18018163      -0.10686641
C        1.72972075      -0.93046672      -0.02691881
C       -0.11372380      -0.13817961       0.87799062
C       -0.62698515       1.08318220       0.32128655
C       -1.75593530       0.37350582      -0.43457763
C       -1.10360782      -0.92095900       0.07803860
O       -1.15894433      -2.08037290      -0.21105064
H        1.69335732       1.19068479      -0.81863736
H        2.00884119      -1.70704382       0.69619699
H        1.45881848      -1.36534390      -1.00285746
H        0.20545105      -0.26566952       1.90452085
H       -0.80645653       1.97599644       0.91367299
H        0.62999655       1.59662182      -0.63650435
H       -1.77433798       0.50849682      -1.51649715
H       -2.76525619       0.49936596      -0.03779681
15
Frame=13 idx=007218 GeodesicLength=1.2062674498531967 rxn_smarts="[O:1]([C:2]([C@@:3]1([H:11])[C:4]([H:12])([H:13])[C:5]([H:14])([H:15])[C:6]1=[O:7])([H:9])[H:10])[H:8]>>[C:3]1([H:11])=[C:4]([H:12])[C:5]([H:14])([H:15])[C:6]1=[O:7].[H:8][H:13].[O:1]=[C:2]([H:9])[H:10]"
O        2.38426353       0.17544074      -0.05767828
C        1.72877523      -0.93849755      -0.01553510
C       -0.11210958      -0.12690582       0.86521283
C       -0.63566495       1.09258039       0.30383407
C       -1.77985149       0.37313125      -0.42052877
C       -1.10556438      -0.91663922       0.07345672
O       -1.13226523      -2.07173811      -0.23628747
H        1.74967207       1.18332040      -0.82005216
H        1.99756319      -1.73884428       0.68520795
H        1.49452034      -1.34897623      -1.01191909
H        0.19935586      -0.24387227       1.89552046
H       -0.81873767       1.98041348       0.90340944
H        0.63914506       1.58384063      -0.66636089
H       -1.82963046       0.50768545      -1.50145152
H       -2.77947151       0.48906116       0.00317181
15
Frame=14 idx=007218 GeodesicLength=1.297054715382687 rxn_smarts="[O:1]([C:2]([C@@:3]1([H:11])[C:4]([H:12])([H:13])[C:5]([H:14])([H:15])[C:6]1=[O:7])([H:9])[H:10])[H:8]>>[C:3]1([H:11])=[C:4]([H:12])[C:5]([H:14])([H:15])[C:6]1=[O:7].[H:8][H:13].[O:1]=[C:2]([H:9])[H:10]"
O        2.38761270       0.17046657      -0.00992290
C        1.72737652      -0.94631696      -0.00461236
C       -0.11075082      -0.11563859       0.85188324
C       -0.64481801       1.10185645       0.28581178
C       -1.80381378       0.37259361      -0.40595733
C       -1.10784049      -0.91235302       0.06848623
O       -1.10637462      -2.06178944      -0.26288036
H        1.80826536       1.17548268      -0.81966884
H        1.98706953      -1.76853896       0.67393301
H        1.53133660      -1.33339858      -1.01911070
H        0.19293501      -0.22219788       1.88580678
H       -0.83105797       1.98459148       0.89278639
H        0.64827106       1.57012583      -0.69651680
H       -1.88553137       0.50642857      -1.48496801
H       -2.79267973       0.47868825       0.04492988
15
Frame=15 idx=007218 GeodesicLength=1.387586992422519 rxn_smarts="[O:1]([C:2]([C@@:3]1([H:11])[C:4]([H:12])([H:13])[C:5]([H:14])([H:15])[C:6]1=[O:7])([H:9])[H:10])[H:8]>>[C:3]1([H:11])=[C:4]([H:12])[C:5]([H:14])([H:15])[C:6]1=[O:7].[H:8][H:13].[O:1]=[C:2]([H:9])[H:10]"
O        2.38919225       0.16536266       0.03638467
C        1.72552162      -0.95390336       0.00581532
C       -0.10963587      -0.10437085       0.83798486
C       -0.65450676       1.11101128       0.26726140
C       -1.82777775       0.37187866      -0.39087085
C       -1.11043361      -0.90810203       0.06313335
O       -1.08135946      -2.05050988      -0.29079733
H        1.86914161       1.16698012      -0.81761385
H        1.97743179      -1.79622526       0.66244679
H        1.56915429      -1.31860977      -1.02446922
H        0.18620776      -0.20064271       1.87536728
H       -0.84347001       1.98853603       0.88183292
H        0.65727547       1.55566707      -0.72685012
H       -1.94192429       0.50469439      -1.46700757
H       -2.80481706       0.46823364       0.08738235
15
Frame=16 idx=007218 GeodesicLength=1.4778522213283194 rxn_smarts="[O:1]([C:2]([C@@:3]1([H:11])[C:4]([H:12])([H:13])[C:5]([H:14])([H:15])[C:6]1=[O:7])([H:9])[H:10])[H:8]>>[C:3]1([H:11])=[C:4]([H:12])[C:5]([H:14])([H:15])[C:6]1=[O:7].[H:8][H:13].[O:1]=[C:2]([H:9])[H:10]"
O        2.38907027       0.16021948       0.08124387
C        1.72321510      -0.96124322       0.01572027
C       -0.10875269      -0.09308828       0.82348971
C       -0.66480004       1.12005115       0.24822572
C       -1.85171895       0.37096846      -0.37526533
C       -1.11333192      -0.90388909       0.05738584
O       -1.05728229      -2.03786066      -0.32004593
H        1.93246109       1.15759239      -0.81399316
H        1.96868438      -1.82198703       0.65082801
H        1.60789067      -1.30458769      -1.02800372
H        0.17918021      -0.17920191       1.86417971
H       -0.85602331       1.99225914       0.87057514
H        0.66601281       1.54065883      -0.75730309
H       -1.99876805       0.50245736      -1.44750986
H       -2.81583727       0.45765108       0.13047283
