14
Frame=0 idx=010946 GeodesicLength=0.0 rxn_smarts="[C:1]([c:2]1[c:3]([N:4]([H:11])[H:12])[c:5]([H:13])[c:6]([H:14])[o:7]1)([H:8])([H:9])[H:10]>>[C:1]([C:2]1=[C:3]([N:4]([H:11])[H:12])[C:5]([H:13])([H:14])[C-:6]=[O+:7]1)([H:8])([H:9])[H:10]"
C       -1.66648373      -1.04928119       0.16957205
C       -0.25723543      -0.59039191       0.17907143
C        0.32028285       0.59362248      -0.10674477
N       -0.24546487       1.77612116      -0.59606095
C        1.73360502       0.36061448       0.09549019
C        1.94763566      -0.97402519       0.55619668
O        0.69040477      -1.51991293       0.50216816
H       -2.34945708      -0.20824491       0.04660219
H       -1.84702044      -1.75679850      -0.64243768
H       -1.90631356      -1.55122990       1.10820605
H        0.07464454       2.60147301      -0.11321081
H       -1.25328218       1.76079381      -0.61727616
H        2.51837247       1.10579948       0.08574315
H        2.24031204      -0.54853989      -0.66731951
14
Frame=1 idx=010946 GeodesicLength=0.0397531705250849 rxn_smarts="[C:1]([c:2]1[c:3]([N:4]([H:11])[H:12])[c:5]([H:13])[c:6]([H:14])[o:7]1)([H:8])([H:9])[H:10]>>[C:1]([C:2]1=[C:3]([N:4]([H:11])[H:12])[C:5]([H:13])([H:14])[C-:6]=[O+:7]1)([H:8])([H:9])[H:10]"
C       -1.66856345      -1.05001352       0.17041263
C       -0.25956056      -0.59056704       0.17418796
C        0.31920382       0.59132818      -0.11637312
N       -0.24845854       1.77611055      -0.59680023
C        1.73373189       0.36075856       0.08607045
C        1.94233877      -0.97081592       0.55624100
O        0.69008397      -1.52023136       0.49950419
H       -2.35175765      -0.20935235       0.04599823
H       -1.85131638      -1.76049212      -0.63856714
H       -1.90696883      -1.54827827       1.11144796
H        0.08058390       2.60042030      -0.11831189
H       -1.25651874       1.76520256      -0.60531001
H        2.51331380       1.11129907       0.10100477
H        2.26388799      -0.55536863      -0.66950479
14
Frame=2 idx=010946 GeodesicLength=0.07950333427523161 rxn_smarts="[C:1]([c:2]1[c:3]([N:4]([H:11])[H:12])[c:5]([H:13])[c:6]([H:14])[o:7]1)([H:8])([H:9])[H:10]>>[C:1]([C:2]1=[C:3]([N:4]([H:11])[H:12])[C:5]([H:13])([H:14])[C-:6]=[O+:7]1)([H:8])([H:9])[H:10]"
C       -1.67065567      -1.05066870       0.17134243
C       -0.26190659      -0.59070772       0.16929912
C        0.31811357       0.58903309      -0.12606010
N       -0.25143439       1.77606831      -0.59756506
C        1.73390001       0.36088837       0.07647424
C        1.93703470      -0.96763826       0.55590786
O        0.68977125      -1.52058781       0.49655289
H       -2.35406116      -0.21035246       0.04564712
H       -1.85572171      -1.76399909      -0.63465324
H       -1.90753621      -1.54533884       1.11473439
H        0.08636070       2.59931421      -0.12348255
H       -1.25955738       1.76948918      -0.59346794
H        2.50765250       1.11660575       0.11643857
H        2.28804039      -0.56210602      -0.67116773
14
Frame=3 idx=010946 GeodesicLength=0.11924820562989441 rxn_smarts="[C:1]([c:2]1[c:3]([N:4]([H:11])[H:12])[c:5]([H:13])[c:6]([H:14])[o:7]1)([H:8])([H:9])[H:10]>>[C:1]([C:2]1=[C:3]([N:4]([H:11])[H:12])[C:5]([H:13])([H:14])[C-:6]=[O+:7]1)([H:8])([H:9])[H:10]"
C       -1.67275258      -1.05125602       0.17234054
C       -0.26427992      -0.59078054       0.16453510
C        0.31700348       0.58677559      -0.13565953
N       -0.25438640       1.77599527      -0.59832426
C        1.73411674       0.36100762       0.06671462
C        1.93174022      -0.96450147       0.55518963
O        0.68945979      -1.52095399       0.49343480
H       -2.35636959      -0.21126265       0.04552270
H       -1.86014478      -1.76728589      -0.63077572
H       -1.90806978      -1.54248527       1.11799651
H        0.09197561       2.59818646      -0.12873243
H       -1.26239780       1.77365326      -0.58175703
H        2.50142154       1.12166241       0.13183101
H        2.31268346      -0.56875478      -0.67231594
14
Frame=4 idx=010946 GeodesicLength=0.1589894975490294 rxn_smarts="[C:1]([c:2]1[c:3]([N:4]([H:11])[H:12])[c:5]([H:13])[c:6]([H:14])[o:7]1)([H:8])([H:9])[H:10]>>[C:1]([C:2]1=[C:3]([N:4]([H:11])[H:12])[C:5]([H:13])([H:14])[C-:6]=[O+:7]1)([H:8])([H:9])[H:10]"
C       -1.67484834      -1.05178445       0.17338735
C       -0.26668579      -0.59075533       0.16001907
C        0.31586495       0.58459179      -0.14502753
N       -0.25730749       1.77589632      -0.59904619
C        1.73438686       0.36111656       0.05681089
C        1.92647419      -0.96141755       0.55407869
O        0.68914294      -1.52130391       0.49027040
H       -2.35868516      -0.21209867       0.04559583
H       -1.86450025      -1.77032499      -0.62700874
H       -1.90862508      -1.53978432       1.12117233
H        0.09741719       2.59706690      -0.13405090
H       -1.26504088       1.77769467      -0.57020566
H        2.49467349       1.12642042       0.14697009
H        2.33773337      -0.57531745      -0.67296562
14
Frame=5 idx=010946 GeodesicLength=0.1987336493659571 rxn_smarts="[C:1]([c:2]1[c:3]([N:4]([H:11])[H:12])[c:5]([H:13])[c:6]([H:14])[o:7]1)([H:8])([H:9])[H:10]>>[C:1]([C:2]1=[C:3]([N:4]([H:11])[H:12])[C:5]([H:13])([H:14])[C-:6]=[O+:7]1)([H:8])([H:9])[H:10]"
C       -1.67694106      -1.05225986       0.17447401
C       -0.26912819      -0.59061161       0.15584600
C        0.31468780       0.58251393      -0.15403078
N       -0.26018549       1.77576976      -0.59971503
C        1.73470224       0.36122271       0.04680661
C        1.92125416      -0.95840907       0.55255859
O        0.68881628      -1.52162697       0.48713684
H       -2.36100991      -0.21286617       0.04586819
H       -1.86873440      -1.77308354      -0.62341367
H       -1.90924123      -1.53729992       1.12421670
H        0.10267116       2.59597683      -0.13943606
H       -1.26748322       1.78160341      -0.55887350
H        2.48746990       1.13083802       0.16169512
H        2.36312197      -0.58176751      -0.67313303
14
Frame=6 idx=010946 GeodesicLength=0.23848640515485486 rxn_smarts="[C:1]([c:2]1[c:3]([N:4]([H:11])[H:12])[c:5]([H:13])[c:6]([H:14])[o:7]1)([H:8])([H:9])[H:10]>>[C:1]([C:2]1=[C:3]([N:4]([H:11])[H:12])[C:5]([H:13])([H:14])[C-:6]=[O+:7]1)([H:8])([H:9])[H:10]"
C       -1.67902772      -1.05269660       0.17556479
C       -0.27161330      -0.59031238       0.15216400
C        0.31345985       0.58057970      -0.16252764
N       -0.26301774       1.77563353      -0.60027298
C        1.73505920       0.36132625       0.03670126
C        1.91611153      -0.95548526       0.55063157
O        0.68847327      -1.52187892       0.48423615
H       -2.36335592      -0.21359375       0.04624480
H       -1.87272939      -1.77556707      -0.62007283
H       -1.91000757      -1.53508016       1.12706201
H        0.10772103       2.59494408      -0.14482568
H       -1.26973464       1.78539049      -0.54776923
H        2.47991779       1.13487277       0.17572743
H        2.38874361      -0.58813267      -0.67286365
14
Frame=7 idx=010946 GeodesicLength=0.2782546738785125 rxn_smarts="[C:1]([c:2]1[c:3]([N:4]([H:11])[H:12])[c:5]([H:13])[c:6]([H:14])[o:7]1)([H:8])([H:9])[H:10]>>[C:1]([C:2]1=[C:3]([N:4]([H:11])[H:12])[C:5]([H:13])([H:14])[C-:6]=[O+:7]1)([H:8])([H:9])[H:10]"
C       -1.68111129      -1.05311568       0.17659650
C       -0.27414683      -0.58981329       0.14915648
C        0.31215805       0.57883484      -0.17036931
N       -0.26581739       1.77551792      -0.60062914
C        1.73544248       0.36143152       0.02646074
C        1.91111128      -0.95266389       0.54832730
O        0.68812897      -1.52200852       0.48188047
H       -2.36576864      -0.21431984       0.04653406
H       -1.87631203      -1.77782371      -0.61710100
H       -1.91106170      -1.53315213       1.12963868
H        0.11256858       2.59400517      -0.15014579
H       -1.27181830       1.78909022      -0.53681346
H        2.47216807       1.13848220       0.18869326
H        2.41445876      -0.59446481      -0.67222881
14
Frame=8 idx=010946 GeodesicLength=0.3175452598649461 rxn_smarts="[C:1]([c:2]1[c:3]([N:4]([H:11])[H:12])[c:5]([H:13])[c:6]([H:14])[o:7]1)([H:8])([H:9])[H:10]>>[C:1]([C:2]1=[C:3]([N:4]([H:11])[H:12])[C:5]([H:13])([H:14])[C-:6]=[O+:7]1)([H:8])([H:9])[H:10]"
C       -1.68314216      -1.05352159       0.17762424
C       -0.27672505      -0.58906072       0.14692773
C        0.31083343       0.57727143      -0.17753178
N       -0.26853204       1.77542781      -0.60083067
C        1.73593597       0.36141406       0.01601501
C        1.90616833      -0.94977882       0.54555393
O        0.68771313      -1.52188803       0.47991078
H       -2.36809916      -0.21509027       0.04692395
H       -1.87947272      -1.77972016      -0.61445239
H       -1.91235010      -1.53165152       1.13185140
H        0.11714838       2.59314665      -0.15528431
H       -1.27373231       1.79265526      -0.52629983
H        2.46421001       1.14177723       0.20078984
H        2.44004429      -0.60098133      -0.67119790
14
Frame=9 idx=010946 GeodesicLength=0.35679943057624336 rxn_smarts="[C:1]([c:2]1[c:3]([N:4]([H:11])[H:12])[c:5]([H:13])[c:6]([H:14])[o:7]1)([H:8])([H:9])[H:10]>>[C:1]([C:2]1=[C:3]([N:4]([H:11])[H:12])[C:5]([H:13])([H:14])[C-:6]=[O+:7]1)([H:8])([H:9])[H:10]"
C       -1.68518213      -1.05391016       0.17861357
C       -0.27934947      -0.58812714       0.14531361
C        0.30943211       0.57588042      -0.18404758
N       -0.27120820       1.77536001      -0.60085907
C        1.73643126       0.36138001       0.00550682
C        1.90136913      -0.94700758       0.54237670
O        0.68729072      -1.52165814       0.47837971
H       -2.37049341      -0.21585881       0.04728839
H       -1.88229456      -1.78138484      -0.61213666
H       -1.91390087      -1.53044033       1.13382057
H        0.12150946       2.59237115      -0.16031426
H       -1.27550998       1.79613828      -0.51603781
H        2.45615538       1.14468865       0.21184550
H        2.46575054      -0.60743151      -0.66974952
14
Frame=10 idx=010946 GeodesicLength=0.3961208705930953 rxn_smarts="[C:1]([c:2]1[c:3]([N:4]([H:11])[H:12])[c:5]([H:13])[c:6]([H:14])[o:7]1)([H:8])([H:9])[H:10]>>[C:1]([C:2]1=[C:3]([N:4]([H:11])[H:12])[C:5]([H:13])([H:14])[C-:6]=[O+:7]1)([H:8])([H:9])[H:10]"
C       -1.68723910      -1.05428133       0.17957761
C       -0.28202384      -0.58705463       0.14416729
C        0.30796922       0.57461993      -0.19008873
N       -0.27386339       1.77532169      -0.60073287
C        1.73693582       0.36133500      -0.00507870
C        1.89665416      -0.94433550       0.53883522
O        0.68682579      -1.52136605       0.47715966
H       -2.37293100      -0.21661793       0.04761382
H       -1.88487522      -1.78288893      -0.61005343
H       -1.91566758      -1.52942814       1.13561745
H        0.12566954       2.59165265      -0.16520468
H       -1.27718141       1.79955950      -0.50596011
H        2.44801618       1.14725645       0.22197432
H        2.49171083      -0.61377271      -0.66782686
14
Frame=11 idx=010946 GeodesicLength=0.4356530981005925 rxn_smarts="[C:1]([c:2]1[c:3]([N:4]([H:11])[H:12])[c:5]([H:13])[c:6]([H:14])[o:7]1)([H:8])([H:9])[H:10]>>[C:1]([C:2]1=[C:3]([N:4]([H:11])[H:12])[C:5]([H:13])([H:14])[C-:6]=[O+:7]1)([H:8])([H:9])[H:10]"
C       -1.68932173      -1.05461648       0.18056631
C       -0.28474103      -0.58588990       0.14330339
C        0.30645694       0.57345401      -0.19579071
N       -0.27650534       1.77529629      -0.60052858
C        1.73744389       0.36129933      -0.01566730
C        1.89195724      -0.94184701       0.53488700
O        0.68633304      -1.52106455       0.47599676
H       -2.37540147      -0.21733329       0.04802711
H       -1.88737153      -1.78422578      -0.60809450
H       -1.91753961      -1.52855373       1.13733285
H        0.12964179       2.59096721      -0.17003157
H       -1.27876650       1.80291855      -0.49609639
H        2.43969230       1.14944780       0.23142343
H        2.51812201      -0.61985245      -0.66532780
14
Frame=12 idx=010946 GeodesicLength=0.4749093128221906 rxn_smarts="[C:1]([c:2]1[c:3]([N:4]([H:11])[H:12])[c:5]([H:13])[c:6]([H:14])[o:7]1)([H:8])([H:9])[H:10]>>[C:1]([C:2]1=[C:3]([N:4]([H:11])[H:12])[C:5]([H:13])([H:14])[C-:6]=[O+:7]1)([H:8])([H:9])[H:10]"
C       -1.69141514      -1.05493335       0.18156257
C       -0.28750407      -0.58456970       0.14295630
C        0.30487340       0.57241969      -0.20097930
N       -0.27910781       1.77529077      -0.60021732
C        1.73793084       0.36121006      -0.02635022
C        1.88738136      -0.93944626       0.53048405
O        0.68581434      -1.52067716       0.47508028
H       -2.37789796      -0.21802811       0.04856618
H       -1.88964761      -1.78529076      -0.60641364
H       -1.91959627      -1.52799721       1.13884217
H        0.13338901       2.59033719      -0.17472895
H       -1.28024963       1.80619101      -0.48658156
H        2.43137330       1.15135842       0.24004351
H        2.54465624      -0.62586460      -0.66226407
14
Frame=13 idx=010946 GeodesicLength=0.5142022603364337 rxn_smarts="[C:1]([c:2]1[c:3]([N:4]([H:11])[H:12])[c:5]([H:13])[c:6]([H:14])[o:7]1)([H:8])([H:9])[H:10]>>[C:1]([C:2]1=[C:3]([N:4]([H:11])[H:12])[C:5]([H:13])([H:14])[C-:6]=[O+:7]1)([H:8])([H:9])[H:10]"
C       -1.69354292      -1.05521206       0.18262434
C       -0.29031405      -0.58315814       0.14294686
C        0.30323006       0.57148547      -0.20574827
N       -0.28168328       1.77526592      -0.59990803
C        1.73839446       0.36111072      -0.03699813
C        1.88286204      -0.93723961       0.52560291
O        0.68526546      -1.52032192       0.47412917
H       -2.38042490      -0.21863906       0.04942004
H       -1.89189850      -1.78604537      -0.60493632
H       -1.92173007      -1.52774239       1.14024001
H        0.13694739       2.58974268      -0.17947404
H       -1.28165869       1.80937513      -0.47743384
H        2.42297423       1.15295847       0.24810840
H        2.57157877      -0.63157983      -0.65857312
14
Frame=14 idx=010946 GeodesicLength=0.5534925906921381 rxn_smarts="[C:1]([c:2]1[c:3]([N:4]([H:11])[H:12])[c:5]([H:13])[c:6]([H:14])[o:7]1)([H:8])([H:9])[H:10]>>[C:1]([C:2]1=[C:3]([N:4]([H:11])[H:12])[C:5]([H:13])([H:14])[C-:6]=[O+:7]1)([H:8])([H:9])[H:10]"
C       -1.69570763      -1.05545471       0.18374847
C       -0.29317019      -0.58167443       0.14318603
C        0.30152757       0.57061995      -0.21022576
N       -0.28425047       1.77523008      -0.59959643
C        1.73882137       0.36099461      -0.04764735
C        1.87838633      -0.93521667       0.52023797
O        0.68468491      -1.52000465       0.47308321
H       -2.38298392      -0.21917465       0.05055365
H       -1.89416537      -1.78654290      -0.60360658
H       -1.92391502      -1.52772119       1.14156382
H        0.14034959       2.58916977      -0.18426170
H       -1.28300544       1.81249917      -0.46854086
H        2.41448424       1.15426929       0.25564981
H        2.59894405      -0.63699368      -0.65414429
14
Frame=15 idx=010946 GeodesicLength=0.5927757220953174 rxn_smarts="[C:1]([c:2]1[c:3]([N:4]([H:11])[H:12])[c:5]([H:13])[c:6]([H:14])[o:7]1)([H:8])([H:9])[H:10]>>[C:1]([C:2]1=[C:3]([N:4]([H:11])[H:12])[C:5]([H:13])([H:14])[C-:6]=[O+:7]1)([H:8])([H:9])[H:10]"
C       -1.69791846      -1.05565903       0.18495419
C       -0.29607464      -0.58014303       0.14359583
C        0.29976216       0.56979904      -0.21449182
N       -0.28682786       1.77516775      -0.59932209
C        1.73919774       0.36086634      -0.05828838
C        1.87394045      -0.93339848       0.51436088
O        0.68407200      -1.51976595       0.47181102
H       -2.38557848      -0.21962148       0.05203025
H       -1.89652435      -1.78677829      -0.60239105
H       -1.92610590      -1.52792786       1.14284728
H        0.14364358       2.58860834      -0.18921033
H       -1.28429517       1.81558387      -0.45981461
H        2.40587944       1.15529984       0.26278789
H        2.62682950      -0.64203105      -0.64886905
14
Frame=16 idx=010946 GeodesicLength=0.6320542814935447 rxn_smarts="[C:1]([c:2]1[c:3]([N:4]([H:11])[H:12])[c:5]([H:13])[c:6]([H:14])[o:7]1)([H:8])([H:9])[H:10]>>[C:1]([C:2]1=[C:3]([N:4]([H:11])[H:12])[C:5]([H:13])([H:14])[C-:6]=[O+:7]1)([H:8])([H:9])[H:10]"
C       -1.70019012      -1.05579182       0.18632106
C       -0.29901998      -0.57861880       0.14399392
C        0.29794903       0.56897348      -0.21870089
N       -0.28939928       1.77504567      -0.59919558
C        1.73952199       0.36074152      -0.06884209
C        1.86949835      -0.93184819       0.50787954
O        0.68343608      -1.51971651       0.46996121
H       -2.38819761      -0.21989971       0.05408890
H       -1.89918431      -1.78668096      -0.60119633
H       -1.92816328      -1.52834589       1.14419863
H        0.14681422       2.58801321      -0.19437303
H       -1.28552264       1.81858830      -0.45141100
H        2.39706067       1.15606254       0.26985216
H        2.65539687      -0.64652285      -0.64257650
