14
Frame=0 idx=006012 GeodesicLength=0.0 rxn_smarts="[C:1]([C@@:2]1([H:10])[C@:3]([O:4][H:12])([H:11])[C@:5]1([O:6][H:14])[H:13])([H:7])([H:8])[H:9]>>[C:1]([C@@:2]1([H:10])[C:3](=[O:4])[C@:5]1([O:6][H:14])[H:13])([H:7])([H:8])[H:9].[H:11][H:12]"
C        1.66657519      -0.28319714      -0.27453896
C        0.45245909      -0.17091053       0.60418810
C       -0.65002623       0.72666823       0.16418441
O       -0.74747191       1.47908418      -0.90753579
C       -0.94188928      -0.72644086       0.20556001
O       -1.18082374      -1.27283723      -1.03533582
H        2.09150216      -1.28617670      -0.21587756
H        1.41194232      -0.07830517      -1.31336181
H        2.42913039       0.43506354       0.02973531
H        0.61468296      -0.27397035       1.67215503
H       -1.17886664       1.34143120       1.25339159
H       -1.21543655       1.83074351       0.46066540
H       -1.49845902      -1.19321432       1.00914585
H       -1.25331875      -0.52793842      -1.65237582
14
Frame=1 idx=006012 GeodesicLength=0.09872862668180145 rxn_smarts="[C:1]([C@@:2]1([H:10])[C@:3]([O:4][H:12])([H:11])[C@:5]1([O:6][H:14])[H:13])([H:7])([H:8])[H:9]>>[C:1]([C@@:2]1([H:10])[C:3](=[O:4])[C@:5]1([O:6][H:14])[H:13])([H:7])([H:8])[H:9].[H:11][H:12]"
C        1.66690440      -0.28490888      -0.27483487
C        0.45159628      -0.17585962       0.60308531
C       -0.65273728       0.72187709       0.16789665
O       -0.75073913       1.48241287      -0.89716283
C       -0.94016056      -0.73210643       0.20035455
O       -1.16941671      -1.28112577      -1.04206570
H        2.09938566      -1.28419124      -0.20885424
H        1.41114272      -0.09033087      -1.31538990
H        2.42393812       0.44135677       0.02442976
H        0.61450375      -0.28047704       1.67084882
H       -1.17813000       1.36013696       1.26416212
H       -1.21512790       1.86124262       0.46436948
H       -1.50007367      -1.19984240       1.00125599
H       -1.26108568      -0.53818406      -1.65809515
14
Frame=2 idx=006012 GeodesicLength=0.19735794882886087 rxn_smarts="[C:1]([C@@:2]1([H:10])[C@:3]([O:4][H:12])([H:11])[C@:5]1([O:6][H:14])[H:13])([H:7])([H:8])[H:9]>>[C:1]([C@@:2]1([H:10])[C:3](=[O:4])[C@:5]1([O:6][H:14])[H:13])([H:7])([H:8])[H:9].[H:11][H:12]"
C        1.66716085      -0.28653446      -0.27511611
C        0.45063924      -0.18102956       0.60199933
C       -0.65566008       0.71671891       0.17172849
O       -0.75439803       1.48557878      -0.88640339
C       -0.93843450      -0.73810679       0.19505589
O       -1.15797845      -1.28952325      -1.04891423
H        2.10728071      -1.28197361      -0.20200304
H        1.41037161      -0.10211501      -1.31729515
H        2.41852410       0.44768842       0.01924204
H        0.61420760      -0.28723731       1.66955842
H       -1.17699453       1.37948627       1.27489232
H       -1.21426096       1.89289291       0.46794104
H       -1.50172038      -1.20685920       0.99319918
H       -1.26873717      -0.54898611      -1.66388480
14
Frame=3 idx=006012 GeodesicLength=0.2959484730175349 rxn_smarts="[C:1]([C@@:2]1([H:10])[C@:3]([O:4][H:12])([H:11])[C@:5]1([O:6][H:14])[H:13])([H:7])([H:8])[H:9]>>[C:1]([C@@:2]1([H:10])[C:3](=[O:4])[C@:5]1([O:6][H:14])[H:13])([H:7])([H:8])[H:9].[H:11][H:12]"
C        1.66733588      -0.28806570      -0.27537778
C        0.44957993      -0.18644246       0.60093561
C       -0.65881613       0.71115533       0.17569777
O       -0.75849131       1.48857505      -0.87520602
C       -0.93671033      -0.74447701       0.18966201
O       -1.14649976      -1.29804645      -1.05589283
H        2.11519131      -1.27951165      -0.19533009
H        1.40962081      -0.11363764      -1.31907633
H        2.41286602       0.45407521       0.01419104
H        0.61378765      -0.29427551       1.66828788
H       -1.17542709       1.39952973       1.28554007
H       -1.21276945       1.92579449       0.47135128
H       -1.50339032      -1.21431928       0.98496582
H       -1.27627721      -0.56035412      -1.66974841
14
Frame=4 idx=006012 GeodesicLength=0.3945573539493159 rxn_smarts="[C:1]([C@@:2]1([H:10])[C@:3]([O:4][H:12])([H:11])[C@:5]1([O:6][H:14])[H:13])([H:7])([H:8])[H:9]>>[C:1]([C@@:2]1([H:10])[C:3](=[O:4])[C@:5]1([O:6][H:14])[H:13])([H:7])([H:8])[H:9].[H:11][H:12]"
C        1.66741576      -0.28949006      -0.27561267
C        0.44840783      -0.19212373       0.59990202
C       -0.66223376       0.70514058       0.17982907
O       -0.76307322       1.49138907      -0.86350362
C       -0.93498714      -0.75126031       0.18417027
O       -1.13497019      -1.30671293      -1.06301700
H        2.12311785      -1.27678627      -0.18884338
H        1.40887619      -0.12486995      -1.32072939
H        2.40693547       0.46053578       0.00930115
H        0.61323725      -0.30162300       1.66704230
H       -1.17338189       1.42033156       1.29605417
H       -1.21056398       1.96006042       0.47455308
H       -1.50507197      -1.22229215       0.97654378
H       -1.28370819      -0.57229901      -1.67568978
14
Frame=5 idx=006012 GeodesicLength=0.4932242667953962 rxn_smarts="[C:1]([C@@:2]1([H:10])[C@:3]([O:4][H:12])([H:11])[C@:5]1([O:6][H:14])[H:13])([H:7])([H:8])[H:9]>>[C:1]([C@@:2]1([H:10])[C:3](=[O:4])[C@:5]1([O:6][H:14])[H:13])([H:7])([H:8])[H:9].[H:11][H:12]"
C        1.66738877      -0.29079478      -0.27581379
C        0.44711266      -0.19810083       0.59890719
C       -0.66594119       0.69862691       0.18414868
O       -0.76819618       1.49401239      -0.85122723
C       -0.93326390      -0.75850037       0.17857862
O       -1.12337842      -1.31553777      -1.07030309
H        2.13106545      -1.27377945      -0.18255261
H        1.40812573      -0.13578257      -1.32225087
H        2.40070652       0.46709047       0.00459522
H        0.61254743      -0.30931267       1.66583015
H       -1.17081620       1.44195846       1.30637769
H       -1.20755733       1.99579847       0.47749904
H       -1.50675508      -1.23084814       0.96792150
H       -1.29103827      -0.58483012      -1.68171052
14
Frame=6 idx=006012 GeodesicLength=0.5919578393155066 rxn_smarts="[C:1]([C@@:2]1([H:10])[C@:3]([O:4][H:12])([H:11])[C@:5]1([O:6][H:14])[H:13])([H:7])([H:8])[H:9]>>[C:1]([C@@:2]1([H:10])[C:3](=[O:4])[C@:5]1([O:6][H:14])[H:13])([H:7])([H:8])[H:9].[H:11][H:12]"
C        1.66723569      -0.29196125      -0.27597045
C        0.44568064      -0.20440410       0.59796234
C       -0.66997611       0.69156162       0.18869626
O       -0.77392144       1.49642613      -0.83828973
C       -0.93154022      -0.76624778       0.17288523
O       -1.11171281      -1.32453270      -1.07777128
H        2.13903264      -1.27046355      -0.17646705
H        1.40734878      -0.14633510      -1.32363321
H        2.39413719       0.47376749       0.00010740
H        0.61171098      -0.31738826       1.66465842
H       -1.16766033       1.46448637       1.31644226
H       -1.20363466       2.03312070       0.48010751
H       -1.50842279      -1.24007623       0.95908261
H       -1.29827756      -0.59795335      -1.68781032
14
Frame=7 idx=006012 GeodesicLength=0.6907735395315199 rxn_smarts="[C:1]([C@@:2]1([H:10])[C@:3]([O:4][H:12])([H:11])[C@:5]1([O:6][H:14])[H:13])([H:7])([H:8])[H:9]>>[C:1]([C@@:2]1([H:10])[C:3](=[O:4])[C@:5]1([O:6][H:14])[H:13])([H:7])([H:8])[H:9].[H:11][H:12]"
C        1.66693973      -0.29297081      -0.27607202
C        0.44409635      -0.21106545       0.59707853
C       -0.67437896       0.68388996       0.19351118
O       -0.78031037       1.49861525      -0.82460054
C       -0.92981683      -0.77455249       0.16708689
O       -1.09996266      -1.33370838      -1.08544296
H        2.14702346      -1.26681109      -0.17059657
H        1.40652817      -0.15648698      -1.32486915
H        2.38718839       0.48059660      -0.00412944
H        0.61071518      -0.32589552       1.66353729
H       -1.16382824       1.48799702       1.32618398
H       -1.19869686       2.07213174       0.48229253
H       -1.51006105      -1.25006593       0.95001083
H       -1.30543631      -0.61167392      -1.69399055
14
Frame=8 idx=006012 GeodesicLength=0.7896675857041671 rxn_smarts="[C:1]([C@@:2]1([H:10])[C@:3]([O:4][H:12])([H:11])[C@:5]1([O:6][H:14])[H:13])([H:7])([H:8])[H:9]>>[C:1]([C@@:2]1([H:10])[C:3](=[O:4])[C@:5]1([O:6][H:14])[H:13])([H:7])([H:8])[H:9].[H:11][H:12]"
C        1.66647631      -0.29379882      -0.27610313
C        0.44234295      -0.21812365       0.59627335
C       -0.67919681       0.67554743       0.19865179
O       -0.78743637       1.50055953      -0.81004052
C       -0.92809268      -0.78347439       0.16118274
O       -1.08811362      -1.34306578      -1.09334604
H        2.15503650      -1.26278754      -0.16495445
H        1.40563784      -0.16618100      -1.32594761
H        2.37980879       0.48760999      -0.00807053
H        0.60955163      -0.33489666       1.66247959
H       -1.15920619       1.51259083       1.33551561
H       -1.19263014       2.11293644       0.48391892
H       -1.51164760      -1.26092964       0.94068640
H       -1.31253061      -0.62598675      -1.70024611
14
Frame=9 idx=006012 GeodesicLength=0.8882715312486842 rxn_smarts="[C:1]([C@@:2]1([H:10])[C@:3]([O:4][H:12])([H:11])[C@:5]1([O:6][H:14])[H:13])([H:7])([H:8])[H:9]>>[C:1]([C@@:2]1([H:10])[C:3](=[O:4])[C@:5]1([O:6][H:14])[H:13])([H:7])([H:8])[H:9].[H:11][H:12]"
C        1.66579404      -0.29439129      -0.27603033
C        0.44038867      -0.22559141       0.59557123
C       -0.68450758       0.66649647       0.20423944
O       -0.79535588       1.50216500      -0.79447195
C       -0.92637826      -0.79303287       0.15517105
O       -1.07617605      -1.35256164      -1.10149005
H        2.16303223      -1.25831515      -0.15954305
H        1.40460296      -0.17531968      -1.32681765
H        2.37193196       0.49485763      -0.01165529
H        0.60821006      -0.34446257       1.66149840
H       -1.15358380       1.53826950       1.34433132
H       -1.18523519       2.15551863       0.48469624
H       -1.51312911      -1.27279136       0.93106682
H       -1.31959404      -0.64084126      -1.70656617
14
Frame=10 idx=006012 GeodesicLength=0.9868944791543721 rxn_smarts="[C:1]([C@@:2]1([H:10])[C@:3]([O:4][H:12])([H:11])[C@:5]1([O:6][H:14])[H:13])([H:7])([H:8])[H:9]>>[C:1]([C@@:2]1([H:10])[C:3](=[O:4])[C@:5]1([O:6][H:14])[H:13])([H:7])([H:8])[H:9].[H:11][H:12]"
C        1.66489297      -0.29474634      -0.27584932
C        0.43823230      -0.23353469       0.59499006
C       -0.69032639       0.65664659       0.21030476
O       -0.80413735       1.50347578      -0.77776304
C       -0.92466533      -0.80330599       0.14905470
O       -1.06412724      -1.36220264      -1.10991689
H        2.17103750      -1.25339587      -0.15439628
H        1.40343839      -0.18386432      -1.32749506
H        2.36352412       0.50235692      -0.01483571
H        0.60668985      -0.35467281       1.66060900
H       -1.14685285       1.56522633       1.35256567
H       -1.17656820       2.20000774       0.48453005
H       -1.51450763      -1.28574754       0.92114891
H       -1.32663013      -0.65624316      -1.71294684
14
Frame=11 idx=006012 GeodesicLength=1.0855508192721206 rxn_smarts="[C:1]([C@@:2]1([H:10])[C@:3]([O:4][H:12])([H:11])[C@:5]1([O:6][H:14])[H:13])([H:7])([H:8])[H:9]>>[C:1]([C@@:2]1([H:10])[C:3](=[O:4])[C@:5]1([O:6][H:14])[H:13])([H:7])([H:8])[H:9].[H:11][H:12]"
C        1.66374829      -0.29483839      -0.27553928
C        0.43585954      -0.24199700       0.59455027
C       -0.69669482       0.64593153       0.21692467
O       -0.81383518       1.50446146      -0.75976831
C       -0.92295356      -0.81433860       0.14283012
O       -1.05196233      -1.37196343      -1.11865493
H        2.17904558      -1.24799557      -0.14953408
H        1.40211615      -0.19174552      -1.32796123
H        2.35453434       0.51013632      -0.01754999
H        0.60498801      -0.36561334       1.65982380
H       -1.13880871       1.59358167       1.36014519
H       -1.16662973       2.24645103       0.48321401
H       -1.51575617      -1.29990700       0.91090452
H       -1.33365141      -0.67216316      -1.71938475
14
Frame=12 idx=006012 GeodesicLength=1.1841919611457026 rxn_smarts="[C:1]([C@@:2]1([H:10])[C@:3]([O:4][H:12])([H:11])[C@:5]1([O:6][H:14])[H:13])([H:7])([H:8])[H:9]>>[C:1]([C@@:2]1([H:10])[C:3](=[O:4])[C@:5]1([O:6][H:14])[H:13])([H:7])([H:8])[H:9].[H:11][H:12]"
C        1.66233129      -0.29464004      -0.27507368
C        0.43325776      -0.25102229       0.59427689
C       -0.70365250       0.63429013       0.22419819
O       -0.82449449       1.50509243      -0.74032187
C       -0.92124464      -0.82616617       0.13649806
O       -1.03968071      -1.38179462      -1.12773489
H        2.18704168      -1.24207712      -0.14497645
H        1.40060353      -0.19888274      -1.32819275
H        2.34490975       0.51822206      -0.01972253
H        0.60310865      -0.37738503       1.65915488
H       -1.12918667       1.62344525       1.36698586
H       -1.15547350       2.29484698       0.48047578
H       -1.51684341      -1.31537951       0.90030417
H       -1.34067672      -0.68854931      -1.72587166
14
Frame=13 idx=006012 GeodesicLength=1.282811349474673 rxn_smarts="[C:1]([C@@:2]1([H:10])[C@:3]([O:4][H:12])([H:11])[C@:5]1([O:6][H:14])[H:13])([H:7])([H:8])[H:9]>>[C:1]([C@@:2]1([H:10])[C:3](=[O:4])[C@:5]1([O:6][H:14])[H:13])([H:7])([H:8])[H:9].[H:11][H:12]"
C        1.66062042      -0.29413084      -0.27442700
C        0.43041853      -0.26065579       0.59419781
C       -0.71122676       0.62166619       0.23222585
O       -0.83613775       1.50534643      -0.71925533
C       -0.91953883      -0.83881175       0.13005779
O       -1.02728565      -1.39163453      -1.13718697
H        2.19501425      -1.23561822      -0.14074670
H        1.39887420      -0.20519981      -1.32816675
H        2.33461216       0.52662728      -0.02128260
H        0.60105686      -0.39009477       1.65862107
H       -1.11768759       1.65493216       1.37302414
H       -1.14325950       2.34516669       0.47602299
H       -1.51773975      -1.33225978       0.88931608
H       -1.34772059      -0.70533325      -1.73240041
14
Frame=14 idx=006012 GeodesicLength=1.381365305106172 rxn_smarts="[C:1]([C@@:2]1([H:10])[C@:3]([O:4][H:12])([H:11])[C@:5]1([O:6][H:14])[H:13])([H:7])([H:8])[H:9]>>[C:1]([C@@:2]1([H:10])[C:3](=[O:4])[C@:5]1([O:6][H:14])[H:13])([H:7])([H:8])[H:9].[H:11][H:12]"
C        1.65859309      -0.29329148      -0.27356703
C        0.42733817      -0.27094221       0.59434304
C       -0.71943628       0.60801298       0.24112723
O       -0.84877066       1.50519794      -0.69637749
C       -0.91783802      -0.85228073       0.12351052
O       -1.01478884      -1.40138833      -1.14704117
H        2.20294141      -1.22860015      -0.13686401
H        1.39690069      -0.21061195      -1.32785545
H        2.32360096       0.53536070      -0.02213919
H        0.59884842      -0.40386361       1.65823564
H       -1.10393281       1.68813215       1.37819446
H       -1.13023881       2.39732397       0.46948743
H       -1.51841206      -1.35063115       0.87790475
H       -1.35480526      -0.72241812      -1.73895874
14
Frame=15 idx=006012 GeodesicLength=1.479836927988732 rxn_smarts="[C:1]([C@@:2]1([H:10])[C@:3]([O:4][H:12])([H:11])[C@:5]1([O:6][H:14])[H:13])([H:7])([H:8])[H:9]>>[C:1]([C@@:2]1([H:10])[C:3](=[O:4])[C@:5]1([O:6][H:14])[H:13])([H:7])([H:8])[H:9].[H:11][H:12]"
C        1.65623481      -0.29211460      -0.27246003
C        0.42402188      -0.28192730       0.59474586
C       -0.72827849       0.59329528       0.25102953
O       -0.86236372       1.50463384      -0.67148843
C       -0.91614329      -0.86655746       0.11685897
O       -1.00221057      -1.41093657      -1.15732596
H        2.21080127      -1.22102349      -0.13335348
H        1.39466209      -0.21503752      -1.32722857
H        2.31185751       0.54440883      -0.02219903
H        0.59650704      -0.41882322       1.65801614
H       -1.08749124       1.72313099       1.38244648
H       -1.11681641       2.45117927       0.46045803
H       -1.51883025      -1.37055138       0.86603333
H       -1.36195064      -0.73967666      -1.74553284
14
Frame=16 idx=006012 GeodesicLength=1.5782155959026076 rxn_smarts="[C:1]([C@@:2]1([H:10])[C@:3]([O:4][H:12])([H:11])[C@:5]1([O:6][H:14])[H:13])([H:7])([H:8])[H:9]>>[C:1]([C@@:2]1([H:10])[C:3](=[O:4])[C@:5]1([O:6][H:14])[H:13])([H:7])([H:8])[H:9].[H:11][H:12]"
C        1.65353848      -0.29060103      -0.27106966
C        0.42048364      -0.29365497       0.59544435
C       -0.73772902       0.57749333       0.26207315
O       -0.87685359       1.50364891      -0.64437455
C       -0.91445782      -0.88159966       0.11010863
O       -0.98958382      -1.42012762      -1.16806645
H        2.21856612      -1.21290733      -0.13024264
H        1.39214245      -0.21839405      -1.32625348
H        2.29938207       0.55374215      -0.02135937
H        0.59406593      -0.43511565       1.65798379
H       -1.06786926       1.75998313       1.38573406
H       -1.10353870       2.50652811       0.44846615
H       -1.51897013      -1.39204857       0.85366383
H       -1.36917634      -0.75694675      -1.75210781
