14
Frame=0 idx=000286 GeodesicLength=0.0 rxn_smarts="[C:1]([C@@:2]1([H:10])[O:3][C:4]([H:11])([H:12])[C:5]([H:13])=[C:6]1[H:14])([H:7])([H:8])[H:9]>>[C-:2]1=[O+:3][C:4]([H:11])([H:12])[C:5]([H:13])=[C:6]1[H:14].[C:1]([H:7])([H:8])([H:9])[H:10]"
C        1.96307791      -0.45105003       0.22048039
C        0.30758777       0.55035954      -0.88285182
O       -0.49442554      -0.45247491      -1.28274888
C       -1.62677040      -0.57772939      -0.41313249
C       -1.47096527       0.55744295       0.54259299
C       -0.31948345       1.17343496       0.28352851
H        2.63798341      -1.05204940      -0.38886615
H        2.49419571       0.24821905       0.86241552
H        1.26448637      -1.07066452       0.77279435
H        1.48034548       0.32803277      -0.87078560
H       -2.52259219      -0.51206792      -1.03596700
H       -1.62442226      -1.55897475       0.07832305
H       -2.19444300       0.80051103       1.30734134
H        0.10542545       2.01701060       0.80687582
14
Frame=1 idx=000286 GeodesicLength=0.06356298756556568 rxn_smarts="[C:1]([C@@:2]1([H:10])[O:3][C:4]([H:11])([H:12])[C:5]([H:13])=[C:6]1[H:14])([H:7])([H:8])[H:9]>>[C-:2]1=[O+:3][C:4]([H:11])([H:12])[C:5]([H:13])=[C:6]1[H:14].[C:1]([H:7])([H:8])([H:9])[H:10]"
C        1.96146332      -0.45259808       0.21679029
C        0.30964465       0.55482147      -0.87460417
O       -0.49169174      -0.44673246      -1.28256195
C       -1.62394966      -0.57921034      -0.41431224
C       -1.47744224       0.55691773       0.54131444
C       -0.33259261       1.18440997       0.28142561
H        2.60974888      -1.08076543      -0.39420053
H        2.52362315       0.23369197       0.84659047
H        1.26824576      -1.05478794       0.79550366
H        1.50207226       0.34492910      -0.87333192
H       -2.52029329      -0.51901488      -1.03722782
H       -1.61490140      -1.56051169       0.07657466
H       -2.20305671       0.79360032       1.30615698
H        0.08912963       2.02525026       0.81188251
14
Frame=2 idx=000286 GeodesicLength=0.1270494548286574 rxn_smarts="[C:1]([C@@:2]1([H:10])[O:3][C:4]([H:11])([H:12])[C:5]([H:13])=[C:6]1[H:14])([H:7])([H:8])[H:9]>>[C-:2]1=[O+:3][C:4]([H:11])([H:12])[C:5]([H:13])=[C:6]1[H:14].[C:1]([H:7])([H:8])([H:9])[H:10]"
C        1.96027023      -0.45409950       0.21314672
C        0.31175531       0.55894539      -0.86587193
O       -0.48896557      -0.44118376      -1.28204836
C       -1.62138680      -0.58057901      -0.41549148
C       -1.48408450       0.55641219       0.54005004
C       -0.34570356       1.19496307       0.27955246
H        2.58119390      -1.10808761      -0.39931204
H        2.55305258       0.21809025       0.83039966
H        1.27351993      -1.03896828       0.81773765
H        1.52404744       0.36125754      -0.87547619
H       -2.51803861      -0.52560757      -1.03872919
H       -1.60604093      -1.56188854       0.07484704
H       -2.21186537       0.78689459       1.30484394
H        0.07224595       2.03385124       0.81635167
14
Frame=3 idx=000286 GeodesicLength=0.19046090410046088 rxn_smarts="[C:1]([C@@:2]1([H:10])[O:3][C:4]([H:11])([H:12])[C:5]([H:13])=[C:6]1[H:14])([H:7])([H:8])[H:9]>>[C-:2]1=[O+:3][C:4]([H:11])([H:12])[C:5]([H:13])=[C:6]1[H:14].[C:1]([H:7])([H:8])([H:9])[H:10]"
C        1.95945313      -0.45556351       0.20956916
C        0.31391748       0.56278577      -0.85667355
O       -0.48625244      -0.43575463      -1.28125723
C       -1.61903814      -0.58183759      -0.41666616
C       -1.49084440       0.55590503       0.53882976
C       -0.35880655       1.20513415       0.27789184
H        2.55233443      -1.13408678      -0.40414198
H        2.58235047       0.20141101       0.81389418
H        1.28020620      -1.02325877       0.83944699
H        1.54629848       0.37701616      -0.87725102
H       -2.51581938      -0.53186116      -1.04041981
H       -1.59773407      -1.56312818       0.07311272
H       -2.22077998       0.78030580       1.30349353
H        0.05471478       2.04293270       0.82017157
14
Frame=4 idx=000286 GeodesicLength=0.2538002985743187 rxn_smarts="[C:1]([C@@:2]1([H:10])[O:3][C:4]([H:11])([H:12])[C:5]([H:13])=[C:6]1[H:14])([H:7])([H:8])[H:9]>>[C-:2]1=[O+:3][C:4]([H:11])([H:12])[C:5]([H:13])=[C:6]1[H:14].[C:1]([H:7])([H:8])([H:9])[H:10]"
C        1.95897672      -0.45700123       0.20606906
C        0.31612683       0.56638705      -0.84702638
O       -0.48355740      -0.43038467      -1.28022718
C       -1.61686662      -0.58298755      -0.41783097
C       -1.49768096       0.55537598       0.53768421
C       -0.37189129       1.21495447       0.27643209
H        2.52320943      -1.15882043      -0.40864429
H        2.61138292       0.18366141       0.79712825
H        1.28820813      -1.00771641       0.86058297
H        1.56885705       0.39220300      -0.87868956
H       -2.51362958      -0.53778279      -1.04225482
H       -1.58989371      -1.56425006       0.07134670
H       -2.22972452       0.77375992       1.30218769
H        0.03648301       2.05260132       0.82324225
14
Frame=5 idx=000286 GeodesicLength=0.3170666510916875 rxn_smarts="[C:1]([C@@:2]1([H:10])[O:3][C:4]([H:11])([H:12])[C:5]([H:13])=[C:6]1[H:14])([H:7])([H:8])[H:9]>>[C-:2]1=[O+:3][C:4]([H:11])([H:12])[C:5]([H:13])=[C:6]1[H:14].[C:1]([H:7])([H:8])([H:9])[H:10]"
C        1.95881478      -0.45842246       0.20265248
C        0.31837788       0.56979367      -0.83693334
O       -0.48088295      -0.42501427      -1.27899185
C       -1.61484621      -0.58402869      -0.41898978
C       -1.50456227       0.55480415       0.53663844
C       -0.38495084       1.22444828       0.27517997
H        2.49381153      -1.18234601      -0.41273730
H        2.64007767       0.16487577       0.78010696
H        1.29745517      -0.99238143       0.88111638
H        1.59175040       0.40680945      -0.87982753
H       -2.51146659      -0.54337726      -1.04420987
H       -1.58245367      -1.56527354       0.06951559
H       -2.23863647       0.76718236       1.30099433
H        0.01751157       2.06292998       0.82548552
14
Frame=6 idx=000286 GeodesicLength=0.3802715372211687 rxn_smarts="[C:1]([C@@:2]1([H:10])[O:3][C:4]([H:11])([H:12])[C:5]([H:13])=[C:6]1[H:14])([H:7])([H:8])[H:9]>>[C-:2]1=[O+:3][C:4]([H:11])([H:12])[C:5]([H:13])=[C:6]1[H:14].[C:1]([H:7])([H:8])([H:9])[H:10]"
C        1.95895455      -0.45982414       0.19931842
C        0.32066043       0.57302838      -0.82639745
O       -0.47822839      -0.41961826      -1.27756005
C       -1.61296087      -0.58496227      -0.42013306
C       -1.51147566       0.55418537       0.53570984
C       -0.39797709       1.23362403       0.27414308
H        2.46421455      -1.20467475      -0.41640922
H        2.66834105       0.14506383       0.76287119
H        1.30788759      -0.97732087       0.90100355
H        1.61501474       0.42083709      -0.88069943
H       -2.50932874      -0.54865050      -1.04625947
H       -1.57537450      -1.56620834       0.06761857
H       -2.24749858       0.76055789       1.29994201
H       -0.00222908       2.07396253       0.82685202
14
Frame=7 idx=000286 GeodesicLength=0.44341956016507356 rxn_smarts="[C:1]([C@@:2]1([H:10])[O:3][C:4]([H:11])([H:12])[C:5]([H:13])=[C:6]1[H:14])([H:7])([H:8])[H:9]>>[C-:2]1=[O+:3][C:4]([H:11])([H:12])[C:5]([H:13])=[C:6]1[H:14].[C:1]([H:7])([H:8])([H:9])[H:10]"
C        1.95938379      -0.46120674       0.19605958
C        0.32296014       0.57611292      -0.81541432
O       -0.47559492      -0.41417535      -1.27593322
C       -1.61120135      -0.58578774      -0.42125333
C       -1.51842089       0.55352089       0.53490895
C       -0.41096665       1.24249015       0.27333644
H        2.43449951      -1.22580358      -0.41963412
H        2.69611874       0.12423470       0.74543130
H        1.31945413      -0.96258845       0.92021415
H        1.63867944       0.43428652      -0.88133898
H       -2.50721427      -0.55361070      -1.04838748
H       -1.56862842      -1.56705739       0.06565785
H       -2.25630991       0.75388359       1.29904226
H       -0.02275934       2.08570117       0.82731091
14
Frame=8 idx=000286 GeodesicLength=0.5065261558021599 rxn_smarts="[C:1]([C@@:2]1([H:10])[O:3][C:4]([H:11])([H:12])[C:5]([H:13])=[C:6]1[H:14])([H:7])([H:8])[H:9]>>[C-:2]1=[O+:3][C:4]([H:11])([H:12])[C:5]([H:13])=[C:6]1[H:14].[C:1]([H:7])([H:8])([H:9])[H:10]"
C        1.96009643      -0.46256608       0.19286982
C        0.32526314       0.57907685      -0.80397518
O       -0.47298290      -0.40865981      -1.27410885
C       -1.60956015      -0.58650551      -0.42234665
C       -1.52539844       0.55281417       0.53424478
C       -0.42391860       1.25107002       0.27278447
H        2.40473117      -1.24574207      -0.42239301
H        2.72334795       0.10242074       0.72778366
H        1.33210941      -0.94823249       0.93874019
H        1.66277814       0.44715124      -0.88178199
H       -2.50512235      -0.55827157      -1.05058989
H       -1.56219280      -1.56782975       0.06363514
H       -2.26507393       0.74715331       1.29830294
H       -0.04407706       2.09812094       0.82683456
14
Frame=9 idx=000286 GeodesicLength=0.5696671785367491 rxn_smarts="[C:1]([C@@:2]1([H:10])[O:3][C:4]([H:11])([H:12])[C:5]([H:13])=[C:6]1[H:14])([H:7])([H:8])[H:9]>>[C-:2]1=[O+:3][C:4]([H:11])([H:12])[C:5]([H:13])=[C:6]1[H:14].[C:1]([H:7])([H:8])([H:9])[H:10]"
C        1.96101349      -0.46389344       0.18976215
C        0.32753899       0.58191237      -0.79209865
O       -0.47039834      -0.40306921      -1.27210065
C       -1.60802812      -0.58711952      -0.42339748
C       -1.53244671       0.55207407       0.53370297
C       -0.43688704       1.25939151       0.27241843
H        2.37503988      -1.26446971      -0.42465413
H        2.75018374       0.07954826       0.70986702
H        1.34568765      -0.93416737       0.95656423
H        1.68736792       0.45946528      -0.88205748
H       -2.50304973      -0.56266784      -1.05282310
H       -1.55601438      -1.56850674       0.06157845
H       -2.27386569       0.74039134       1.29769224
H       -0.06614167       2.11111100       0.82554599
14
Frame=10 idx=000286 GeodesicLength=0.6327780031116736 rxn_smarts="[C:1]([C@@:2]1([H:10])[O:3][C:4]([H:11])([H:12])[C:5]([H:13])=[C:6]1[H:14])([H:7])([H:8])[H:9]>>[C-:2]1=[O+:3][C:4]([H:11])([H:12])[C:5]([H:13])=[C:6]1[H:14].[C:1]([H:7])([H:8])([H:9])[H:10]"
C        1.96222608      -0.46517025       0.18670337
C        0.32979300       0.58464452      -0.77973428
O       -0.46782162      -0.39739860      -1.26986640
C       -1.60661582      -0.58762379      -0.42441561
C       -1.53955353       0.55129975       0.53330222
C       -0.44981912       1.26742340       0.27235484
H        2.34540828      -1.28204901      -0.42643288
H        2.77639974       0.05577537       0.69172744
H        1.36031206      -0.92053702       0.97368741
H        1.71246164       0.47119138      -0.88220869
H       -2.50099349      -0.56676472      -1.05514100
H       -1.55015143      -1.56910882       0.05946471
H       -2.28264603       0.73358195       1.29723494
H       -0.08899975       2.12473584       0.82332394
14
Frame=11 idx=000286 GeodesicLength=0.6958621848095907 rxn_smarts="[C:1]([C@@:2]1([H:10])[O:3][C:4]([H:11])([H:12])[C:5]([H:13])=[C:6]1[H:14])([H:7])([H:8])[H:9]>>[C-:2]1=[O+:3][C:4]([H:11])([H:12])[C:5]([H:13])=[C:6]1[H:14].[C:1]([H:7])([H:8])([H:9])[H:10]"
C        1.96374396      -0.46638150       0.18368485
C        0.33201438       0.58726657      -0.76687209
O       -0.46524377      -0.39165859      -1.26739187
C       -1.60532941      -0.58801583      -0.42540091
C       -1.54673702       0.55049438       0.53303866
C       -0.46271678       1.27515957       0.27259783
H        2.31588006      -1.29851517      -0.42772106
H        2.80197777       0.03117694       0.67335966
H        1.37595765      -0.90734283       0.99010250
H        1.73809762       0.48232331      -0.88228063
H       -2.49895274      -0.57055305      -1.05755127
H       -1.54461847      -1.56963236       0.05729644
H       -2.29143563       0.72672804       1.29692528
H       -0.11263764       2.13895052       0.82021260
14
Frame=12 idx=000286 GeodesicLength=0.7589276808602181 rxn_smarts="[C:1]([C@@:2]1([H:10])[O:3][C:4]([H:11])([H:12])[C:5]([H:13])=[C:6]1[H:14])([H:7])([H:8])[H:9]>>[C-:2]1=[O+:3][C:4]([H:11])([H:12])[C:5]([H:13])=[C:6]1[H:14].[C:1]([H:7])([H:8])([H:9])[H:10]"
C        1.96558885      -0.46751588       0.18069119
C        0.33419162       0.58976922      -0.75348277
O       -0.46265658      -0.38586343      -1.26464687
C       -1.60418369      -0.58829123      -0.42635317
C       -1.55402276       0.54966643       0.53290890
C       -0.47557681       1.28258763       0.27318518
H        2.28652019      -1.31389182      -0.42851761
H        2.82689730       0.00584180       0.65474827
H        1.39262749      -0.89460620       1.00580932
H        1.76431364       0.49284976      -0.88231995
H       -2.49692865      -0.57401804      -1.06007460
H       -1.53945436      -1.57007547       0.05507780
H       -2.30027477       0.71984917       1.29674053
H       -0.13704149       2.15369805       0.81623377
14
Frame=13 idx=000286 GeodesicLength=0.8219741111606926 rxn_smarts="[C:1]([C@@:2]1([H:10])[O:3][C:4]([H:11])([H:12])[C:5]([H:13])=[C:6]1[H:14])([H:7])([H:8])[H:9]>>[C-:2]1=[O+:3][C:4]([H:11])([H:12])[C:5]([H:13])=[C:6]1[H:14].[C:1]([H:7])([H:8])([H:9])[H:10]"
C        1.96777210      -0.46855194       0.17770611
C        0.33630757       0.59214106      -0.73955793
O       -0.46005766      -0.38003620      -1.26160881
C       -1.60319197      -0.58845171      -0.42726838
C       -1.56144173       0.54883070       0.53289774
C       -0.48840995       1.28971454       0.27411462
H        2.25740424      -1.32818263      -0.42881836
H        2.85113657      -0.02015347       0.63588250
H        1.41030697      -0.88232595       1.02080687
H        1.79114251       0.50275925      -0.88238288
H       -2.49492352      -0.57716683      -1.06272289
H       -1.53468395      -1.57043357       0.05283006
H       -2.30922119       0.71298621       1.29663836
H       -0.16214000       2.16887056       0.81148298
14
Frame=14 idx=000286 GeodesicLength=0.8850173917728053 rxn_smarts="[C:1]([C@@:2]1([H:10])[O:3][C:4]([H:11])([H:12])[C:5]([H:13])=[C:6]1[H:14])([H:7])([H:8])[H:9]>>[C-:2]1=[O+:3][C:4]([H:11])([H:12])[C:5]([H:13])=[C:6]1[H:14].[C:1]([H:7])([H:8])([H:9])[H:10]"
C        1.97032333      -0.46947094       0.17471514
C        0.33834732       0.59436457      -0.72505346
O       -0.45743921      -0.37420065      -1.25823261
C       -1.60238145      -0.58849170      -0.42814508
C       -1.56903518       0.54799949       0.53299896
C       -0.50121439       1.29652647       0.27543860
H        2.22861895      -1.34139756      -0.42862014
H        2.87472388      -0.04672978       0.61672354
H        1.42902040      -0.87051105       1.03509995
H        1.81862282       0.51203240      -0.88252381
H       -2.49294281      -0.57997844      -1.06552809
H       -1.53037153      -1.57070319       0.05056401
H       -2.31835617       0.70618083       1.29656775
H       -0.18791595       2.18437956       0.80599522
14
Frame=15 idx=000286 GeodesicLength=0.9480584758492491 rxn_smarts="[C:1]([C@@:2]1([H:10])[O:3][C:4]([H:11])([H:12])[C:5]([H:13])=[C:6]1[H:14])([H:7])([H:8])[H:9]>>[C-:2]1=[O+:3][C:4]([H:11])([H:12])[C:5]([H:13])=[C:6]1[H:14].[C:1]([H:7])([H:8])([H:9])[H:10]"
C        1.97326782      -0.47023993       0.17170196
C        0.34029106       0.59641726      -0.70994334
O       -0.45479727      -0.36839354      -1.25447922
C       -1.60178008      -0.58841204      -0.42898149
C       -1.57685043       0.54719125       0.53319058
C       -0.51400245       1.30302556       0.27716998
H        2.20025444      -1.35353570      -0.42790513
H        2.89767357      -0.07380621       0.59722603
H        1.44878381      -0.85913581       1.04869916
H        1.84678453       0.52064748      -0.88281533
H       -2.49099417      -0.58245217      -1.06851954
H       -1.52657557      -1.57087986       0.04830455
H       -2.32777692       0.69949489       1.29645333
H       -0.21427834       2.20007882       0.79989847
14
Frame=16 idx=000286 GeodesicLength=1.0111135649748617 rxn_smarts="[C:1]([C@@:2]1([H:10])[O:3][C:4]([H:11])([H:12])[C:5]([H:13])=[C:6]1[H:14])([H:7])([H:8])[H:9]>>[C-:2]1=[O+:3][C:4]([H:11])([H:12])[C:5]([H:13])=[C:6]1[H:14].[C:1]([H:7])([H:8])([H:9])[H:10]"
C        1.97663089      -0.47082148       0.16865362
C        0.34211941       0.59827979      -0.69419137
O       -0.45212698      -0.36264374      -1.25030823
C       -1.60141322      -0.58821266      -0.42977499
C       -1.58493347       0.54641791       0.53345965
C       -0.52678759       1.30921195       0.27933277
H        2.17238967      -1.36459748      -0.42665670
H        2.92002844      -0.10133060       0.57734588
H        1.46961616      -0.84817578       1.06161068
H        1.87566517       0.52857919      -0.88333036
H       -2.48908170      -0.58458266      -1.07172462
H       -1.52335024      -1.57096126       0.04607061
H       -2.33758936       0.69298403       1.29622236
H       -0.24116718       2.21585280       0.79329069
