9
Frame=0 idx=002789 GeodesicLength=0.0 rxn_smarts="[O:1]=[C:2]1[C:3]([H:7])([H:8])[N:4]=[C:5]([H:9])[O:6]1>>[O:1]=[C:2](/[C:3](=[N:4]\[C:5](=[O:6])[H:9])[H:7])[H:8]"
O       -1.68124827       1.40359145       0.51034550
C       -0.88117489       0.59543747       0.13053057
C       -0.49537926      -0.79519912       0.32003013
N        0.79101039      -1.08145052       0.16933834
C        1.38178793       0.08266508      -0.08832625
O        0.66997381       1.12177053      -0.20339785
H       -1.25590639      -1.56033984       0.41564299
H       -0.98125554       0.08509917      -0.99262982
H        2.45219222       0.14842577      -0.26153364
9
Frame=1 idx=002789 GeodesicLength=0.06496226076565595 rxn_smarts="[O:1]=[C:2]1[C:3]([H:7])([H:8])[N:4]=[C:5]([H:9])[O:6]1>>[O:1]=[C:2](/[C:3](=[N:4]\[C:5](=[O:6])[H:9])[H:7])[H:8]"
O       -1.70143450       1.38946261       0.51031462
C       -0.88445085       0.60105957       0.12723381
C       -0.50119488      -0.79500750       0.29942049
N        0.79025309      -1.07547398       0.17484409
C        1.38931129       0.08630640      -0.07276160
O        0.68775038       1.13461307      -0.17908997
H       -1.25934310      -1.55609056       0.43502472
H       -0.97397838       0.08066843      -1.00522568
H        2.45308695       0.13446197      -0.28976047
9
Frame=2 idx=002789 GeodesicLength=0.12988969157857225 rxn_smarts="[O:1]=[C:2]1[C:3]([H:7])([H:8])[N:4]=[C:5]([H:9])[O:6]1>>[O:1]=[C:2](/[C:3](=[N:4]\[C:5](=[O:6])[H:9])[H:7])[H:8]"
O       -1.72101737       1.37485094       0.51022443
C       -0.88761697       0.60655081       0.12374854
C       -0.50684030      -0.79491219       0.27806597
N        0.78914347      -1.06977326       0.17935365
C        1.39668552       0.08917606      -0.05914037
O        0.70570483       1.14688724      -0.15413506
H       -1.26157935      -1.55042702       0.45584563
H       -0.96721061       0.07638360      -1.01822193
H        2.45273077       0.12126381      -0.31574086
9
Frame=3 idx=002789 GeodesicLength=0.1948304999150527 rxn_smarts="[O:1]=[C:2]1[C:3]([H:7])([H:8])[N:4]=[C:5]([H:9])[O:6]1>>[O:1]=[C:2](/[C:3](=[N:4]\[C:5](=[O:6])[H:9])[H:7])[H:8]"
O       -1.74009250       1.35989775       0.50984687
C       -0.89071853       0.61194720       0.12012794
C       -0.51236400      -0.79486986       0.25630902
N        0.78763631      -1.06436644       0.18296647
C        1.40390527       0.09136899      -0.04708278
O        0.72382885       1.15858629      -0.12827121
H       -1.26260434      -1.54345601       0.47772891
H       -0.96089265       0.07211254      -1.03154270
H        2.45130158       0.10877953      -0.34008251
9
Frame=4 idx=002789 GeodesicLength=0.2599896010311209 rxn_smarts="[O:1]=[C:2]1[C:3]([H:7])([H:8])[N:4]=[C:5]([H:9])[O:6]1>>[O:1]=[C:2](/[C:3](=[N:4]\[C:5](=[O:6])[H:9])[H:7])[H:8]"
O       -1.75866826       1.34475117       0.50909597
C       -0.89376930       0.61727538       0.11649887
C       -0.51783983      -0.79483521       0.23484543
N        0.78573263      -1.05917544       0.18598057
C        1.41097942       0.09296746      -0.03619027
O        0.74215395       1.16967116      -0.10156950
H       -1.26237604      -1.53509097       0.49966182
H       -0.95506042       0.06745865      -1.04495766
H        2.44884787       0.09697780      -0.36336523
9
Frame=5 idx=002789 GeodesicLength=0.3249291694820854 rxn_smarts="[O:1]=[C:2]1[C:3]([H:7])([H:8])[N:4]=[C:5]([H:9])[O:6]1>>[O:1]=[C:2](/[C:3](=[N:4]\[C:5](=[O:6])[H:9])[H:7])[H:8]"
O       -1.77673095       1.32958764       0.50787051
C       -0.89676867       0.62262645       0.11289810
C       -0.52315127      -0.79459187       0.21404320
N        0.78348200      -1.05417681       0.18819635
C        1.41788016       0.09404446      -0.02639026
O        0.76058013       1.18004279      -0.07420292
H       -1.26104669      -1.52563506       0.52128728
H       -0.94983146       0.06226252      -1.05816792
H        2.44558676       0.08583988      -0.38553433
9
Frame=6 idx=002789 GeodesicLength=0.3900420376241365 rxn_smarts="[O:1]=[C:2]1[C:3]([H:7])([H:8])[N:4]=[C:5]([H:9])[O:6]1>>[O:1]=[C:2](/[C:3](=[N:4]\[C:5](=[O:6])[H:9])[H:7])[H:8]"
O       -1.79431371       1.31458030       0.50610639
C       -0.89972438       0.62804393       0.10936930
C       -0.52839038      -0.79416732       0.19433084
N        0.78090674      -1.04934174       0.18981465
C        1.42464817       0.09467589      -0.01743264
O        0.77921043       1.18977414      -0.04604343
H       -1.25877505      -1.51519424       0.54207385
H       -0.94512173       0.05621105      -1.07111217
H        2.44155992       0.07541800      -0.40710678
9
Frame=7 idx=002789 GeodesicLength=0.45505866708024945 rxn_smarts="[O:1]=[C:2]1[C:3]([H:7])([H:8])[N:4]=[C:5]([H:9])[O:6]1>>[O:1]=[C:2](/[C:3](=[N:4]\[C:5](=[O:6])[H:9])[H:7])[H:8]"
O       -1.81138447       1.29976549       0.50367726
C       -0.90261090       0.63357705       0.10588188
C       -0.53351683      -0.79342042       0.17588708
N        0.77810374      -1.04461557       0.19090899
C        1.43133627       0.09492536      -0.00917213
O        0.79809435       1.19875439      -0.01704203
H       -1.25577264      -1.50399880       0.56181332
H       -0.94099412       0.04924583      -1.08364619
H        2.43674460       0.06576668      -0.42830818
9
Frame=8 idx=002789 GeodesicLength=0.5202874255726193 rxn_smarts="[O:1]=[C:2]1[C:3]([H:7])([H:8])[N:4]=[C:5]([H:9])[O:6]1>>[O:1]=[C:2](/[C:3](=[N:4]\[C:5](=[O:6])[H:9])[H:7])[H:8]"
O       -1.82796929       1.28527598       0.50053002
C       -0.90540465       0.63927616       0.10239528
C       -0.53857070      -0.79246023       0.15881328
N        0.77520037      -1.03996926       0.19174698
C        1.43802861       0.09491101      -0.00135261
O        0.81733517       1.20701961       0.01306333
H       -1.25231397      -1.49223234       0.58036953
H       -0.93730182       0.04124271      -1.09587296
H        2.43099627       0.05693636      -0.44969284
9
Frame=9 idx=002789 GeodesicLength=0.5855773774404368 rxn_smarts="[O:1]=[C:2]1[C:3]([H:7])([H:8])[N:4]=[C:5]([H:9])[O:6]1>>[O:1]=[C:2](/[C:3](=[N:4]\[C:5](=[O:6])[H:9])[H:7])[H:8]"
O       -1.84401753       1.27124414       0.49677103
C       -0.90809138       0.64515602       0.09887920
C       -0.54352613      -0.79131348       0.14300333
N        0.77211644      -1.03545521       0.19197292
C        1.44461967       0.09456950       0.00591804
O        0.83679441       1.21456494       0.04419890
H       -1.24841554      -1.47989178       0.59799687
H       -0.93396393       0.03207496      -1.10779770
H        2.42448400       0.04905090      -0.47094259
9
Frame=10 idx=002789 GeodesicLength=0.6504407180436543 rxn_smarts="[O:1]=[C:2]1[C:3]([H:7])([H:8])[N:4]=[C:5]([H:9])[O:6]1>>[O:1]=[C:2](/[C:3](=[N:4]\[C:5](=[O:6])[H:9])[H:7])[H:8]"
O       -1.85937828       1.25748493       0.49229665
C       -0.91065103       0.65118247       0.09529557
C       -0.54838213      -0.78971250       0.12850968
N        0.76899008      -1.03092195       0.19180586
C        1.45120203       0.09400669       0.01273463
O        0.85665488       1.22112252       0.07605925
H       -1.24415879      -1.46717735       0.61441088
H       -0.93146738       0.02188520      -1.11916266
H        2.41719063       0.04212998      -0.49194985
9
Frame=11 idx=002789 GeodesicLength=0.7156470006893026 rxn_smarts="[O:1]=[C:2]1[C:3]([H:7])([H:8])[N:4]=[C:5]([H:9])[O:6]1>>[O:1]=[C:2](/[C:3](=[N:4]\[C:5](=[O:6])[H:9])[H:7])[H:8]"
O       -1.87414775       1.24426919       0.48730608
C       -0.91312310       0.65740049       0.09156936
C       -0.55321265      -0.78806095       0.11504717
N        0.76579750      -1.02656450       0.19096366
C        1.45773994       0.09319683       0.01908774
O        0.87681686       1.22697274       0.10893568
H       -1.23968073      -1.45403783       0.63022400
H       -0.92951818       0.01053443      -1.13039082
H        2.40932810       0.03628961      -0.51274286
9
Frame=12 idx=002789 GeodesicLength=0.7807679317278872 rxn_smarts="[O:1]=[C:2]1[C:3]([H:7])([H:8])[N:4]=[C:5]([H:9])[O:6]1>>[O:1]=[C:2](/[C:3](=[N:4]\[C:5](=[O:6])[H:9])[H:7])[H:8]"
O       -1.88835387       1.23156411       0.48162648
C       -0.91548773       0.66379357       0.08766683
C       -0.55808123      -0.78623316       0.10237148
N        0.76257388      -1.02229019       0.18942396
C        1.46427369       0.09217573       0.02510785
O        0.89738746       1.23162864       0.14278888
H       -1.23490864      -1.44063898       0.64579284
H       -0.92823383      -0.00169879      -1.14147435
H        2.40083026       0.03169907      -0.53330396
9
Frame=13 idx=002789 GeodesicLength=0.8460963456673273 rxn_smarts="[O:1]=[C:2]1[C:3]([H:7])([H:8])[N:4]=[C:5]([H:9])[O:6]1>>[O:1]=[C:2](/[C:3](=[N:4]\[C:5](=[O:6])[H:9])[H:7])[H:8]"
O       -1.90188186       1.21916370       0.47527959
C       -0.91769147       0.67029793       0.08341311
C       -0.56292407      -0.78423829       0.09047727
N        0.75934859      -1.01809908       0.18728182
C        1.47078513       0.09096109       0.03080551
O        0.91839308       1.23537277       0.17808419
H       -1.23006787      -1.42663906       0.66104912
H       -0.92746844      -0.01513358      -1.15241067
H        2.39150691       0.02831451      -0.55397993
9
Frame=14 idx=002789 GeodesicLength=0.9114086597344682 rxn_smarts="[O:1]=[C:2]1[C:3]([H:7])([H:8])[N:4]=[C:5]([H:9])[O:6]1>>[O:1]=[C:2](/[C:3](=[N:4]\[C:5](=[O:6])[H:9])[H:7])[H:8]"
O       -1.91471948       1.20737523       0.46829426
C       -0.91974173       0.67698932       0.07887602
C       -0.56779502      -0.78217226       0.07937102
N        0.75612328      -1.01402725       0.18449211
C        1.47727515       0.08955780       0.03622346
O        0.93975287       1.23793238       0.21445685
H       -1.22498769      -1.41229763       0.67601272
H       -0.92741887      -0.02966278      -1.16323193
H        2.38151149       0.02630518      -0.57449451
9
Frame=15 idx=002789 GeodesicLength=0.976690103939906 rxn_smarts="[O:1]=[C:2]1[C:3]([H:7])([H:8])[N:4]=[C:5]([H:9])[O:6]1>>[O:1]=[C:2](/[C:3](=[N:4]\[C:5](=[O:6])[H:9])[H:7])[H:8]"
O       -1.92687580       1.19616308       0.46075528
C       -0.92165506       0.68384183       0.07402550
C       -0.57269861      -0.78000199       0.06893491
N        0.75290061      -1.01003623       0.18099364
C        1.48371722       0.08797857       0.04135124
O        0.96147208       1.23924735       0.25176139
H       -1.21965862      -1.39756361       0.69074678
H       -0.92815565      -0.04530478      -1.17389406
H        2.37095384       0.02567578      -0.59467469
9
Frame=16 idx=002789 GeodesicLength=1.0420099545717671 rxn_smarts="[O:1]=[C:2]1[C:3]([H:7])([H:8])[N:4]=[C:5]([H:9])[O:6]1>>[O:1]=[C:2](/[C:3](=[N:4]\[C:5](=[O:6])[H:9])[H:7])[H:8]"
O       -1.93835918       1.18551892       0.45276577
C       -0.92345116       0.69083832       0.06885007
C       -0.57767177      -0.77774801       0.05907578
N        0.74968021      -1.00609738       0.17677067
C        1.49011058       0.08625709       0.04618834
O        0.98357041       1.23929146       0.28982008
H       -1.21408649      -1.38243411       0.70529335
H       -0.92977505      -0.06205982      -1.18440757
H        2.35998245       0.02643352      -0.61435649
