11
Frame=0 idx=001577 GeodesicLength=0.0 rxn_smarts="[C:1]([n:2]1[c:3]([H:10])[n:4][c:5]([H:11])[n:6]1)([H:7])([H:8])[H:9]>>[C-:1]([n+:2]1[c:3]([H:10])[n:4][c:5]([H:11])[n:6]1[H:9])([H:7])[H:8]"
C       -1.66747837      -0.55784868       0.06143882
N       -0.35112405       0.09653982      -0.09238775
C        0.32978897       1.14708316      -0.52064913
N        1.63723255       1.00441359      -0.28454074
C        1.73517057      -0.18475498       0.31127153
N        0.53907811      -0.74653835       0.43454446
H       -2.31054857       0.07842853       0.67118904
H       -2.10907496      -0.70414705      -0.92550374
H       -0.31730373      -1.48624697       0.68825424
H       -0.13501310       1.99488290      -0.99696318
H        2.64927260      -0.64181192       0.65334648
11
Frame=1 idx=001577 GeodesicLength=0.07526663508740884 rxn_smarts="[C:1]([n:2]1[c:3]([H:10])[n:4][c:5]([H:11])[n:6]1)([H:7])([H:8])[H:9]>>[C-:1]([n+:2]1[c:3]([H:10])[n:4][c:5]([H:11])[n:6]1[H:9])([H:7])[H:8]"
C       -1.66308316      -0.55094146       0.06431984
N       -0.34708822       0.08719071      -0.11208613
C        0.32959165       1.15458608      -0.50634924
N        1.63808813       1.00958190      -0.27814207
C        1.73984163      -0.19107001       0.29208669
N        0.54223629      -0.74714946       0.43318269
H       -2.32577290       0.12394496       0.60647110
H       -2.08279350      -0.78635645      -0.91443688
H       -0.34568226      -1.46153677       0.74447065
H       -0.14256349       2.02258292      -0.93671113
H        2.65722584      -0.66083243       0.60719446
11
Frame=2 idx=001577 GeodesicLength=0.15058925469908868 rxn_smarts="[C:1]([n:2]1[c:3]([H:10])[n:4][c:5]([H:11])[n:6]1)([H:7])([H:8])[H:9]>>[C-:1]([n+:2]1[c:3]([H:10])[n:4][c:5]([H:11])[n:6]1[H:9])([H:7])[H:8]"
C       -1.65854920      -0.54310404       0.06531137
N       -0.34288405       0.07859381      -0.13164986
C        0.32953971       1.16193132      -0.49146373
N        1.63930511       1.01366206      -0.27295349
C        1.74395908      -0.19675876       0.27434301
N        0.54510845      -0.74797272       0.43093947
H       -2.34005275       0.16412359       0.53685754
H       -2.05662192      -0.86663554      -0.89670579
H       -0.37440611      -1.43196778       0.79972591
H       -0.14934384       2.04816081      -0.87453484
H        2.66394551      -0.68003276       0.56013041
11
Frame=3 idx=001577 GeodesicLength=0.22581563290695184 rxn_smarts="[C:1]([n:2]1[c:3]([H:10])[n:4][c:5]([H:11])[n:6]1)([H:7])([H:8])[H:9]>>[C-:1]([n+:2]1[c:3]([H:10])[n:4][c:5]([H:11])[n:6]1[H:9])([H:7])[H:8]"
C       -1.65393666      -0.53498998       0.06511077
N       -0.33874308       0.07088748      -0.14999687
C        0.32935298       1.16899232      -0.47564335
N        1.64080985       1.01601636      -0.27082641
C        1.74754262      -0.20148758       0.25878147
N        0.54788030      -0.74958568       0.42724219
H       -2.35305049       0.19856521       0.46340049
H       -2.03093417      -0.94221985      -0.87287752
H       -0.40292263      -1.39898833       0.85221127
H       -0.15534512       2.07105125      -0.81139540
H        2.66934639      -0.69824121       0.51399336
11
Frame=4 idx=001577 GeodesicLength=0.30107068433657147 rxn_smarts="[C:1]([n:2]1[c:3]([H:10])[n:4][c:5]([H:11])[n:6]1)([H:7])([H:8])[H:9]>>[C-:1]([n+:2]1[c:3]([H:10])[n:4][c:5]([H:11])[n:6]1[H:9])([H:7])[H:8]"
C       -1.64933254      -0.52603555       0.06350115
N       -0.33456456       0.06411673      -0.16770619
C        0.32942803       1.17548448      -0.46033751
N        1.64273630       1.01683345      -0.27192149
C        1.75067624      -0.20506935       0.24592118
N        0.55031178      -0.75108006       0.42343548
H       -2.36481306       0.22747935       0.38661755
H       -2.00576198      -1.01442486      -0.84283544
H       -0.43155135      -1.36333610       0.90090209
H       -0.16048512       2.09184992      -0.74592559
H        2.67335626      -0.71581802       0.46834877
11
Frame=5 idx=001577 GeodesicLength=0.3763923021801419 rxn_smarts="[C:1]([n:2]1[c:3]([H:10])[n:4][c:5]([H:11])[n:6]1)([H:7])([H:8])[H:9]>>[C-:1]([n+:2]1[c:3]([H:10])[n:4][c:5]([H:11])[n:6]1[H:9])([H:7])[H:8]"
C       -1.64472636      -0.51645590       0.06123325
N       -0.33024169       0.05742240      -0.18581451
C        0.32959855       1.18093904      -0.44621267
N        1.64421483       1.01897863      -0.26933539
C        1.75368012      -0.20858592       0.23333844
N        0.55277614      -0.75365175       0.41765914
H       -2.37396436       0.25176019       0.30797365
H       -1.98302978      -1.08154741      -0.80623533
H       -0.45984524      -1.32577307       0.94551823
H       -0.16490018       2.10895273      -0.68191707
H        2.67643796      -0.73203893       0.42379227
11
Frame=6 idx=001577 GeodesicLength=0.45172853555737696 rxn_smarts="[C:1]([n:2]1[c:3]([H:10])[n:4][c:5]([H:11])[n:6]1)([H:7])([H:8])[H:9]>>[C-:1]([n+:2]1[c:3]([H:10])[n:4][c:5]([H:11])[n:6]1[H:9])([H:7])[H:8]"
C       -1.64017737      -0.50624258       0.05784875
N       -0.32606153       0.05209431      -0.20206850
C        0.32989853       1.18633990      -0.43171400
N        1.64585956       1.02047757      -0.26792112
C        1.75648128      -0.21232906       0.22027717
N        0.55486473      -0.75539078       0.41321824
H       -2.38211480       0.27013128       0.22607204
H       -1.95992794      -1.14426888      -0.76448322
H       -0.48856948      -1.28652753       0.98679793
H       -0.16856534       2.12355452      -0.61727431
H        2.67831237      -0.74783874       0.37924702
11
Frame=7 idx=001577 GeodesicLength=0.5270899408431178 rxn_smarts="[C:1]([n:2]1[c:3]([H:10])[n:4][c:5]([H:11])[n:6]1)([H:7])([H:8])[H:9]>>[C-:1]([n+:2]1[c:3]([H:10])[n:4][c:5]([H:11])[n:6]1[H:9])([H:7])[H:8]"
C       -1.63573160      -0.49563732       0.05390980
N       -0.32186181       0.04702161      -0.21808801
C        0.33017319       1.19110899      -0.41768699
N        1.64732359       1.02229221      -0.26542098
C        1.75920786      -0.21584414       0.20763049
N        0.55704964      -0.75796016       0.40734895
H       -2.38772571       0.28344095       0.14326005
H       -1.93905877      -1.20084999      -0.71784954
H       -0.51712583      -1.24654570       1.02411474
H       -0.17180676       2.13495047      -0.55374725
H        2.67955619      -0.76197693       0.33652874
11
Frame=8 idx=001577 GeodesicLength=0.6024562508777194 rxn_smarts="[C:1]([n:2]1[c:3]([H:10])[n:4][c:5]([H:11])[n:6]1)([H:7])([H:8])[H:9]>>[C-:1]([n+:2]1[c:3]([H:10])[n:4][c:5]([H:11])[n:6]1[H:9])([H:7])[H:8]"
C       -1.63128724      -0.48472176       0.04969356
N       -0.31760060       0.04178890      -0.23437401
C        0.33024373       1.19505390      -0.40408482
N        1.64838686       1.02468850      -0.26088114
C        1.76188034      -0.21908810       0.19549075
N        0.55948277      -0.76196280       0.39913350
H       -2.39007140       0.29218785       0.06105681
H       -1.92150297      -1.25040974      -0.66714361
H       -0.54517095      -1.20653202       1.05729744
H       -0.17496268       2.14286920      -0.49260470
H        2.68060213      -0.77387393       0.29641622
11
Frame=9 idx=001577 GeodesicLength=0.6779103229406603 rxn_smarts="[C:1]([n:2]1[c:3]([H:10])[n:4][c:5]([H:11])[n:6]1)([H:7])([H:8])[H:9]>>[C-:1]([n+:2]1[c:3]([H:10])[n:4][c:5]([H:11])[n:6]1[H:9])([H:7])[H:8]"
C       -1.62688612      -0.47357858       0.04443656
N       -0.31334201       0.03748461      -0.24913160
C        0.33041171       1.19898385      -0.38980295
N        1.64947877       1.02710406      -0.25541055
C        1.76442104      -0.22239670       0.18344866
N        0.56169727      -0.76538995       0.39224737
H       -2.39071318       0.29488122      -0.02353512
H       -1.90379220      -1.29487838      -0.61330079
H       -0.57403936      -1.16458645       1.08887512
H       -0.17787811       2.14839592      -0.43190381
H        2.68064219      -0.78601958       0.25407712
11
Frame=10 idx=001577 GeodesicLength=0.7533929467370971 rxn_smarts="[C:1]([n:2]1[c:3]([H:10])[n:4][c:5]([H:11])[n:6]1)([H:7])([H:8])[H:9]>>[C-:1]([n+:2]1[c:3]([H:10])[n:4][c:5]([H:11])[n:6]1[H:9])([H:7])[H:8]"
C       -1.62242848      -0.46233435       0.03861485
N       -0.30894958       0.03296454      -0.26409769
C        0.33041286       1.20212311      -0.37597355
N        1.65026786       1.02996143      -0.24795279
C        1.76698717      -0.22531406       0.17234193
N        0.56417950      -0.77004843       0.38352761
H       -2.38803611       0.29318293      -0.10576030
H       -1.88928777      -1.33242812      -0.55720125
H       -0.60274672      -1.12282726       1.11690034
H       -0.18101157       2.15085721      -0.37401849
H        2.68061284      -0.79613699       0.21361934
11
Frame=11 idx=001577 GeodesicLength=0.8290017191479012 rxn_smarts="[C:1]([n:2]1[c:3]([H:10])[n:4][c:5]([H:11])[n:6]1)([H:7])([H:8])[H:9]>>[C-:1]([n+:2]1[c:3]([H:10])[n:4][c:5]([H:11])[n:6]1[H:9])([H:7])[H:8]"
C       -1.61802556      -0.45106855       0.03213821
N       -0.30457116       0.02901330      -0.27792931
C        0.33043817       1.20504176      -0.36168077
N        1.65103302       1.03277502      -0.23945239
C        1.76951714      -0.22830985       0.16128732
N        0.56664593      -0.77481241       0.37502801
H       -2.38316696       0.28602696      -0.18781888
H       -1.87554524      -1.36413348      -0.49963822
H       -0.63211464      -1.07997599       1.14308417
H       -0.18420405       2.15109678      -0.31755678
H        2.67999336      -0.80565355       0.17253863
11
Frame=12 idx=001577 GeodesicLength=0.9045389810163509 rxn_smarts="[C:1]([n:2]1[c:3]([H:10])[n:4][c:5]([H:11])[n:6]1)([H:7])([H:8])[H:9]>>[C-:1]([n+:2]1[c:3]([H:10])[n:4][c:5]([H:11])[n:6]1[H:9])([H:7])[H:8]"
C       -1.61354420      -0.44001625       0.02538032
N       -0.30016634       0.02490389      -0.29155136
C        0.33025233       1.20720018      -0.34747153
N        1.65149499       1.03571959      -0.22939164
C        1.77209881      -0.23110586       0.15072103
N        0.56944715      -0.78082326       0.36477075
H       -2.37531736       0.27522041      -0.26562781
H       -1.86470125      -1.38906670      -0.44204178
H       -0.66136254      -1.03784937       1.16622602
H       -0.18783961       2.14885386      -0.26480966
H        2.67963800      -0.81303650       0.13379568
11
Frame=13 idx=001577 GeodesicLength=0.9802259430451952 rxn_smarts="[C:1]([n:2]1[c:3]([H:10])[n:4][c:5]([H:11])[n:6]1)([H:7])([H:8])[H:9]>>[C-:1]([n+:2]1[c:3]([H:10])[n:4][c:5]([H:11])[n:6]1[H:9])([H:7])[H:8]"
C       -1.60905502      -0.42914688       0.01802665
N       -0.29574877       0.02111610      -0.30438832
C        0.33008237       1.20898419      -0.33306275
N        1.65191180       1.03852669      -0.21820495
C        1.77469338      -0.23394542       0.14033779
N        0.57232359      -0.78719916       0.35426632
H       -2.36536640       0.25983743      -0.34157878
H       -1.85480877      -1.40866082      -0.38435950
H       -0.69132383      -0.99468327       1.18778034
H       -0.19166568       2.14474618      -0.21366633
H        2.67895733      -0.81957502       0.09484954
11
Frame=14 idx=001577 GeodesicLength=1.0560029547100078 rxn_smarts="[C:1]([n:2]1[c:3]([H:10])[n:4][c:5]([H:11])[n:6]1)([H:7])([H:8])[H:9]>>[C-:1]([n+:2]1[c:3]([H:10])[n:4][c:5]([H:11])[n:6]1[H:9])([H:7])[H:8]"
C       -1.60453743      -0.41861254       0.01019064
N       -0.29133197       0.01753201      -0.31652263
C        0.32990051       1.21032249      -0.31847629
N        1.65226130       1.04115383      -0.20588469
C        1.77733546      -0.23682198       0.13012611
N        0.57535381      -0.79411220       0.34323340
H       -2.35335591       0.24047603      -0.41460443
H       -1.84607056      -1.42311354      -0.32733635
H       -0.72197565      -0.95074146       1.20768804
H       -0.19572568       2.13894788      -0.16457892
H        2.67814612      -0.82503052       0.05616510
11
Frame=15 idx=001577 GeodesicLength=1.1317343482437887 rxn_smarts="[C:1]([n:2]1[c:3]([H:10])[n:4][c:5]([H:11])[n:6]1)([H:7])([H:8])[H:9]>>[C-:1]([n+:2]1[c:3]([H:10])[n:4][c:5]([H:11])[n:6]1[H:9])([H:7])[H:8]"
C       -1.59990198      -0.40865067       0.00206323
N       -0.28691260       0.01389371      -0.32814823
C        0.32962896       1.21100652      -0.30387266
N        1.65244903       1.04356701      -0.19244920
C        1.78007238      -0.23964691       0.12021079
N        0.57869092      -0.80189653       0.33109401
H       -2.33938258       0.21844501      -0.48279541
H       -1.83895549      -1.43260998      -0.27202280
H       -0.75312880      -0.90676482       1.22568553
H       -0.20018136       2.13157032      -0.11857327
H        2.67762153      -0.82891366       0.01880801
11
Frame=16 idx=001577 GeodesicLength=1.2075857951905746 rxn_smarts="[C:1]([n:2]1[c:3]([H:10])[n:4][c:5]([H:11])[n:6]1)([H:7])([H:8])[H:9]>>[C-:1]([n+:2]1[c:3]([H:10])[n:4][c:5]([H:11])[n:6]1[H:9])([H:7])[H:8]"
C       -1.59521123      -0.39913540      -0.00650310
N       -0.28251861       0.01049014      -0.33910644
C        0.32941037       1.21127450      -0.28912557
N        1.65261974       1.04559540      -0.17816914
C        1.78285456      -0.24256805       0.11035741
N        0.58216923      -0.81013369       0.31838877
H       -2.32395638       0.19297041      -0.54789348
H       -1.83231761      -1.43803778      -0.21794476
H       -0.78529430      -0.86146137       1.24239429
H       -0.20472272       2.12288182      -0.07393331
H        2.67696694      -0.83187599      -0.01846468
