11
Frame=0 idx=005400 GeodesicLength=0.0 rxn_smarts="[N:1]([c:2]1[c:3]([H:9])[c:4]([H:10])[n:5][n:6]1[H:11])([H:7])[H:8]>>[N:1](=[c:2]1\[c:3]([H:9])[c:4]([H:10])[n:5]([H:8])[n:6]1[H:11])\[H:7]"
N       -1.60005015       0.08338313      -0.10187023
C       -0.54513205       0.04636334       0.70083171
C        0.49592406      -0.95227438       0.62266043
C        1.28472969      -0.32367755      -0.28832412
N        0.85326164       0.96602469      -0.58198978
N        0.09318434       1.27632699       0.59748024
H       -1.97408689      -0.84060723      -0.29899690
H       -0.56894366       0.48437673      -1.01539371
H        0.44212515      -1.99809231       0.87155292
H        2.09067590      -0.74611460      -0.87129960
H       -0.57168808       2.00429115       0.36534902
11
Frame=1 idx=005400 GeodesicLength=0.06662765404137651 rxn_smarts="[N:1]([c:2]1[c:3]([H:9])[c:4]([H:10])[n:5][n:6]1[H:11])([H:7])[H:8]>>[N:1](=[c:2]1\[c:3]([H:9])[c:4]([H:10])[n:5]([H:8])[n:6]1[H:11])\[H:7]"
N       -1.60914342       0.07768359      -0.10058143
C       -0.54899707       0.04372048       0.69826471
C        0.49561163      -0.95047967       0.62064604
C        1.29343484      -0.32128358      -0.28437871
N        0.85674719       0.96339198      -0.58426666
N        0.09320917       1.27141753       0.58985599
H       -1.98646236      -0.84785197      -0.28179369
H       -0.57522811       0.49009299      -1.03685996
H        0.43753095      -1.99758325       0.86351384
H        2.10476516      -0.74212409      -0.86081911
H       -0.56146799       2.01301599       0.37641899
11
Frame=2 idx=005400 GeodesicLength=0.133223657395115 rxn_smarts="[N:1]([c:2]1[c:3]([H:9])[c:4]([H:10])[n:5][n:6]1[H:11])([H:7])[H:8]>>[N:1](=[c:2]1\[c:3]([H:9])[c:4]([H:10])[n:5]([H:8])[n:6]1[H:11])\[H:7]"
N       -1.61830629       0.07174868      -0.09935352
C       -0.55294537       0.04106289       0.69563138
C        0.49523023      -0.94866657       0.61858767
C        1.30224099      -0.31878978      -0.28015362
N        0.86017145       0.96065082      -0.58668133
N        0.09299652       1.26652211       0.58193457
H       -1.99881488      -0.85514578      -0.26430728
H       -0.58154995       0.49604347      -1.05879127
H        0.43301158      -1.99702217       0.85538695
H        2.11875329      -0.73811391      -0.85016238
H       -0.55078757       2.02171025       0.38790882
11
Frame=3 idx=005400 GeodesicLength=0.1997943360784055 rxn_smarts="[N:1]([c:2]1[c:3]([H:9])[c:4]([H:10])[n:5][n:6]1[H:11])([H:7])[H:8]>>[N:1](=[c:2]1\[c:3]([H:9])[c:4]([H:10])[n:5]([H:8])[n:6]1[H:11])\[H:7]"
N       -1.62754545       0.06556384      -0.09819003
C       -0.55698326       0.03839192       0.69292565
C        0.49477855      -0.94682799       0.61648735
C        1.31114597      -0.31618435      -0.27563282
N        0.86352746       0.95779495      -0.58924540
N        0.09252888       1.26164563       0.57369106
H       -2.01114606      -0.86249365      -0.24652198
H       -0.58790587       0.50223595      -1.08121772
H        0.42856758      -1.99640327       0.84717081
H        2.13263776      -0.73407978      -0.83932064
H       -0.53960557       2.03035675       0.39985372
11
Frame=4 idx=005400 GeodesicLength=0.2663467434735882 rxn_smarts="[N:1]([c:2]1[c:3]([H:9])[c:4]([H:10])[n:5][n:6]1[H:11])([H:7])[H:8]>>[N:1](=[c:2]1\[c:3]([H:9])[c:4]([H:10])[n:5]([H:8])[n:6]1[H:11])\[H:7]"
N       -1.63686795       0.05911170      -0.09709716
C       -0.56111836       0.03570799       0.69013992
C        0.49425546      -0.94495732       0.61434583
C        1.32014716      -0.31345510      -0.27080091
N        0.86680830       0.95481682      -0.59197043
N        0.09178564       1.25679217       0.56509870
H       -2.02346216      -0.86989463      -0.22841201
H       -0.59429091       0.50867602      -1.10417338
H        0.42420079      -1.99572290       0.83885974
H        2.14641779      -0.73001070      -0.82827854
H       -0.52787575       2.03893594       0.41228825
11
Frame=5 idx=005400 GeodesicLength=0.33287996410709336 rxn_smarts="[N:1]([c:2]1[c:3]([H:9])[c:4]([H:10])[n:5][n:6]1[H:11])([H:7])[H:8]>>[N:1](=[c:2]1\[c:3]([H:9])[c:4]([H:10])[n:5]([H:8])[n:6]1[H:11])\[H:7]"
N       -1.64628421       0.05237878      -0.09607356
C       -0.56535621       0.03301343       0.68726797
C        0.49365855      -0.94304683       0.61216401
C        1.32923857      -0.31058976      -0.26564468
N        0.87000386       0.95170881      -0.59487353
N        0.09074846       1.25196810       0.55612643
H       -2.03576394      -0.87735785      -0.20996714
H       -0.60070636       0.51537293      -1.12768810
H        0.41991088      -1.99497159       0.83045498
H        2.16009843      -0.72590155      -0.81702132
H       -0.51554801       2.04742552       0.42525494
11
Frame=6 idx=005400 GeodesicLength=0.3994034937426566 rxn_smarts="[N:1]([c:2]1[c:3]([H:9])[c:4]([H:10])[n:5][n:6]1[H:11])([H:7])[H:8]>>[N:1](=[c:2]1\[c:3]([H:9])[c:4]([H:10])[n:5]([H:8])[n:6]1[H:11])\[H:7]"
N       -1.65580485       0.04534336      -0.09512682
C       -0.56970869       0.03031005       0.68429946
C        0.49298596      -0.94108522       0.60994475
C        1.33841243      -0.30757130      -0.26014793
N        0.87310336       0.94845939      -0.59797327
N        0.08938793       1.24718051       0.54673560
H       -2.04805738      -0.88488131      -0.19115961
H       -0.60715375       0.52233184      -1.15180437
H        0.41570252      -1.99414431       0.82195140
H        2.17368006      -0.72173265      -0.80552268
H       -0.50254758       2.05578963       0.43880346
11
Frame=7 idx=005400 GeodesicLength=0.4659150309129469 rxn_smarts="[N:1]([c:2]1[c:3]([H:9])[c:4]([H:10])[n:5][n:6]1[H:11])([H:7])[H:8]>>[N:1](=[c:2]1\[c:3]([H:9])[c:4]([H:10])[n:5]([H:8])[n:6]1[H:11])\[H:7]"
N       -1.66544179       0.03798479      -0.09425855
C       -0.57418408       0.02759927       0.68122417
C        0.49223478      -0.93906287       0.60768749
C        1.34765771      -0.30438439      -0.25430027
N        0.87609405       0.94505792      -0.60129205
N        0.08767974       1.24243555       0.53688730
H       -2.06034716      -0.89246585      -0.17197155
H       -0.61363374       0.52955732      -1.17656013
H        0.41157743      -1.99322877       0.81335140
H        2.18716986      -0.71748872      -0.79375665
H       -0.48880679       2.06399575       0.45298885
11
Frame=8 idx=005400 GeodesicLength=0.5324257455863783 rxn_smarts="[N:1]([c:2]1[c:3]([H:9])[c:4]([H:10])[n:5][n:6]1[H:11])([H:7])[H:8]>>[N:1](=[c:2]1\[c:3]([H:9])[c:4]([H:10])[n:5]([H:8])[n:6]1[H:11])\[H:7]"
N       -1.67521400       0.03028073      -0.09346893
C       -0.57879679       0.02488593       0.67802836
C        0.49139883      -0.93696378       0.60539551
C        1.35695804      -0.30100916      -0.24809123
N        0.87895865       0.94149205      -0.60486010
N        0.08558795       1.23774371       0.52652757
H       -2.07263644      -0.90011405      -0.15237969
H       -0.62014992       0.53704906      -1.20200644
H        0.40753779      -1.99221251       0.80465444
H        2.20057492      -0.71313805      -0.78168241
H       -0.47421903       2.07198607       0.46788292
11
Frame=9 idx=005400 GeodesicLength=0.5989296403452476 rxn_smarts="[N:1]([c:2]1[c:3]([H:9])[c:4]([H:10])[n:5][n:6]1[H:11])([H:7])[H:8]>>[N:1](=[c:2]1\[c:3]([H:9])[c:4]([H:10])[n:5]([H:8])[n:6]1[H:11])\[H:7]"
N       -1.68514095       0.02221044      -0.09272855
C       -0.58355972       0.02217775       0.67471175
C        0.49047175      -0.93477475       0.60306458
C        1.36627717      -0.29742427      -0.24153127
N        0.88167298       0.93774565      -0.60870395
N        0.08309222       1.23309824       0.51561527
H       -2.08492600      -0.90782115      -0.13237719
H       -0.62672014       0.54484867      -1.22817583
H        0.40358604      -1.99108059       0.79586316
H        2.21393534      -0.70864987      -0.76924088
H       -0.45868869       2.07966988       0.48350291
11
Frame=10 idx=005400 GeodesicLength=0.665439741410925 rxn_smarts="[N:1]([c:2]1[c:3]([H:9])[c:4]([H:10])[n:5][n:6]1[H:11])([H:7])[H:8]>>[N:1](=[c:2]1\[c:3]([H:9])[c:4]([H:10])[n:5]([H:8])[n:6]1[H:11])\[H:7]"
N       -1.69524654       0.01374665      -0.09206944
C       -0.58849373       0.01948111       0.67124144
C        0.48944727      -0.93247026       0.60070339
C        1.37561329      -0.29359924      -0.23459100
N        0.88421621       0.93380720      -0.61286685
N        0.08012521       1.22852921       0.50406498
H       -2.09722970      -0.91559467      -0.11192513
H       -0.63334292       0.55290161      -1.25514854
H        0.39972758      -1.98981344       0.78698077
H        2.22723507      -0.70398040      -0.75639315
H       -0.44205172       2.08699224       0.50000353
11
Frame=11 idx=005400 GeodesicLength=0.7319461196414262 rxn_smarts="[N:1]([c:2]1[c:3]([H:9])[c:4]([H:10])[n:5][n:6]1[H:11])([H:7])[H:8]>>[N:1](=[c:2]1\[c:3]([H:9])[c:4]([H:10])[n:5]([H:8])[n:6]1[H:11])\[H:7]"
N       -1.70555577       0.00486516      -0.09148954
C       -0.59361829       0.01680714       0.66759927
C        0.48831431      -0.93002582       0.59831320
C        1.38493503      -0.28950232      -0.22726816
N        0.88655746       0.92966210      -0.61739523
N        0.07663881       1.22405206       0.49180169
H       -2.10954800      -0.92344603      -0.09100988
H       -0.64003913       0.56120264      -1.28298480
H        0.39596302      -1.98838227       0.77801945
H        2.24049907      -0.69908916      -0.74307635
H       -0.42414651       2.09385650       0.51749036
11
Frame=12 idx=005400 GeodesicLength=0.7984443114861628 rxn_smarts="[N:1]([c:2]1[c:3]([H:9])[c:4]([H:10])[n:5][n:6]1[H:11])([H:7])[H:8]>>[N:1](=[c:2]1\[c:3]([H:9])[c:4]([H:10])[n:5]([H:8])[n:6]1[H:11])\[H:7]"
N       -1.71609716      -0.00446626      -0.09099691
C       -0.59895943       0.01416802       0.66375959
C        0.48706357      -0.92741070       0.59590058
C        1.39421415      -0.28509318      -0.21955281
N        0.88866674       0.92528965      -0.62233316
N        0.07256921       1.21968278       0.47874090
H       -2.12189207      -0.93136912      -0.06960369
H       -0.64682261       0.56972594      -1.31175949
H        0.39229929      -1.98676061       0.76898764
H        2.25372903      -0.69390197      -0.72922095
H       -0.40477070       2.10013546       0.53607830
11
Frame=13 idx=005400 GeodesicLength=0.8649216993289754 rxn_smarts="[N:1]([c:2]1[c:3]([H:9])[c:4]([H:10])[n:5][n:6]1[H:11])([H:7])[H:8]>>[N:1](=[c:2]1\[c:3]([H:9])[c:4]([H:10])[n:5]([H:8])[n:6]1[H:11])\[H:7]"
N       -1.72690711      -0.01427650      -0.09059184
C       -0.60454654       0.01158482       0.65969565
C        0.48567686      -0.92458282       0.59347407
C        1.40340784      -0.28032453      -0.21144331
N        0.89049713       0.92067849      -0.62774657
N        0.06784733       1.21544846       0.46477730
H       -2.13425616      -0.93938549      -0.04770095
H       -0.65371997       0.57844980      -1.34155353
H        0.38873456      -1.98490063       0.75991320
H        2.26694963      -0.68836070      -0.71474786
H       -0.38368357       2.10566909       0.55592385
11
Frame=14 idx=005400 GeodesicLength=0.931365788465316 rxn_smarts="[N:1]([c:2]1[c:3]([H:9])[c:4]([H:10])[n:5][n:6]1[H:11])([H:7])[H:8]>>[N:1](=[c:2]1\[c:3]([H:9])[c:4]([H:10])[n:5]([H:8])[n:6]1[H:11])\[H:7]"
N       -1.73802187      -0.02460569      -0.09028826
C       -0.61041662       0.00907903       0.65536950
C        0.48413567      -0.92149323       0.59104474
C        1.41246858      -0.27513628      -0.20293559
N        0.89200522       0.91580818      -0.63369299
N        0.06238487       1.21137777       0.44979976
H       -2.14665171      -0.94748739      -0.02527069
H       -0.66074584       0.58732947      -1.37246627
H        0.38527470      -1.98275590       0.75082184
H        2.28015804      -0.68235392      -0.69956526
H       -0.36059102       2.11023797       0.57718321
11
Frame=15 idx=005400 GeodesicLength=0.9977498573034674 rxn_smarts="[N:1]([c:2]1[c:3]([H:9])[c:4]([H:10])[n:5][n:6]1[H:11])([H:7])[H:8]>>[N:1](=[c:2]1\[c:3]([H:9])[c:4]([H:10])[n:5]([H:8])[n:6]1[H:11])\[H:7]"
N       -1.74948492      -0.03549139      -0.09008844
C       -0.61661128       0.00668290       0.65074156
C        0.48241367      -0.91807627       0.58863034
C        1.42133523      -0.26945807      -0.19403195
N        0.89313155       0.91067201      -0.64024170
N        0.05608650       1.20751149       0.43368173
H       -2.15907187      -0.95569130      -0.00231259
H       -0.66792396       0.59632835      -1.40459640
H        0.38191907      -1.98025606       0.74176570
H        2.29335817      -0.67577972      -0.68357985
H       -0.33515214       2.11355805       0.60003159
11
Frame=16 idx=005400 GeodesicLength=1.0640710706036198 rxn_smarts="[N:1]([c:2]1[c:3]([H:9])[c:4]([H:10])[n:5][n:6]1[H:11])([H:7])[H:8]>>[N:1](=[c:2]1\[c:3]([H:9])[c:4]([H:10])[n:5]([H:8])[n:6]1[H:11])\[H:7]"
N       -1.76135722      -0.04697254      -0.09001157
C       -0.62318665       0.00444534       0.64576222
C        0.48048678      -0.91425731       0.58625523
C        1.42994229      -0.26320700      -0.18473398
N        0.89379479       0.90526974      -0.64747596
N        0.04881704       1.20392309       0.41627359
H       -2.17152813      -0.96400761       0.02118606
H       -0.67530573       0.60541003      -1.43807691
H        0.37868588      -1.97733516       0.73281393
H        2.30657560      -0.66850747      -0.66666479
H       -0.30692466       2.11523888       0.62467218
