10
Frame=0 idx=002358 GeodesicLength=0.0 rxn_smarts="[O:1]([C@@:2]1([H:8])[C:3]([H:9])([H:10])[O:4][C:5]1=[O:6])[H:7]>>[O:1]([C@@:2]1([H:8])[C@@:5]2([C:3]([H:9])([H:10])[O:4]2)[O:6]1)[H:7]"
O       -1.10491378      -1.64631879       0.17737681
C       -0.36080173      -0.81719653      -0.44877984
C        0.28826201       1.43041811       0.36289270
O        1.14383816       0.98759025      -0.66457344
C        0.64180511      -0.03638619       0.27010346
O        1.37257260      -0.75638361       1.01115192
H       -1.65687911      -2.17133889      -0.41558055
H       -0.43895684      -0.78437384      -1.53943979
H        0.77320737       1.92579756       1.20239183
H       -0.65813379       1.86819193       0.04445690
10
Frame=1 idx=002358 GeodesicLength=0.07792766034425597 rxn_smarts="[O:1]([C@@:2]1([H:8])[C:3]([H:9])([H:10])[O:4][C:5]1=[O:6])[H:7]>>[O:1]([C@@:2]1([H:8])[C@@:5]2([C:3]([H:9])([H:10])[O:4]2)[O:6]1)[H:7]"
O       -1.13619835      -1.59386676       0.19726604
C       -0.35607491      -0.80064697      -0.44318750
C        0.27040828       1.42031986       0.36244082
O        1.15936332       1.00237149      -0.65127547
C        0.67349612      -0.04032674       0.25627975
O        1.38719322      -0.80381759       0.96672035
H       -1.63876236      -2.17098230      -0.39055524
H       -0.42336078      -0.79195012      -1.53483592
H        0.72568789       1.91201954       1.22049450
H       -0.66175244       1.86687959       0.01665266
10
Frame=2 idx=002358 GeodesicLength=0.15600563789767408 rxn_smarts="[O:1]([C@@:2]1([H:8])[C:3]([H:9])([H:10])[O:4][C:5]1=[O:6])[H:7]>>[O:1]([C@@:2]1([H:8])[C@@:5]2([C:3]([H:9])([H:10])[O:4]2)[O:6]1)[H:7]"
O       -1.16261955      -1.54512056       0.21406949
C       -0.35112093      -0.78400411      -0.43801412
C        0.25241759       1.41010922       0.36131542
O        1.17570590       1.01624313      -0.63553184
C        0.70299751      -0.04387961       0.24400090
O        1.39940108      -0.85082772       0.92009157
H       -1.62105735      -2.16890964      -0.36144255
H       -0.40924559      -0.79808638      -1.52996905
H        0.67658310       1.89679109       1.23796892
H       -0.66306176       1.86768458      -0.01248874
10
Frame=3 idx=002358 GeodesicLength=0.2341434584325201 rxn_smarts="[O:1]([C@@:2]1([H:8])[C:3]([H:9])([H:10])[O:4][C:5]1=[O:6])[H:7]>>[O:1]([C@@:2]1([H:8])[C@@:5]2([C:3]([H:9])([H:10])[O:4]2)[O:6]1)[H:7]"
O       -1.18523532      -1.49934078       0.22845081
C       -0.34583319      -0.76745174      -0.43330288
C        0.23441597       1.39984814       0.35951498
O        1.19259107       1.02912369      -0.61744869
C        0.73049718      -0.04721249       0.23326514
O        1.40932791      -0.89693777       0.87145349
H       -1.60346573      -2.16563186      -0.32913934
H       -0.39635190      -0.80292387      -1.52496100
H        0.62633112       1.88041428       1.25432594
H       -0.66227710       1.87011239      -0.04215845
10
Frame=4 idx=002358 GeodesicLength=0.3123930791879024 rxn_smarts="[O:1]([C@@:2]1([H:8])[C:3]([H:9])([H:10])[O:4][C:5]1=[O:6])[H:7]>>[O:1]([C@@:2]1([H:8])[C@@:5]2([C:3]([H:9])([H:10])[O:4]2)[O:6]1)[H:7]"
O       -1.20413553      -1.45719645       0.24140146
C       -0.34030574      -0.75112112      -0.42859261
C        0.21647393       1.38968280       0.35691591
O        1.20998941       1.04106290      -0.59706318
C        0.75630300      -0.05034513       0.22428216
O        1.41754417      -0.94185020       0.82068876
H       -1.58656907      -2.16079562      -0.29505972
H       -0.38475735      -0.80656628      -1.51952441
H        0.57482373       1.86314686       1.26938645
H       -0.65936655       1.87398225      -0.07243482
10
Frame=5 idx=002358 GeodesicLength=0.39073815469004486 rxn_smarts="[O:1]([C@@:2]1([H:8])[C:3]([H:9])([H:10])[O:4][C:5]1=[O:6])[H:7]>>[O:1]([C@@:2]1([H:8])[C@@:5]2([C:3]([H:9])([H:10])[O:4]2)[O:6]1)[H:7]"
O       -1.21961663      -1.41858277       0.25360240
C       -0.33441227      -0.73521269      -0.42372094
C        0.19864035       1.37962244       0.35349084
O        1.22771391       1.05206434      -0.57442359
C        0.78066514      -0.05337363       0.21709154
O        1.42442580      -0.98517139       0.76782879
H       -1.57079503      -2.15424633      -0.26012172
H       -0.37429116      -0.80917658      -1.51357861
H        0.52214732       1.84519345       1.28285246
H       -0.65447743       1.87888316      -0.10302117
10
Frame=6 idx=002358 GeodesicLength=0.46914779287525304 rxn_smarts="[O:1]([C@@:2]1([H:8])[C:3]([H:9])([H:10])[O:4][C:5]1=[O:6])[H:7]>>[O:1]([C@@:2]1([H:8])[C@@:5]2([C:3]([H:9])([H:10])[O:4]2)[O:6]1)[H:7]"
O       -1.23272026      -1.38274717       0.26511420
C       -0.32837478      -0.71965215      -0.41881460
C        0.18114474       1.36973867       0.34926658
O        1.24571430       1.06203779      -0.54958174
C        0.80363232      -0.05647998       0.21156561
O        1.42962585      -1.02667462       0.71321471
H       -1.55501371      -2.14715183      -0.22437291
H       -0.36520356      -0.81048925      -1.50735635
H        0.46873265       1.82672480       1.29452898
H       -0.64753757       1.88469375      -0.13356449
10
Frame=7 idx=002358 GeodesicLength=0.5476339589038928 rxn_smarts="[O:1]([C@@:2]1([H:8])[C:3]([H:9])([H:10])[O:4][C:5]1=[O:6])[H:7]>>[O:1]([C@@:2]1([H:8])[C@@:5]2([C:3]([H:9])([H:10])[O:4]2)[O:6]1)[H:7]"
O       -1.24355746      -1.34972970       0.27637164
C       -0.32217246      -0.70454169      -0.41375291
C        0.16402922       1.36003796       0.34423616
O        1.26384593       1.07100105      -0.52257172
C        0.82538963      -0.05974683       0.20768031
O        1.43339354      -1.06607416       0.65692521
H       -1.53954658      -2.13937314      -0.18837384
H       -0.35740753      -0.81063352      -1.50082783
H        0.41465428       1.80787648       1.30424789
H       -0.63862856       1.89118356      -0.16393492
10
Frame=8 idx=002358 GeodesicLength=0.6262186730924527 rxn_smarts="[O:1]([C@@:2]1([H:8])[C:3]([H:9])([H:10])[O:4][C:5]1=[O:6])[H:7]>>[O:1]([C@@:2]1([H:8])[C@@:5]2([C:3]([H:9])([H:10])[O:4]2)[O:6]1)[H:7]"
O       -1.25252275      -1.31921722       0.28753252
C       -0.31585692      -0.68990090      -0.40856678
C        0.14738976       1.35052189       0.33841530
O        1.28201606       1.07895543      -0.49339608
C        0.84604972      -0.06328652       0.20532430
O        1.43575659      -1.10314564       0.59910164
H       -1.52419671      -2.13117714      -0.15224124
H       -0.35089664      -0.80962564      -1.49409548
H        0.36004578       1.78871532       1.31190205
H       -0.62778489       1.89816041      -0.19397623
10
Frame=9 idx=002358 GeodesicLength=0.704894742346513 rxn_smarts="[O:1]([C@@:2]1([H:8])[C:3]([H:9])([H:10])[O:4][C:5]1=[O:6])[H:7]>>[O:1]([C@@:2]1([H:8])[C@@:5]2([C:3]([H:9])([H:10])[O:4]2)[O:6]1)[H:7]"
O       -1.26008240      -1.29080358       0.29853131
C       -0.30949352      -0.67573070      -0.40338490
C        0.13132839       1.34117595       0.33185355
O        1.30011178       1.08588311      -0.46207102
C        0.86568004      -0.06723246       0.20430691
O        1.43663333      -1.13768512       0.54001334
H       -1.50856062      -2.12291300      -0.11582703
H       -0.34568207      -0.80744109      -1.48735180
H        0.30512233       1.76929473       1.31741551
H       -0.61505725       1.90545216      -0.22348586
10
Frame=10 idx=002358 GeodesicLength=0.7837561990069308 rxn_smarts="[O:1]([C@@:2]1([H:8])[C:3]([H:9])([H:10])[O:4][C:5]1=[O:6])[H:7]>>[O:1]([C@@:2]1([H:8])[C@@:5]2([C:3]([H:9])([H:10])[O:4]2)[O:6]1)[H:7]"
O       -1.26614448      -1.26459536       0.30973805
C       -0.30310059      -0.66206980      -0.39812333
C        0.11586491       1.33198081       0.32452862
O        1.31803305       1.09182166      -0.42857848
C        0.88443265      -0.07164039       0.20449962
O        1.43616106      -1.16948875       0.47975651
H       -1.49287477      -2.11448221      -0.07946722
H       -0.34182162      -0.80415265      -1.48055872
H        0.24982305       1.74959277       1.32070584
H       -0.60037324       1.91303390      -0.25250089
10
Frame=11 idx=002358 GeodesicLength=0.8627167042145149 rxn_smarts="[O:1]([C@@:2]1([H:8])[C:3]([H:9])([H:10])[O:4][C:5]1=[O:6])[H:7]>>[O:1]([C@@:2]1([H:8])[C@@:5]2([C:3]([H:9])([H:10])[O:4]2)[O:6]1)[H:7]"
O       -1.27121648      -1.24014103       0.32086132
C       -0.29673467      -0.64891599      -0.39299083
C        0.10107914       1.32290883       0.31653353
O        1.33559816       1.09674558      -0.39296599
C        0.90231979      -0.07662557       0.20565626
O        1.43425000      -1.19841484       0.41872047
H       -1.47667796      -2.10620269      -0.04283308
H       -0.33924853      -0.79978290      -1.47396041
H        0.19450974       1.72970375       1.32171348
H       -0.58387918       1.92072486      -0.28073475
10
Frame=12 idx=002358 GeodesicLength=0.941878644787653 rxn_smarts="[O:1]([C@@:2]1([H:8])[C:3]([H:9])([H:10])[O:4][C:5]1=[O:6])[H:7]>>[O:1]([C@@:2]1([H:8])[C@@:5]2([C:3]([H:9])([H:10])[O:4]2)[O:6]1)[H:7]"
O       -1.27524110      -1.21747429       0.33214223
C       -0.29043579      -0.63626637      -0.38796714
C        0.08699653       1.31395589       0.30784319
O        1.35272500       1.10067565      -0.35518529
C        0.91945545      -0.08223435       0.20759345
O        1.43097352      -1.22435979       0.35701722
H       -1.46004318      -2.09803195      -0.00606117
H       -0.33803441      -0.79440035      -1.46755223
H        0.13910730       1.70958414       1.32038187
H       -0.56550333       1.92855144      -0.30821213
10
Frame=13 idx=002358 GeodesicLength=1.0211718901490128 rxn_smarts="[O:1]([C@@:2]1([H:8])[C:3]([H:9])([H:10])[O:4][C:5]1=[O:6])[H:7]>>[O:1]([C@@:2]1([H:8])[C@@:5]2([C:3]([H:9])([H:10])[O:4]2)[O:6]1)[H:7]"
O       -1.27858254      -1.19618934       0.34332371
C       -0.28422055      -0.62411990      -0.38321281
C        0.07367513       1.30509102       0.29852722
O        1.36920678       1.10355266      -0.31523209
C        0.93583098      -0.08852985       0.21012124
O        1.42638432      -1.24724235       0.29484531
H       -1.44267568      -2.09000383       0.03115890
H       -0.33804873      -0.78812600      -1.46149107
H        0.08384292       1.68926412       1.31668206
H       -0.54541264       1.93630348      -0.33472247
10
Frame=14 idx=002358 GeodesicLength=1.100614817667748 rxn_smarts="[O:1]([C@@:2]1([H:8])[C:3]([H:9])([H:10])[O:4][C:5]1=[O:6])[H:7]>>[O:1]([C@@:2]1([H:8])[C@@:5]2([C:3]([H:9])([H:10])[O:4]2)[O:6]1)[H:7]"
O       -1.28123590      -1.17635714       0.35449153
C       -0.27813593      -0.61246982      -0.37876483
C        0.06108158       1.29630534       0.28862646
O        1.38485415       1.10538367      -0.27316455
C        0.95153478      -0.09554457       0.21300993
O        1.42050944      -1.26704890       0.23250032
H       -1.42458013      -2.08214302       0.06873141
H       -0.33930063      -0.78104583      -1.45581226
H        0.02887747       1.66884108       1.31057093
H       -0.52360483       1.94407919      -0.36018893
10
Frame=15 idx=002358 GeodesicLength=1.180204131939891 rxn_smarts="[O:1]([C@@:2]1([H:8])[C:3]([H:9])([H:10])[O:4][C:5]1=[O:6])[H:7]>>[O:1]([C@@:2]1([H:8])[C@@:5]2([C:3]([H:9])([H:10])[O:4]2)[O:6]1)[H:7]"
O       -1.28321457      -1.15794283       0.36566167
C       -0.27222282      -0.60129856      -0.37467707
C        0.04920970       1.28758312       0.27817077
O        1.39946072       1.10611774      -0.22897248
C        0.96659791      -0.10329121       0.21605034
O        1.41336265      -1.28377151       0.17018461
H       -1.40565403      -2.07443561       0.10664670
H       -0.34180655      -0.77324958      -1.45054280
H       -0.02566370       1.64841757       1.30200661
H       -0.50006932       1.95187086      -0.38452836
10
Frame=16 idx=002358 GeodesicLength=1.2599555324288432 rxn_smarts="[O:1]([C@@:2]1([H:8])[C:3]([H:9])([H:10])[O:4][C:5]1=[O:6])[H:7]>>[O:1]([C@@:2]1([H:8])[C@@:5]2([C:3]([H:9])([H:10])[O:4]2)[O:6]1)[H:7]"
O       -1.28476792      -1.14059572       0.37666295
C       -0.26647446      -0.59059300      -0.37105472
C        0.03810734       1.27891115       0.26717041
O        1.41287213       1.10565037      -0.18254937
C        0.98103594      -0.11180839       0.21911217
O        1.40511504      -1.29742061       0.10783156
H       -1.38567312      -2.06671809       0.14527899
H       -0.34547717      -0.76484533      -1.44576063
H       -0.07983788       1.62788192       1.29098776
H       -0.47489991       1.95953770      -0.40767912
