11
Frame=0 idx=004039 GeodesicLength=0.0 rxn_smarts="[O:1]([c:2]1[c:3]([H:8])[n:4]([H:9])[c:5]([H:10])[c:6]1[H:11])[H:7]>>[O-:1][C:2]1=[C:3]([H:8])[N:4]([H:9])[C+:5]([H:10])[C:6]1([H:7])[H:11]"
O        2.30298210      -0.11881165      -0.25336242
C        1.04303629      -0.31143032       0.00546438
C        0.07767455      -1.22497487      -0.36668411
N       -1.14515214      -0.57296483      -0.21856896
C       -1.02363183       0.66739412       0.22725304
C        0.35063342       0.91395108       0.44960265
H        1.46926687       1.05939242      -0.29534315
H        0.14560473      -2.18012635      -0.85659152
H       -2.02732801      -0.99405157      -0.45688847
H       -1.89077605       1.26053770       0.47317292
H        0.69769009       1.50108430       1.29194565
11
Frame=1 idx=004039 GeodesicLength=0.04995965452385766 rxn_smarts="[O:1]([c:2]1[c:3]([H:8])[n:4]([H:9])[c:5]([H:10])[c:6]1[H:11])[H:7]>>[O-:1][C:2]1=[C:3]([H:8])[N:4]([H:9])[C+:5]([H:10])[C:6]1([H:7])[H:11]"
O        2.29954031      -0.12227079      -0.25572324
C        1.04270770      -0.31651287       0.01622642
C        0.07594583      -1.22551283      -0.36637506
N       -1.14589545      -0.57534236      -0.21471042
C       -1.02398386       0.66856186       0.22262448
C        0.35070136       0.91519844       0.44719243
H        1.48236943       1.06861775      -0.29784247
H        0.14579801      -2.17511406      -0.86676725
H       -2.02841868      -0.99892206      -0.44709297
H       -1.89096257       1.26194420       0.46835481
H        0.69219792       1.49935273       1.29411326
11
Frame=2 idx=004039 GeodesicLength=0.09990985157396355 rxn_smarts="[O:1]([c:2]1[c:3]([H:8])[n:4]([H:9])[c:5]([H:10])[c:6]1[H:11])[H:7]>>[O-:1][C:2]1=[C:3]([H:8])[N:4]([H:9])[C+:5]([H:10])[C:6]1([H:7])[H:11]"
O        2.29564718      -0.12534653      -0.25925906
C        1.04235220      -0.32161729       0.02692902
C        0.07419459      -1.22630451      -0.36535054
N       -1.14664417      -0.57785931      -0.21050994
C       -1.02432832       0.66945803       0.21854902
C        0.35082701       0.91629071       0.44491034
H        1.49545984       1.07824396      -0.30048514
H        0.14592799      -2.17072662      -0.87525927
H       -2.02922500      -1.00271166      -0.44017691
H       -1.89112631       1.26293348       0.46449060
H        0.68691500       1.49763975       1.29616188
11
Frame=3 idx=004039 GeodesicLength=0.1498612874912231 rxn_smarts="[O:1]([c:2]1[c:3]([H:8])[n:4]([H:9])[c:5]([H:10])[c:6]1[H:11])[H:7]>>[O-:1][C:2]1=[C:3]([H:8])[N:4]([H:9])[C+:5]([H:10])[C:6]1([H:7])[H:11]"
O        2.29134768      -0.12810225      -0.26370266
C        1.04197852      -0.32676298       0.03754666
C        0.07242385      -1.22724383      -0.36396694
N       -1.14738814      -0.58037673      -0.20633983
C       -1.02463905       0.67021264       0.21468196
C        0.35100927       0.91719896       0.44277886
H        1.50873479       1.08829524      -0.30295333
H        0.14600816      -2.16672187      -0.88273743
H       -2.02993369      -1.00605326      -0.43444870
H       -1.89123435       1.26380886       0.46084489
H        0.68169295       1.49574522       1.29829653
11
Frame=4 idx=004039 GeodesicLength=0.19982513767755783 rxn_smarts="[O:1]([c:2]1[c:3]([H:8])[n:4]([H:9])[c:5]([H:10])[c:6]1[H:11])[H:7]>>[O-:1][C:2]1=[C:3]([H:8])[N:4]([H:9])[C+:5]([H:10])[C:6]1([H:7])[H:11]"
O        2.28663884      -0.13053299      -0.26899970
C        1.04159113      -0.33196087       0.04805051
C        0.07062693      -1.22831057      -0.36232977
N       -1.14812716      -0.58285760      -0.20231757
C       -1.02489722       0.67089219       0.21085389
C        0.35125126       0.91791886       0.44079933
H        1.52228917       1.09880839      -0.30509150
H        0.14602789      -2.16304668      -0.88941164
H       -2.03060922      -1.00916767      -0.42933516
H       -1.89126427       1.26467207       0.45717866
H        0.67647265       1.49358489       1.30060295
11
Frame=5 idx=004039 GeodesicLength=0.24978308056306253 rxn_smarts="[O:1]([c:2]1[c:3]([H:8])[n:4]([H:9])[c:5]([H:10])[c:6]1[H:11])[H:7]>>[O-:1][C:2]1=[C:3]([H:8])[N:4]([H:9])[C+:5]([H:10])[C:6]1([H:7])[H:11]"
O        2.28156452      -0.13276554      -0.27476900
C        1.04117706      -0.33724870       0.05845642
C        0.06881025      -1.22939068      -0.36081097
N       -1.14884336      -0.58518863      -0.19873792
C       -1.02506785       0.67163699       0.20659926
C        0.35154283       0.91842330       0.43894722
H        1.53636655       1.10975868      -0.30652313
H        0.14600486      -2.15928137      -0.89621173
H       -2.03141941      -1.01274416      -0.42283431
H       -1.89117182       1.26582576       0.45266538
H        0.67103638       1.49097436       1.30321878
11
Frame=6 idx=004039 GeodesicLength=0.29974772840079617 rxn_smarts="[O:1]([c:2]1[c:3]([H:8])[n:4]([H:9])[c:5]([H:10])[c:6]1[H:11])[H:7]>>[O-:1][C:2]1=[C:3]([H:8])[N:4]([H:9])[C+:5]([H:10])[C:6]1([H:7])[H:11]"
O        2.27595514      -0.13455961      -0.28169636
C        1.04077986      -0.34258543       0.06874403
C        0.06695443      -1.23072746      -0.35867246
N       -1.14957008      -0.58759454      -0.19500373
C       -1.02520126       0.67220647       0.20267162
C        0.35190466       0.91876014       0.43721900
H        1.55062748       1.12121618      -0.30781181
H        0.14590289      -2.15612207      -0.90161432
H       -2.03207034      -1.01557172      -0.41841780
H       -1.89101579       1.26673055       0.44874277
H        0.66573302       1.48824748       1.30583907
11
Frame=7 idx=004039 GeodesicLength=0.34971823859914103 rxn_smarts="[O:1]([c:2]1[c:3]([H:8])[n:4]([H:9])[c:5]([H:10])[c:6]1[H:11])[H:7]>>[O-:1][C:2]1=[C:3]([H:8])[N:4]([H:9])[C+:5]([H:10])[C:6]1([H:7])[H:11]"
O        2.26983119      -0.13596257      -0.28959753
C        1.04039609      -0.34798711       0.07889496
C        0.06505884      -1.23225571      -0.35615875
N       -1.15029858      -0.59000438      -0.19130984
C       -1.02526563       0.67269519       0.19876812
C        0.35233320       0.91891227       0.43561711
H        1.56523912       1.13319927      -0.30867554
H        0.14571772      -2.15335487      -0.90617759
H       -2.03267797      -1.01810770      -0.41479471
H       -1.89075800       1.26760898       0.44483507
H        0.66042400       1.48525663       1.30859870
11
Frame=8 idx=004039 GeodesicLength=0.399713800603538 rxn_smarts="[O:1]([c:2]1[c:3]([H:8])[n:4]([H:9])[c:5]([H:10])[c:6]1[H:11])[H:7]>>[O-:1][C:2]1=[C:3]([H:8])[N:4]([H:9])[C+:5]([H:10])[C:6]1([H:7])[H:11]"
O        2.26320584      -0.13701482      -0.29822695
C        1.04002428      -0.35348741       0.08888088
C        0.06312436      -1.23389536      -0.35357189
N       -1.15102852      -0.59237078      -0.18779765
C       -1.02523698       0.67320969       0.19454850
C        0.35283130       0.91886072       0.43412646
H        1.58040065       1.14571522      -0.30880023
H        0.14544225      -2.15071645      -0.91053141
H       -2.03336617      -1.02084490      -0.41055353
H       -1.89036655       1.26869591       0.44030878
H        0.65496954       1.48184817       1.31161704
11
Frame=9 idx=004039 GeodesicLength=0.4497529255278363 rxn_smarts="[O:1]([c:2]1[c:3]([H:8])[n:4]([H:9])[c:5]([H:10])[c:6]1[H:11])[H:7]>>[O-:1][C:2]1=[C:3]([H:8])[N:4]([H:9])[C+:5]([H:10])[C:6]1([H:7])[H:11]"
O        2.25606129      -0.13768659      -0.30765006
C        1.03967209      -0.35909838       0.09868084
C        0.06114640      -1.23565571      -0.35091752
N       -1.15176199      -0.59474300      -0.18434875
C       -1.02509601       0.67373120       0.18999928
C        0.35339974       0.91859480       0.43276082
H        1.59616037       1.15879326      -0.30807319
H        0.14505280      -2.14815071      -0.91478427
H       -2.03415438      -1.02383152      -0.40553595
H       -1.88982157       1.27005863       0.43494455
H        0.64934127       1.47798803       1.31492426
11
Frame=10 idx=004039 GeodesicLength=0.4998641081487273 rxn_smarts="[O:1]([c:2]1[c:3]([H:8])[n:4]([H:9])[c:5]([H:10])[c:6]1[H:11])[H:7]>>[O-:1][C:2]1=[C:3]([H:8])[N:4]([H:9])[C+:5]([H:10])[C:6]1([H:7])[H:11]"
O        2.24836115      -0.13793068      -0.31779676
C        1.03933738      -0.36483498       0.10827402
C        0.05912393      -1.23753302      -0.34825583
N       -1.15251559      -0.59713283      -0.18090935
C       -1.02484784       0.67429028       0.18501485
C        0.35404141       0.91811632       0.43148373
H        1.61264119       1.17239975      -0.30639049
H        0.14455039      -2.14560594      -0.91910327
H       -2.03506861      -1.02715732      -0.39945560
H       -1.88912636       1.27173460       0.42863228
H        0.64350294       1.47365382       1.31850643
11
Frame=11 idx=004039 GeodesicLength=0.5498682520193983 rxn_smarts="[O:1]([c:2]1[c:3]([H:8])[n:4]([H:9])[c:5]([H:10])[c:6]1[H:11])[H:7]>>[O-:1][C:2]1=[C:3]([H:8])[N:4]([H:9])[C+:5]([H:10])[C:6]1([H:7])[H:11]"
O        2.23991789      -0.13760376      -0.32893638
C        1.03905517      -0.37071730       0.11756688
C        0.05703969      -1.23955701      -0.34557435
N       -1.15324725      -0.59956968      -0.17748125
C       -1.02441831       0.67489647       0.17941927
C        0.35476303       0.91740842       0.43025358
H        1.62999175       1.18656780      -0.30323820
H        0.14386246      -2.14297900      -0.92360715
H       -2.03612262      -1.03096564      -0.39176668
H       -1.88818598       1.27383273       0.42095396
H        0.63734417       1.46868696       1.32241031
11
Frame=12 idx=004039 GeodesicLength=0.599927565571003 rxn_smarts="[O:1]([c:2]1[c:3]([H:8])[n:4]([H:9])[c:5]([H:10])[c:6]1[H:11])[H:7]>>[O-:1][C:2]1=[C:3]([H:8])[N:4]([H:9])[C+:5]([H:10])[C:6]1([H:7])[H:11]"
O        2.23077673      -0.13668823      -0.34104503
C        1.03882850      -0.37671374       0.12656034
C        0.05489358      -1.24176864      -0.34272956
N       -1.15400756      -0.60209036      -0.17390095
C       -1.02387126       0.67545873       0.17352309
C        0.35556221       0.91650468       0.42907159
H        1.64810525       1.20127453      -0.29901559
H        0.14301100      -2.14054713      -0.92784037
H       -2.03723678      -1.03484517      -0.38363940
H       -1.88707817       1.27613015       0.41252132
H        0.63101651       1.46328517       1.32649456
11
Frame=13 idx=004039 GeodesicLength=0.6500130374856329 rxn_smarts="[O:1]([c:2]1[c:3]([H:8])[n:4]([H:9])[c:5]([H:10])[c:6]1[H:11])[H:7]>>[O-:1][C:2]1=[C:3]([H:8])[N:4]([H:9])[C+:5]([H:10])[C:6]1([H:7])[H:11]"
O        2.22089764      -0.13513196      -0.35408644
C        1.03866469      -0.38282487       0.13523663
C        0.05267789      -1.24417687      -0.33970413
N       -1.15479176      -0.60470236      -0.17013336
C       -1.02320870       0.67595757       0.16737276
C        0.35644006       0.91542256       0.42789293
H        1.66700820       1.21646643      -0.29369627
H        0.14197880      -2.13833098      -0.93177018
H       -2.03841031      -1.03876560      -0.37521367
H       -1.88580174       1.27858119       0.40343578
H        0.62454522       1.45750491       1.33066594
11
Frame=14 idx=004039 GeodesicLength=0.7001308113732819 rxn_smarts="[O:1]([c:2]1[c:3]([H:8])[n:4]([H:9])[c:5]([H:10])[c:6]1[H:11])[H:7]>>[O-:1][C:2]1=[C:3]([H:8])[N:4]([H:9])[C+:5]([H:10])[C:6]1([H:7])[H:11]"
O        2.21024787      -0.13290203      -0.36797990
C        1.03856659      -0.38904590       0.14359090
C        0.05038606      -1.24678817      -0.33647294
N       -1.15560482      -0.60740981      -0.16617379
C       -1.02244676       0.67635863       0.16105072
C        0.35739292       0.91418944       0.42666472
H        1.68671374       1.23206855      -0.28733582
H        0.14076494      -2.13637431      -0.93531241
H       -2.03962341      -1.04263295      -0.36675341
H       -1.88437238       1.28108971       0.39391592
H        0.61797526       1.45144685       1.33480601
11
Frame=15 idx=004039 GeodesicLength=0.7502732821008431 rxn_smarts="[O:1]([c:2]1[c:3]([H:8])[n:4]([H:9])[c:5]([H:10])[c:6]1[H:11])[H:7]>>[O-:1][C:2]1=[C:3]([H:8])[N:4]([H:9])[C+:5]([H:10])[C:6]1([H:7])[H:11]"
O        2.19883398      -0.12998314      -0.38253415
C        1.03852760      -0.39537703       0.15163407
C        0.04801554      -1.24959003      -0.33306597
N       -1.15645196      -0.61021706      -0.16200937
C       -1.02160551       0.67663779       0.15462417
C        0.35841331       0.91283168       0.42533526
H        1.70723310       1.24796254      -0.28001475
H        0.13937601      -2.13464863      -0.93852696
H       -2.04087599      -1.04643392      -0.35833161
H       -1.88281155       1.28359898       0.38409416
H        0.61134546       1.44521882       1.33879516
11
Frame=16 idx=004039 GeodesicLength=0.8004347177962685 rxn_smarts="[O:1]([c:2]1[c:3]([H:8])[n:4]([H:9])[c:5]([H:10])[c:6]1[H:11])[H:7]>>[O-:1][C:2]1=[C:3]([H:8])[N:4]([H:9])[C+:5]([H:10])[C:6]1([H:7])[H:11]"
O        2.18670572      -0.12639588      -0.39745775
C        1.03852939      -0.40182085       0.15940024
C        0.04556684      -1.25255329      -0.32954949
N       -1.15733893      -0.61312260      -0.15764924
C       -1.02071235       0.67677284       0.14816190
C        0.35948856       0.91137791       0.42385415
H        1.72855638       1.26400073      -0.27187803
H        0.13783008      -2.13307907      -0.94154854
H       -2.04217276      -1.05018462      -0.34993739
H       -1.88115063       1.28605391       0.37409778
H        0.60469770       1.43895092       1.34250636
