16
Frame=0 idx=010648 GeodesicLength=0.0 rxn_smarts="[C:1]([C@@:2]1([H:11])[N:3]([H:12])[C:4](=[O:5])[C@:6]1([C:7]([H:14])([H:15])[H:16])[H:13])([H:8])([H:9])[H:10]>>[C:1]([C:2]([N:3]([C:4]([O-:5])=[C+:6][C:7]([H:14])([H:15])[H:16])[H:12])([H:11])[H:13])([H:8])([H:9])[H:10]"
C        1.54307213      -0.97549649      -0.00995180
C        0.55430279      -0.45046928       1.00080092
N        0.48512522       0.96769656       1.15667416
C       -0.63737269       1.41029358       0.49903454
O       -1.02048979       2.55165029       0.35806441
C       -1.35140266       0.22165649       0.03161050
C       -1.42679803      -0.03932844      -1.41929286
H        1.44919242      -0.45254683      -0.96201826
H        1.40121651      -2.04482711      -0.17670896
H        2.56188967      -0.82098374       0.35238024
H        0.61436901      -0.98282571       1.95534365
H        0.91958375       1.48257879       1.90305743
H       -0.58913984      -0.73827243       0.72267723
H       -0.49824186       0.08200849      -1.99007147
H       -2.09317647       0.77007758      -1.75017920
H       -1.91213018      -0.98121168      -1.67142060
16
Frame=1 idx=010648 GeodesicLength=0.05795785983038923 rxn_smarts="[C:1]([C@@:2]1([H:11])[N:3]([H:12])[C:4](=[O:5])[C@:6]1([C:7]([H:14])([H:15])[H:16])[H:13])([H:8])([H:9])[H:10]>>[C:1]([C:2]([N:3]([C:4]([O-:5])=[C+:6][C:7]([H:14])([H:15])[H:16])[H:12])([H:11])[H:13])([H:8])([H:9])[H:10]"
C        1.54134585      -0.98118791      -0.00730195
C        0.54785435      -0.45255559       0.99792026
N        0.48806758       0.96788791       1.15269094
C       -0.63516935       1.41232275       0.50117657
O       -1.02894888       2.55073760       0.36633960
C       -1.34502076       0.22311234       0.02834901
C       -1.42456237      -0.02848095      -1.42426423
H        1.45395844      -0.46145553      -0.96175147
H        1.40005238      -2.05100753      -0.17142341
H        2.55913470      -0.82672412       0.35801647
H        0.61623460      -0.97737770       1.95617996
H        0.93816467       1.48779251       1.88607627
H       -0.61127412      -0.75082155       0.73925043
H       -0.50230446       0.12118593      -1.99797037
H       -2.12143676       0.75539481      -1.75164194
H       -1.87609588      -0.98882296      -1.67164615
16
Frame=2 idx=010648 GeodesicLength=0.11595779023378305 rxn_smarts="[C:1]([C@@:2]1([H:11])[N:3]([H:12])[C:4](=[O:5])[C@:6]1([C:7]([H:14])([H:15])[H:16])[H:13])([H:8])([H:9])[H:10]>>[C:1]([C:2]([N:3]([C:4]([O-:5])=[C+:6][C:7]([H:14])([H:15])[H:16])[H:12])([H:11])[H:13])([H:8])([H:9])[H:10]"
C        1.53966638      -0.98680876      -0.00467028
C        0.54133789      -0.45463896       0.99493092
N        0.49114243       0.96807967       1.14866379
C       -0.63282036       1.41439962       0.50327178
O       -1.03727080       2.54973196       0.37462938
C       -1.33853557       0.22452153       0.02526754
C       -1.42255729      -0.01769709      -1.42898916
H        1.45865011      -0.47039907      -0.96149435
H        1.39896604      -2.05712316      -0.16610638
H        2.55638418      -0.83231179       0.36367910
H        0.61757867      -0.97213587       1.95668456
H        0.95667075       1.49272690       1.86878347
H       -0.63355364      -0.76269986       0.75572461
H       -0.50731632       0.16026280      -2.00531546
H       -2.14904930       0.73936201      -1.75292510
H       -1.83929316      -0.99526995      -1.67213442
16
Frame=3 idx=010648 GeodesicLength=0.17399955712181817 rxn_smarts="[C:1]([C@@:2]1([H:11])[N:3]([H:12])[C:4](=[O:5])[C@:6]1([C:7]([H:14])([H:15])[H:16])[H:13])([H:8])([H:9])[H:10]>>[C:1]([C:2]([N:3]([C:4]([O-:5])=[C+:6][C:7]([H:14])([H:15])[H:16])[H:12])([H:11])[H:13])([H:8])([H:9])[H:10]"
C        1.53804913      -0.99235148      -0.00205411
C        0.53477374      -0.45671912       0.99183841
N        0.49434120       0.96826185       1.14461420
C       -0.63030005       1.41652386       0.50529344
O       -1.04541036       2.54863840       0.38290366
C       -1.33196143       0.22589778       0.02236210
C       -1.42080558      -0.00699133      -1.43346450
H        1.46329167      -0.47934967      -0.96123511
H        1.39797353      -2.06316380      -0.16076950
H        2.55365269      -0.83774474       0.36937444
H        0.61841107      -0.96711609       1.95687260
H        0.97506660       1.49736948       1.85122496
H       -0.65598539      -0.77391806       0.77207910
H       -0.51331565       0.19919451      -2.01212062
H       -2.17597467       0.72198218      -1.75405602
H       -1.80180652      -1.00051377      -1.67286303
16
Frame=4 idx=010648 GeodesicLength=0.23208410183085632 rxn_smarts="[C:1]([C@@:2]1([H:11])[N:3]([H:12])[C:4](=[O:5])[C@:6]1([C:7]([H:14])([H:15])[H:16])[H:13])([H:8])([H:9])[H:10]>>[C:1]([C:2]([N:3]([C:4]([O-:5])=[C+:6][C:7]([H:14])([H:15])[H:16])[H:12])([H:11])[H:13])([H:8])([H:9])[H:10]"
C        1.53650661      -0.99781070       0.00054822
C        0.52818078      -0.45879503       0.98864719
N        0.49765709       0.96842648       1.14056115
C       -0.62758698       1.41869575       0.50721933
O       -1.05332559       2.54746340       0.39113188
C       -1.32531203       0.22725346       0.01962920
C       -1.41932636       0.00362159      -1.43768725
H        1.46790892      -0.48828070      -0.96096291
H        1.39708308      -2.06912078      -0.15542709
H        2.55095214      -0.84302836       0.37510937
H        0.61874314      -0.96233077       1.95675925
H        0.99332252       1.50171075       1.83344439
H       -0.67857862      -0.78448724       0.78829684
H       -0.52033910       0.23795020      -2.01839918
H       -2.20217708       0.70325443      -1.75505994
H       -1.76370852      -1.00452250      -1.67381045
16
Frame=5 idx=010648 GeodesicLength=0.2902133390824967 rxn_smarts="[C:1]([C@@:2]1([H:11])[N:3]([H:12])[C:4](=[O:5])[C@:6]1([C:7]([H:14])([H:15])[H:16])[H:13])([H:8])([H:9])[H:10]>>[C:1]([C:2]([N:3]([C:4]([O-:5])=[C+:6][C:7]([H:14])([H:15])[H:16])[H:12])([H:11])[H:13])([H:8])([H:9])[H:10]"
C        1.53504813      -1.00318345       0.00313836
C        0.52157506      -0.46086584       0.98536096
N        0.50108259       0.96856616       1.13652168
C       -0.62466724       1.42091522       0.50903500
O       -1.06097694       2.54621464       0.39928099
C       -1.31860197       0.22859876       0.01706691
C       -1.41813567       0.01412832      -1.44165405
H        1.47252827      -0.49716765      -0.96066702
H        1.39629727      -2.07498756      -0.15009396
H        2.54829096      -0.84817351       0.38089216
H        0.61858687      -0.95778922       1.95635976
H        1.01142052       1.50574487       1.81547454
H       -0.70134565      -0.79441968       0.80436441
H       -0.52842207       0.27651355      -2.02416161
H       -2.22762596       0.68317331      -1.75595602
H       -1.72505417      -1.00726790      -1.67496210
16
Frame=6 idx=010648 GeodesicLength=0.34838764106902165 rxn_smarts="[C:1]([C@@:2]1([H:11])[N:3]([H:12])[C:4](=[O:5])[C@:6]1([C:7]([H:14])([H:15])[H:16])[H:13])([H:8])([H:9])[H:10]>>[C:1]([C:2]([N:3]([C:4]([O-:5])=[C+:6][C:7]([H:14])([H:15])[H:16])[H:12])([H:11])[H:13])([H:8])([H:9])[H:10]"
C        1.53368315      -1.00846519       0.00571535
C        0.51497253      -0.46292964       0.98198107
N        0.50461258       0.96867566       1.13251204
C       -0.62152517       1.42318316       0.51072454
O       -1.06832582       2.54490205       0.40731831
C       -1.31184409       0.22994419       0.01467323
C       -1.41724868       0.02451156      -1.44536061
H        1.47717872      -0.50598275      -0.96033828
H        1.39561607      -2.08075554      -0.14479119
H        2.54567775      -0.85319239       0.38673005
H        0.61795517      -0.95349983       1.95568610
H        1.02933636       1.50946418       1.79735941
H       -0.72429949      -0.80372643       0.82026939
H       -0.53760020       0.31485725      -2.02941521
H       -2.25227869       0.66173644      -1.75676928
H       -1.68591018      -1.00872272      -1.67629491
16
Frame=7 idx=010648 GeodesicLength=0.4066214747910949 rxn_smarts="[C:1]([C@@:2]1([H:11])[N:3]([H:12])[C:4](=[O:5])[C@:6]1([C:7]([H:14])([H:15])[H:16])[H:13])([H:8])([H:9])[H:10]>>[C:1]([C:2]([N:3]([C:4]([O-:5])=[C+:6][C:7]([H:14])([H:15])[H:16])[H:12])([H:11])[H:13])([H:8])([H:9])[H:10]"
C        1.53242000      -1.01366157       0.00828064
C        0.50838583      -0.46498647       0.97851044
N        0.50824132       0.96875295       1.12854249
C       -0.61815954       1.42550341       0.51228340
O       -1.07535059       2.54354056       0.41521898
C       -1.30505536       0.23129707       0.01244757
C       -1.41667626       0.03476054      -1.44880468
H        1.48189231      -0.51471029      -0.95996802
H        1.39503518      -2.08642954      -0.13953264
H        2.54312165      -0.85811005       0.39263291
H        0.61685958      -0.94946793       1.95475491
H        1.04706991       1.51287442       1.77911201
H       -0.74745927      -0.81242249       0.83600536
H       -0.54790818       0.35299079      -2.03416743
H       -2.27611063       0.63893254      -1.75751340
H       -1.64630595      -1.00886395      -1.67780253
16
Frame=8 idx=010648 GeodesicLength=0.4649853275053863 rxn_smarts="[C:1]([C@@:2]1([H:11])[N:3]([H:12])[C:4](=[O:5])[C@:6]1([C:7]([H:14])([H:15])[H:16])[H:13])([H:8])([H:9])[H:10]>>[C:1]([C:2]([N:3]([C:4]([O-:5])=[C+:6][C:7]([H:14])([H:15])[H:16])[H:12])([H:11])[H:13])([H:8])([H:9])[H:10]"
C        1.53129253      -1.01879234       0.01084067
C        0.50183321      -0.46704665       0.97495173
N        0.51197117       0.96880813       1.12462159
C       -0.61457953       1.42790002       0.51370068
O       -1.08205307       2.54218274       0.42295395
C       -1.29827321       0.23266843       0.01038307
C       -1.41644734       0.04486738      -1.45198770
H        1.48673130      -0.52333532      -0.95954085
H        1.39457030      -2.09204322      -0.13433061
H        2.54067312      -0.86296883       0.39862079
H        0.61531760      -0.94572056       1.95358139
H        1.06462686       1.51599589       1.76075558
H       -0.77086144      -0.82053625       0.85156476
H       -0.55938627       0.39093432      -2.03842012
H       -2.29912124       0.61476341      -1.75821834
H       -1.60629398      -1.00767715      -1.67947660
16
Frame=9 idx=010648 GeodesicLength=0.5232847190978768 rxn_smarts="[C:1]([C@@:2]1([H:11])[N:3]([H:12])[C:4](=[O:5])[C@:6]1([C:7]([H:14])([H:15])[H:16])[H:13])([H:8])([H:9])[H:10]>>[C:1]([C:2]([N:3]([C:4]([O-:5])=[C+:6][C:7]([H:14])([H:15])[H:16])[H:12])([H:11])[H:13])([H:8])([H:9])[H:10]"
C        1.53023418      -1.02379907       0.01337390
C        0.49531597      -0.46906920       0.97129177
N        0.51578822       0.96880837       1.12077057
C       -0.61073143       1.43030568       0.51498434
O       -1.08832990       2.54072387       0.43051821
C       -1.29144371       0.23405268       0.00849192
C       -1.41652966       0.05478524      -1.45489210
H        1.49163722      -0.53182059      -0.95906394
H        1.39415645      -2.09748803      -0.12923468
H        2.53821973      -0.86771803       0.40467686
H        0.61333956      -0.94218318       1.95215407
H        1.08195720       1.51877288       1.74235195
H       -0.79446553      -0.82802718       0.86692948
H       -0.57206585       0.42853060      -2.04214831
H       -2.32111273       0.58921056      -1.75891022
H       -1.56596971      -1.00508460      -1.68129381
16
Frame=10 idx=010648 GeodesicLength=0.5815893888530165 rxn_smarts="[C:1]([C@@:2]1([H:11])[N:3]([H:12])[C:4](=[O:5])[C@:6]1([C:7]([H:14])([H:15])[H:16])[H:13])([H:8])([H:9])[H:10]>>[C:1]([C:2]([N:3]([C:4]([O-:5])=[C+:6][C:7]([H:14])([H:15])[H:16])[H:12])([H:11])[H:13])([H:8])([H:9])[H:10]"
C        1.52946939      -1.02871592       0.01595445
C        0.48889853      -0.47111045       0.96751595
N        0.51967060       0.96878625       1.11694679
C       -0.60670692       1.43276104       0.51603750
O       -1.09466663       2.53916463       0.43832207
C       -1.28465321       0.23539124       0.00670376
C       -1.41703843       0.06452447      -1.45758332
H        1.49672086      -0.54031091      -0.95855638
H        1.39426269      -2.10291910      -0.12394870
H        2.53602903      -0.87211570       0.41081393
H        0.61097916      -0.93895052       1.95049884
H        1.09916369       1.52129477       1.72373218
H       -0.81829927      -0.83506758       0.88202363
H       -0.58562014       0.46513263      -2.04537078
H       -2.34172858       0.56317243      -1.75987393
H       -1.52648077      -1.00103728      -1.68321600
16
Frame=11 idx=010648 GeodesicLength=0.6398029687469582 rxn_smarts="[C:1]([C@@:2]1([H:11])[N:3]([H:12])[C:4](=[O:5])[C@:6]1([C:7]([H:14])([H:15])[H:16])[H:13])([H:8])([H:9])[H:10]>>[C:1]([C:2]([N:3]([C:4]([O-:5])=[C+:6][C:7]([H:14])([H:15])[H:16])[H:12])([H:11])[H:13])([H:8])([H:9])[H:10]"
C        1.52857813      -1.03346989       0.01842917
C        0.48249013      -0.47307048       0.96365723
N        0.52364638       0.96865417       1.11324297
C       -0.60232454       1.43519267       0.51701094
O       -1.10000985       2.53755032       0.44539060
C       -1.27776145       0.23681529       0.00516567
C       -1.41776038       0.07402829      -1.45990913
H        1.50184301      -0.54844000      -0.95797602
H        1.39395337      -2.10801224      -0.11909489
H        2.53358904      -0.87669921       0.41701284
H        0.60817369      -0.93588284       1.94860741
H        1.11597000       1.52334364       1.70531431
H       -0.84236678      -0.84135896       0.89702513
H       -0.60075845       0.50202706      -2.04808531
H       -2.36158149       0.53493082      -1.76055556
H       -1.48568081      -0.99560864      -1.68523533
16
Frame=12 idx=010648 GeodesicLength=0.6981700541490877 rxn_smarts="[C:1]([C@@:2]1([H:11])[N:3]([H:12])[C:4](=[O:5])[C@:6]1([C:7]([H:14])([H:15])[H:16])[H:13])([H:8])([H:9])[H:10]>>[C:1]([C:2]([N:3]([C:4]([O-:5])=[C+:6][C:7]([H:14])([H:15])[H:16])[H:12])([H:11])[H:13])([H:8])([H:9])[H:10]"
C        1.52791106      -1.03816981       0.02091264
C        0.47618326      -0.47504250       0.95969838
N        0.52771897       0.96851008       1.10961282
C       -0.59774948       1.43771305       0.51782307
O       -1.10501588       2.53602140       0.45222386
C       -1.27095528       0.23825669       0.00377527
C       -1.41890698       0.08332636      -1.46197294
H        1.50722957      -0.55643336      -0.95731220
H        1.39385874      -2.11308220      -0.11430566
H        2.53136191      -0.88123714       0.42333743
H        0.60500516      -0.93313001       1.94650321
H        1.13258764       1.52512288       1.68691037
H       -0.86675159      -0.84715782       0.91180813
H       -0.61713882       0.53851177      -2.05026200
H       -2.38036568       0.50554292      -1.76135675
H       -1.44497261      -0.98875229      -1.68739564
16
Frame=13 idx=010648 GeodesicLength=0.756577773694285 rxn_smarts="[C:1]([C@@:2]1([H:11])[N:3]([H:12])[C:4](=[O:5])[C@:6]1([C:7]([H:14])([H:15])[H:16])[H:13])([H:8])([H:9])[H:10]>>[C:1]([C:2]([N:3]([C:4]([O-:5])=[C+:6][C:7]([H:14])([H:15])[H:16])[H:12])([H:11])[H:13])([H:8])([H:9])[H:10]"
C        1.52739165      -1.04278898       0.02337735
C        0.46996575      -0.47699457       0.95563403
N        0.53187464       0.96832925       1.10604879
C       -0.59295385       1.44027407       0.51849008
O       -1.10961456       2.53449817       0.45881356
C       -1.26418674       0.23971395       0.00255552
C       -1.42041645       0.09238992      -1.46375043
H        1.51283266      -0.56427379      -0.95658526
H        1.39387501      -2.11805665      -0.10962909
H        2.52922900      -0.88574324       0.42975824
H        0.60146560      -0.93062451       1.94419121
H        1.14898744       1.52659930       1.66850691
H       -0.89144317      -0.85241657       0.92640072
H       -0.63479949       0.57459565      -2.05188716
H       -2.39795568       0.47492299      -1.76225048
H       -1.40425182      -0.98042501      -1.68967397
16
Frame=14 idx=010648 GeodesicLength=0.8150130140295261 rxn_smarts="[C:1]([C@@:2]1([H:11])[N:3]([H:12])[C:4](=[O:5])[C@:6]1([C:7]([H:14])([H:15])[H:16])[H:13])([H:8])([H:9])[H:10]>>[C:1]([C:2]([N:3]([C:4]([O-:5])=[C+:6][C:7]([H:14])([H:15])[H:16])[H:12])([H:11])[H:13])([H:8])([H:9])[H:10]"
C        1.52701139      -1.04732889       0.02582195
C        0.46384727      -0.47892152       0.95146191
N        0.53611625       0.96810741       1.10254746
C       -0.58793813       1.44286465       0.51901710
O       -1.11378437       2.53297786       0.46513487
C       -1.25745768       0.24118459       0.00150838
C       -1.42228646       0.10120412      -1.46523699
H        1.51865808      -0.57195789      -0.95579189
H        1.39398044      -2.12292943      -0.10507526
H        2.52717745      -0.89023566       0.43627928
H        0.59757307      -0.92835266       1.94167760
H        1.16517093       1.52777031       1.65011486
H       -0.91645661      -0.85713344       0.94080956
H       -0.65378629       0.61027902      -2.05294041
H       -2.41428982       0.44306446      -1.76325649
H       -1.36353552      -0.97059293      -1.69207194
16
Frame=15 idx=010648 GeodesicLength=0.8734735600788146 rxn_smarts="[C:1]([C@@:2]1([H:11])[N:3]([H:12])[C:4](=[O:5])[C@:6]1([C:7]([H:14])([H:15])[H:16])[H:13])([H:8])([H:9])[H:10]>>[C:1]([C:2]([N:3]([C:4]([O-:5])=[C+:6][C:7]([H:14])([H:15])[H:16])[H:12])([H:11])[H:13])([H:8])([H:9])[H:10]"
C        1.52676917      -1.05179554       0.02824446
C        0.45783766      -0.48082099       0.94717934
N        0.54044595       0.96784452       1.09910324
C       -0.58270853       1.44547840       0.51941009
O       -1.11751180       2.53146860       0.47116293
C       -1.25077536       0.24266475       0.00063718
C       -1.42451754       0.10975367      -1.46642707
H        1.52471728      -0.57948817      -0.95493098
H        1.39416449      -2.12770446      -0.10065109
H        2.52520478      -0.89473201       0.44290114
H        0.59334521      -0.92630486       1.93896784
H        1.18113846       1.52863877       1.63174619
H       -0.94181182      -0.86131017       0.95504317
H       -0.67414078       0.64555437      -2.05339446
H       -2.42930220       0.40997564      -1.76439943
H       -1.32285498      -0.95922251      -1.69459255
16
Frame=16 idx=010648 GeodesicLength=0.9319625755260177 rxn_smarts="[C:1]([C@@:2]1([H:11])[N:3]([H:12])[C:4](=[O:5])[C@:6]1([C:7]([H:14])([H:15])[H:16])[H:13])([H:8])([H:9])[H:10]>>[C:1]([C:2]([N:3]([C:4]([O-:5])=[C+:6][C:7]([H:14])([H:15])[H:16])[H:12])([H:11])[H:13])([H:8])([H:9])[H:10]"
C        1.52666367      -1.05619933       0.03064364
C        0.45194653      -0.48269150       0.94278475
N        0.54486744       0.96754159       1.09570676
C       -0.57727308       1.44810933       0.51967582
O       -1.12078707       2.52998040       0.47687275
C       -1.24414671       0.24414936      -0.00005450
C       -1.42710925       0.11802447      -1.46731550
H        1.53102030      -0.58687388      -0.95400235
H        1.39441539      -2.13239131      -0.09635929
H        2.52330925      -0.89925399       0.44962358
H        0.58879923      -0.92447039       1.93606897
H        1.19689261       1.52921043       1.61340742
H       -0.96753075      -0.86494639       0.96911380
H       -0.69591649       0.68042596      -2.05321812
H       -2.44292542       0.37565630      -1.76570208
H       -1.28222566      -0.94627106      -1.69724565
