14
Frame=0 idx=005405 GeodesicLength=0.0 rxn_smarts="[C:1]([C:2]1=[C:3]([H:10])[C:4]([H:11])([H:12])[O:5][C:6]1([H:13])[H:14])([H:7])([H:8])[H:9]>>[C:1]([C:2]([C@@:3]1([H:10])[C:4]([H:11])([H:12])[O:5]1)=[C:6]([H:13])[H:14])([H:7])([H:8])[H:9]"
C       -1.83895301       0.26597345      -0.66954446
C       -0.53731646       0.10070115       0.06118001
C        0.61502775       0.78984764      -0.26862985
C        1.88425355       0.26872808       0.29839877
O        1.76371517      -0.97517433      -0.29595007
C       -0.25158381      -1.02044345       0.82661800
H       -2.18143320      -0.68447437      -1.08549209
H       -1.73661018       0.97653399      -1.49017385
H       -2.62258194       0.63553030      -0.00539824
H        0.62216890       1.48568292      -1.10242945
H        1.91856497       0.26451444       1.40265938
H        2.76537878       0.82838714      -0.04472308
H        0.50898800      -1.05172479       1.58950187
H       -0.90961852      -1.88408213       0.78398304
14
Frame=1 idx=005405 GeodesicLength=0.06141684674658653 rxn_smarts="[C:1]([C:2]1=[C:3]([H:10])[C:4]([H:11])([H:12])[O:5][C:6]1([H:13])[H:14])([H:7])([H:8])[H:9]>>[C:1]([C:2]([C@@:3]1([H:10])[C:4]([H:11])([H:12])[O:5]1)=[C:6]([H:13])[H:14])([H:7])([H:8])[H:9]"
C       -1.84062836       0.27244809      -0.66172258
C       -0.53139549       0.09053749       0.04923975
C        0.62439212       0.76877660      -0.29512799
C        1.89015290       0.28115673       0.30542833
O        1.75981628      -0.97672167      -0.26077896
C       -0.24744195      -1.03290320       0.81428103
H       -2.17425523      -0.66213455      -1.11899026
H       -1.75804194       1.02136143      -1.44988757
H       -2.62292892       0.60046709       0.02541620
H        0.63606532       1.45113686      -1.13984223
H        1.91365577       0.30512110       1.40869243
H        2.77422169       0.82595079      -0.05203016
H        0.48310404      -1.04956730       1.60723104
H       -0.90671623      -1.89562946       0.76809098
14
Frame=2 idx=005405 GeodesicLength=0.1228518950470738 rxn_smarts="[C:1]([C:2]1=[C:3]([H:10])[C:4]([H:11])([H:12])[O:5][C:6]1([H:13])[H:14])([H:7])([H:8])[H:9]>>[C:1]([C:2]([C@@:3]1([H:10])[C:4]([H:11])([H:12])[O:5]1)=[C:6]([H:13])[H:14])([H:7])([H:8])[H:9]"
C       -1.84170958       0.27901995      -0.65354278
C       -0.52566523       0.08032989       0.03807611
C        0.63365758       0.74724744      -0.32098655
C        1.89536662       0.29434566       0.31167394
O        1.75576795      -0.97732550      -0.22542762
C       -0.24352225      -1.04552768       0.80269324
H       -2.16760060      -0.63768321      -1.15138362
H       -1.77688265       1.06439582      -1.40738240
H       -2.62236623       0.56543145       0.05404729
H        0.64959233       1.41523486      -1.17699754
H        1.90814374       0.34718185       1.41317392
H        2.78267511       0.82361220      -0.05957757
H        0.45606484      -1.04848154       1.62407839
H       -0.90352164      -1.90778119       0.75155519
14
Frame=3 idx=005405 GeodesicLength=0.1843000689206858 rxn_smarts="[C:1]([C:2]1=[C:3]([H:10])[C:4]([H:11])([H:12])[O:5][C:6]1([H:13])[H:14])([H:7])([H:8])[H:9]>>[C:1]([C:2]([C@@:3]1([H:10])[C:4]([H:11])([H:12])[O:5]1)=[C:6]([H:13])[H:14])([H:7])([H:8])[H:9]"
C       -1.84211855       0.28552372      -0.64523677
C       -0.52012715       0.07022648       0.02786841
C        0.64259361       0.72539361      -0.34575627
C        1.89982976       0.30803122       0.31707177
O        1.75105921      -0.97666157      -0.19017201
C       -0.23957502      -1.05804466       0.79184446
H       -2.16119051      -0.61120921      -1.18252060
H       -1.79321007       1.10488629      -1.36332817
H       -2.62081154       0.53065039       0.07974959
H        0.66222211       1.37863272      -1.21291633
H        1.90256178       0.38989946       1.41591945
H        2.79040786       0.82103555      -0.06738884
H        0.42841787      -1.04856766       1.63994875
H       -0.90005934      -1.91979634       0.73491656
14
Frame=4 idx=005405 GeodesicLength=0.2454817556296209 rxn_smarts="[C:1]([C:2]1=[C:3]([H:10])[C:4]([H:11])([H:12])[O:5][C:6]1([H:13])[H:14])([H:7])([H:8])[H:9]>>[C:1]([C:2]([C@@:3]1([H:10])[C:4]([H:11])([H:12])[O:5]1)=[C:6]([H:13])[H:14])([H:7])([H:8])[H:9]"
C       -1.84186708       0.29205474      -0.63677768
C       -0.51483222       0.06038038       0.01870911
C        0.65119902       0.70327397      -0.36946024
C        1.90355269       0.32213099       0.32151764
O        1.74583055      -0.97502589      -0.15479011
C       -0.23569463      -1.07037025       0.78186299
H       -2.15436155      -0.58275543      -1.21250987
H       -1.80717314       1.14331068      -1.31753327
H       -2.61882388       0.49579536       0.10251360
H        0.67407790       1.34131677      -1.24762774
H        1.89670180       0.43345870       1.41664189
H        2.79748871       0.81801828      -0.07564209
H        0.40007191      -1.04981820       1.65490472
H       -0.89617008      -1.93177012       0.71819106
14
Frame=5 idx=005405 GeodesicLength=0.30665955994801203 rxn_smarts="[C:1]([C:2]1=[C:3]([H:10])[C:4]([H:11])([H:12])[O:5][C:6]1([H:13])[H:14])([H:7])([H:8])[H:9]>>[C:1]([C:2]([C@@:3]1([H:10])[C:4]([H:11])([H:12])[O:5]1)=[C:6]([H:13])[H:14])([H:7])([H:8])[H:9]"
C       -1.84110210       0.29852366      -0.62818006
C       -0.50976703       0.05062413       0.01047228
C        0.65962931       0.68098895      -0.39212132
C        1.90680715       0.33680709       0.32506275
O        1.74014611      -0.97230690      -0.11948233
C       -0.23204455      -1.08276915       0.77264849
H       -2.14778919      -0.55275638      -1.24117136
H       -1.81871049       1.17942616      -1.27069508
H       -2.61639861       0.46142361       0.12281033
H        0.68538840       1.30361826      -1.28112107
H        1.89085401       0.47797138       1.41563404
H        2.80431875       0.81489579      -0.08427755
H        0.37089687      -1.05240600       1.66916199
H       -0.89222861      -1.94404059       0.70125889
14
Frame=6 idx=005405 GeodesicLength=0.3678140775597326 rxn_smarts="[C:1]([C:2]1=[C:3]([H:10])[C:4]([H:11])([H:12])[O:5][C:6]1([H:13])[H:14])([H:7])([H:8])[H:9]>>[C:1]([C:2]([C@@:3]1([H:10])[C:4]([H:11])([H:12])[O:5]1)=[C:6]([H:13])[H:14])([H:7])([H:8])[H:9]"
C       -1.83981256       0.30495533      -0.61946151
C       -0.50491982       0.04103396       0.00319834
C        0.66784272       0.65854536      -0.41371585
C        1.90957423       0.35197506       0.32768270
O        1.73393266      -0.96852184      -0.08412630
C       -0.22858894      -1.09516622       0.76421406
H       -2.14111972      -0.52122299      -1.26856983
H       -1.82801864       1.21338839      -1.22286035
H       -2.61369175       0.42740697       0.14062204
H        0.69611117       1.26554775      -1.31333600
H        1.88502265       0.52340211       1.41277464
H        2.81082778       0.81148897      -0.09332692
H        0.34095667      -1.05633405       1.68275787
H       -0.88811643      -1.95649882       0.68414712
14
Frame=7 idx=005405 GeodesicLength=0.4290307114639632 rxn_smarts="[C:1]([C:2]1=[C:3]([H:10])[C:4]([H:11])([H:12])[O:5][C:6]1([H:13])[H:14])([H:7])([H:8])[H:9]>>[C:1]([C:2]([C@@:3]1([H:10])[C:4]([H:11])([H:12])[O:5]1)=[C:6]([H:13])[H:14])([H:7])([H:8])[H:9]"
C       -1.83814188       0.31132638      -0.61064161
C       -0.50031443       0.03164832      -0.00308320
C        0.67592367       0.63598013      -0.43426093
C        1.91205097       0.36764184       0.32938843
O        1.72722255      -0.96361881      -0.04868845
C       -0.22540508      -1.10754812       0.75657001
H       -2.13436844      -0.48823058      -1.29487094
H       -1.83532466       1.24529058      -1.17409457
H       -2.61100662       0.39358839       0.15606091
H        0.70637892       1.22713628      -1.34434536
H        1.87942516       0.56980313       1.40811338
H        2.81728829       0.80776737      -0.10279919
H        0.31024500      -1.06164636       1.69584040
H       -0.88397346      -1.96913855       0.66681114
14
Frame=8 idx=005405 GeodesicLength=0.4901215732270926 rxn_smarts="[C:1]([C:2]1=[C:3]([H:10])[C:4]([H:11])([H:12])[O:5][C:6]1([H:13])[H:14])([H:7])([H:8])[H:9]>>[C:1]([C:2]([C@@:3]1([H:10])[C:4]([H:11])([H:12])[O:5]1)=[C:6]([H:13])[H:14])([H:7])([H:8])[H:9]"
C       -1.83573288       0.31783197      -0.60161001
C       -0.49575292       0.02229742      -0.00868109
C        0.68355109       0.61299182      -0.45379171
C        1.91367979       0.38368138       0.33024054
O        1.71996365      -0.95758795      -0.01258613
C       -0.22212573      -1.11995200       0.74942780
H       -2.12720348      -0.45341472      -1.31937874
H       -1.84067635       1.27511981      -1.12446194
H       -2.60746660       0.36055067       0.16913152
H        0.71573680       1.18783729      -1.37404623
H        1.87331600       0.61722215       1.40124672
H        2.82282125       0.80348784      -0.11238565
H        0.27877161      -1.06819312       1.70800130
H       -0.87888222      -1.98187255       0.64889360
14
Frame=9 idx=005405 GeodesicLength=0.5511540499014459 rxn_smarts="[C:1]([C:2]1=[C:3]([H:10])[C:4]([H:11])([H:12])[O:5][C:6]1([H:13])[H:14])([H:7])([H:8])[H:9]>>[C:1]([C:2]([C@@:3]1([H:10])[C:4]([H:11])([H:12])[O:5]1)=[C:6]([H:13])[H:14])([H:7])([H:8])[H:9]"
C       -1.83302431       0.32422576      -0.59251592
C       -0.49143890       0.01324478      -0.01323151
C        0.69107728       0.59006432      -0.47216698
C        1.91514399       0.40015494       0.33017217
O        1.71213668      -0.95033025       0.02355054
C       -0.21912027      -1.13231437       0.74298598
H       -2.11983755      -0.41755903      -1.34259329
H       -1.84431288       1.30280483      -1.07442493
H       -2.60415751       0.32796645       0.17995713
H        0.72474085       1.14847992      -1.40238720
H        1.86761358       0.66542182       1.39249532
H        2.82842544       0.79883567      -0.12228188
H        0.24660298      -1.07631725       1.71961599
H       -0.87384938      -1.99467758       0.63082459
14
Frame=10 idx=005405 GeodesicLength=0.612133823792266 rxn_smarts="[C:1]([C:2]1=[C:3]([H:10])[C:4]([H:11])([H:12])[O:5][C:6]1([H:13])[H:14])([H:7])([H:8])[H:9]>>[C:1]([C:2]([C@@:3]1([H:10])[C:4]([H:11])([H:12])[O:5]1)=[C:6]([H:13])[H:14])([H:7])([H:8])[H:9]"
C       -1.82991990       0.33061289      -0.58329666
C       -0.48730149       0.00447383      -0.01681133
C        0.69840531       0.56705942      -0.48943507
C        1.91629150       0.41700994       0.32918639
O        1.70371639      -0.94182984       0.06008242
C       -0.21628539      -1.14463309       0.73718668
H       -2.11200908      -0.38038186      -1.36442304
H       -1.84640545       1.32853382      -1.02381957
H       -2.60090200       0.29576488       0.18854557
H        0.73327105       1.10871143      -1.42944380
H        1.86205288       0.71454060       1.38161999
H        2.83387725       0.79362965      -0.13241570
H        0.21369022      -1.08595860       1.73062932
H       -0.86848129      -2.00753307       0.61239480
14
Frame=11 idx=005405 GeodesicLength=0.6730502460335241 rxn_smarts="[C:1]([C:2]1=[C:3]([H:10])[C:4]([H:11])([H:12])[O:5][C:6]1([H:13])[H:14])([H:7])([H:8])[H:9]>>[C:1]([C:2]([C@@:3]1([H:10])[C:4]([H:11])([H:12])[O:5]1)=[C:6]([H:13])[H:14])([H:7])([H:8])[H:9]"
C       -1.82640870       0.33693883      -0.57399077
C       -0.48333299      -0.00396673      -0.01942492
C        0.70548768       0.54405657      -0.50551362
C        1.91713073       0.43417753       0.32729809
O        1.69459350      -0.93199936       0.09695155
C       -0.21360017      -1.15688540       0.73194761
H       -2.10362973      -0.34220296      -1.38474945
H       -1.84713945       1.35219278      -0.97296720
H       -2.59751343       0.26421383       0.19500258
H        0.74123917       1.06876607      -1.45501207
H        1.85680379       0.76438139       1.36863488
H        2.83908688       0.78774387      -0.14272979
H        0.18000905      -1.09702983       1.74097900
H       -0.86272632      -2.02038659       0.59357411
14
Frame=12 idx=005405 GeodesicLength=0.7339258113992588 rxn_smarts="[C:1]([C:2]1=[C:3]([H:10])[C:4]([H:11])([H:12])[O:5][C:6]1([H:13])[H:14])([H:7])([H:8])[H:9]>>[C:1]([C:2]([C@@:3]1([H:10])[C:4]([H:11])([H:12])[O:5]1)=[C:6]([H:13])[H:14])([H:7])([H:8])[H:9]"
C       -1.82257073       0.34327750      -0.56453790
C       -0.47952459      -0.01206760      -0.02105416
C        0.71238378       0.52101753      -0.52046266
C        1.91773892       0.45169100       0.32450970
O        1.68481221      -0.92077085       0.13441640
C       -0.21106378      -1.16910849       0.72726718
H       -2.09467408      -0.30282276      -1.40363582
H       -1.84669696       1.37401173      -0.92170120
H       -2.59422306       0.23311042       0.19938275
H        0.74878835       1.02830190      -1.47933857
H        1.85178959       0.81517523       1.35338054
H        2.84421375       0.78116225      -0.15315076
H        0.14554550      -1.10970276       1.75068429
H       -0.85651890      -2.03327510       0.57424020
14
Frame=13 idx=005405 GeodesicLength=0.7947908436675001 rxn_smarts="[C:1]([C:2]1=[C:3]([H:10])[C:4]([H:11])([H:12])[O:5][C:6]1([H:13])[H:14])([H:7])([H:8])[H:9]>>[C:1]([C:2]([C@@:3]1([H:10])[C:4]([H:11])([H:12])[O:5]1)=[C:6]([H:13])[H:14])([H:7])([H:8])[H:9]"
C       -1.81842091       0.34968777      -0.55487616
C       -0.47586349      -0.01981715      -0.02169480
C        0.71910689       0.49787726      -0.53432068
C        1.91810670       0.46956088       0.32081715
O        1.67433970      -0.90801901       0.17269385
C       -0.20865777      -1.18130524       0.72309349
H       -2.08500592      -0.26212142      -1.42109799
H       -1.84523921       1.39413614      -0.86980362
H       -2.59104278       0.20236480       0.20173797
H        0.75598656       0.98697024      -1.50257754
H        1.84691458       0.86707355       1.33569482
H        2.84924716       0.77380072      -0.16358461
H        0.11024806      -1.12403263       1.75967685
H       -0.84971958      -2.04617591       0.55424128
14
Frame=14 idx=005405 GeodesicLength=0.855637620864539 rxn_smarts="[C:1]([C:2]1=[C:3]([H:10])[C:4]([H:11])([H:12])[O:5][C:6]1([H:13])[H:14])([H:7])([H:8])[H:9]>>[C:1]([C:2]([C@@:3]1([H:10])[C:4]([H:11])([H:12])[O:5]1)=[C:6]([H:13])[H:14])([H:7])([H:8])[H:9]"
C       -1.81397766       0.35611264      -0.54503453
C       -0.47235654      -0.02714675      -0.02132358
C        0.72563350       0.47476241      -0.54698418
C        1.91829061       0.48773010       0.31622817
O        1.66304926      -0.89360466       0.21174778
C       -0.20637635      -1.19345390       0.71936692
H       -2.07464968      -0.22040377      -1.43697452
H       -1.84291779       1.41244582      -0.81764556
H       -2.58786737       0.17219025       0.20216274
H        0.76279056       0.94500783      -1.52451343
H        1.84237360       0.91990264       1.31550420
H        2.85420694       0.76554144      -0.17394906
H        0.07410046      -1.14003789       1.76788035
H       -0.84229952      -2.05904615       0.53353469
14
Frame=15 idx=005405 GeodesicLength=0.9164640626868117 rxn_smarts="[C:1]([C:2]1=[C:3]([H:10])[C:4]([H:11])([H:12])[O:5][C:6]1([H:13])[H:14])([H:7])([H:8])[H:9]>>[C:1]([C:2]([C@@:3]1([H:10])[C:4]([H:11])([H:12])[O:5]1)=[C:6]([H:13])[H:14])([H:7])([H:8])[H:9]"
C       -1.80932504       0.36263208      -0.53494774
C       -0.46900334      -0.03406168      -0.01994059
C        0.73200335       0.45156268      -0.55850821
C        1.91834024       0.50621748       0.31074648
O        1.65094911      -0.87733606       0.25192183
C       -0.20416964      -1.20555928       0.71604944
H       -2.06356176      -0.17735784      -1.45136800
H       -1.83998515       1.42911615      -0.76485294
H       -2.58481396       0.14237569       0.20063200
H        0.76928921       0.90191636      -1.54536237
H        1.83809709       0.97391759       1.29257083
H        2.85918772       0.75624615      -0.18411553
H        0.03707146      -1.15782846       1.77523406
H       -0.83407929      -2.07184086       0.51194074
14
Frame=16 idx=005405 GeodesicLength=0.9774309300621125 rxn_smarts="[C:1]([C:2]1=[C:3]([H:10])[C:4]([H:11])([H:12])[O:5][C:6]1([H:13])[H:14])([H:7])([H:8])[H:9]>>[C:1]([C:2]([C@@:3]1([H:10])[C:4]([H:11])([H:12])[O:5]1)=[C:6]([H:13])[H:14])([H:7])([H:8])[H:9]"
C       -1.80438942       0.36923183      -0.52459412
C       -0.46580419      -0.04048667      -0.01747180
C        0.73816810       0.42836912      -0.56878848
C        1.91819630       0.52495895       0.30428790
O        1.63775174      -0.85905295       0.29320924
C       -0.20205105      -1.21759302       0.71315224
H       -2.05141362      -0.13303857      -1.46420064
H       -1.83650571       1.44416445      -0.71139153
H       -2.58179488       0.11284425       0.19705166
H        0.77547674       0.85773418      -1.56493561
H        1.83408963       1.02901739       1.26658728
H        2.86406896       0.74576383      -0.19403098
H       -0.00080978      -1.17739277       1.78160066
H       -0.82498282      -2.08452002       0.48952417
