10
Frame=0 idx=005182 GeodesicLength=0.0 rxn_smarts="[N:1]([c:2]1[n:3][n:4]([H:9])[c:5]([H:10])[n:6]1)([H:7])[H:8]>>[N:1]([c:2]1[n:3]([H:9])[n:4][c:5]([H:10])[n:6]1)([H:7])[H:8]"
N        1.82138211      -0.17470448      -0.28999503
C        0.49478685      -0.04182742      -0.02093619
N       -0.28511004      -1.09430610       0.25416704
N       -1.62294189      -0.49826212       0.38766183
C       -1.40453654       0.79567006       0.16886907
N       -0.13788615       1.13697741      -0.01925182
H        2.36450725       0.66688035      -0.21906964
H        2.26285921      -1.01790484       0.02953698
H       -1.27353187      -1.27847212      -0.47356838
H       -2.21952894       1.50594926       0.18258615
10
Frame=1 idx=005182 GeodesicLength=0.05202308197406561 rxn_smarts="[N:1]([c:2]1[n:3][n:4]([H:9])[c:5]([H:10])[n:6]1)([H:7])[H:8]>>[N:1]([c:2]1[n:3]([H:9])[n:4][c:5]([H:10])[n:6]1)([H:7])[H:8]"
N        1.82418412      -0.17043849      -0.29203439
C        0.49614935      -0.03674006      -0.02661645
N       -0.28663653      -1.08644101       0.24454399
N       -1.61692326      -0.49313441       0.38231213
C       -1.40329334       0.80030388       0.16348684
N       -0.13559763       1.14238508      -0.02105423
H        2.36851333       0.66817017      -0.19715130
H        2.26148998      -1.01955813       0.01765887
H       -1.28969378      -1.31483464      -0.45811217
H       -2.21819225       1.51028760       0.18696673
10
Frame=2 idx=005182 GeodesicLength=0.10400819049072653 rxn_smarts="[N:1]([c:2]1[n:3][n:4]([H:9])[c:5]([H:10])[n:6]1)([H:7])[H:8]>>[N:1]([c:2]1[n:3]([H:9])[n:4][c:5]([H:10])[n:6]1)([H:7])[H:8]"
N        1.82714404      -0.16620445      -0.29384323
C        0.49757361      -0.03157923      -0.03266310
N       -0.28846450      -1.07877571       0.23232652
N       -1.61110936      -0.48805910       0.37518416
C       -1.40185649       0.80515624       0.15838072
N       -0.13300316       1.14796872      -0.02182949
H        2.37225169       0.66922600      -0.17657592
H        2.26038617      -1.02045689       0.00760699
H       -1.30638961      -1.35212320      -0.44056040
H       -2.21653240       1.51484763       0.19197374
10
Frame=3 idx=005182 GeodesicLength=0.15593411904881044 rxn_smarts="[N:1]([c:2]1[n:3][n:4]([H:9])[c:5]([H:10])[n:6]1)([H:7])[H:8]>>[N:1]([c:2]1[n:3]([H:9])[n:4][c:5]([H:10])[n:6]1)([H:7])[H:8]"
N        1.83040611      -0.16222965      -0.29507507
C        0.49899508      -0.02647907      -0.03989617
N       -0.29071629      -1.07140976       0.21649648
N       -1.60552295      -0.48309170       0.36578703
C       -1.40019733       0.81020940       0.15338354
N       -0.13023346       1.15354590      -0.02313091
H        2.37561314       0.67028133      -0.15802585
H        2.25969602      -1.02025770       0.00156427
H       -1.32385571      -1.39040096      -0.42094460
H       -2.21418460       1.51983221       0.19984129
10
Frame=4 idx=005182 GeodesicLength=0.2077815407327782 rxn_smarts="[N:1]([c:2]1[n:3][n:4]([H:9])[c:5]([H:10])[n:6]1)([H:7])[H:8]>>[N:1]([c:2]1[n:3]([H:9])[n:4][c:5]([H:10])[n:6]1)([H:7])[H:8]"
N        1.83413980      -0.15868280      -0.29535278
C        0.50035038      -0.02155515      -0.04935919
N       -0.29349510      -1.06443066       0.19573438
N       -1.60008897      -0.47828078       0.35386017
C       -1.39823492       0.81546237       0.14868645
N       -0.12745463       1.15894799      -0.02688901
H        2.37849685       0.67163450      -0.14167061
H        2.25946963      -1.01872785       0.00147470
H       -1.34242502      -1.42965557      -0.39904964
H       -2.21075803       1.52528796       0.21256554
10
Frame=5 idx=005182 GeodesicLength=0.25953831653933795 rxn_smarts="[N:1]([c:2]1[n:3][n:4]([H:9])[c:5]([H:10])[n:6]1)([H:7])[H:8]>>[N:1]([c:2]1[n:3]([H:9])[n:4][c:5]([H:10])[n:6]1)([H:7])[H:8]"
N        1.83837302      -0.15551013      -0.29454178
C        0.50163717      -0.01674469      -0.06148567
N       -0.29685261      -1.05775343       0.16912724
N       -1.59473880      -0.47362623       0.33926504
C       -1.39587113       0.82096420       0.14483288
N       -0.12476588       1.16419946      -0.03402506
H        2.38091102       0.67341231      -0.12672039
H        2.25944323      -1.01603937       0.00726022
H       -1.36203260      -1.46992553      -0.37403703
H       -2.20610343       1.53102342       0.23032455
10
Frame=6 idx=005182 GeodesicLength=0.3111612320415919 rxn_smarts="[N:1]([c:2]1[n:3][n:4]([H:9])[c:5]([H:10])[n:6]1)([H:7])[H:8]>>[N:1]([c:2]1[n:3]([H:9])[n:4][c:5]([H:10])[n:6]1)([H:7])[H:8]"
N        1.84320400      -0.15275324      -0.29214885
C        0.50282130      -0.01206230      -0.07732267
N       -0.30094869      -1.05135264       0.13469618
N       -1.58931296      -0.46916435       0.32176269
C       -1.39292435       0.82669038       0.14231100
N       -0.12244377       1.16920660      -0.04703831
H        2.38270902       0.67582650      -0.11253905
H        2.25925744      -1.01205214       0.02029121
H       -1.38273677      -1.51121572      -0.34496707
H       -2.19962522       1.53687691       0.25495488
10
Frame=7 idx=005182 GeodesicLength=0.362563769363941 rxn_smarts="[N:1]([c:2]1[n:3][n:4]([H:9])[c:5]([H:10])[n:6]1)([H:7])[H:8]>>[N:1]([c:2]1[n:3]([H:9])[n:4][c:5]([H:10])[n:6]1)([H:7])[H:8]"
N        1.84849064      -0.15036643      -0.28779325
C        0.50385547      -0.00737354      -0.09748491
N       -0.30602763      -1.04493649       0.09070397
N       -1.58386702      -0.46489029       0.30038980
C       -1.38907897       0.83267977       0.14205665
N       -0.12084794       1.17401010      -0.06808517
H        2.38367381       0.67888590      -0.09798836
H        2.25805440      -1.00687489       0.04083203
H       -1.40362793      -1.55374542      -0.31021077
H       -2.19062482       1.54261128       0.28758002
10
Frame=8 idx=005182 GeodesicLength=0.41326568076478787 rxn_smarts="[N:1]([c:2]1[n:3][n:4]([H:9])[c:5]([H:10])[n:6]1)([H:7])[H:8]>>[N:1]([c:2]1[n:3]([H:9])[n:4][c:5]([H:10])[n:6]1)([H:7])[H:8]"
N        1.85313362      -0.14811864      -0.28346736
C        0.50524153      -0.00180896      -0.11433357
N       -0.31230639      -1.03752648       0.03961221
N       -1.57942519      -0.46046610       0.27330223
C       -1.38494092       0.83901975       0.14282824
N       -0.11870889       1.17978871      -0.08416582
H        2.38480596       0.68137199      -0.08447195
H        2.25533297      -1.00246043       0.05992440
H       -1.42136805      -1.59731628      -0.26686329
H       -2.18176463       1.54751644       0.31763492
10
Frame=9 idx=005182 GeodesicLength=0.46268220249284675 rxn_smarts="[N:1]([c:2]1[n:3][n:4]([H:9])[c:5]([H:10])[n:6]1)([H:7])[H:8]>>[N:1]([c:2]1[n:3]([H:9])[n:4][c:5]([H:10])[n:6]1)([H:7])[H:8]"
N        1.85712339      -0.14576588      -0.27980160
C        0.50653838       0.00494404      -0.13092682
N       -0.32003545      -1.02801896      -0.02196759
N       -1.57612835      -0.45547645       0.23876527
C       -1.38115549       0.84575439       0.14224173
N       -0.11519363       1.18734284      -0.08963242
H        2.38635937       0.68237106      -0.06836974
H        2.25017732      -1.00018384       0.07425085
H       -1.43328724      -1.64220932      -0.20767659
H       -2.17439830       1.55124213       0.34311691
10
Frame=10 idx=005182 GeodesicLength=0.509047669536913 rxn_smarts="[N:1]([c:2]1[n:3][n:4]([H:9])[c:5]([H:10])[n:6]1)([H:7])[H:8]>>[N:1]([c:2]1[n:3]([H:9])[n:4][c:5]([H:10])[n:6]1)([H:7])[H:8]"
N        1.85980896      -0.14369750      -0.27637365
C        0.50696816       0.01315339      -0.14875936
N       -0.32939666      -1.01523150      -0.09358777
N       -1.57620048      -0.44946325       0.18784081
C       -1.37905637       0.85306745       0.13689471
N       -0.11106869       1.19639287      -0.08598108
H        2.38757160       0.68048763      -0.04623722
H        2.24120517      -1.00191932       0.08155206
H       -1.43182309      -1.68616670      -0.12511123
H       -2.16800859       1.55337691       0.36976272
10
Frame=11 idx=005182 GeodesicLength=0.550218916210771 rxn_smarts="[N:1]([c:2]1[n:3][n:4]([H:9])[c:5]([H:10])[n:6]1)([H:7])[H:8]>>[N:1]([c:2]1[n:3]([H:9])[n:4][c:5]([H:10])[n:6]1)([H:7])[H:8]"
N        1.86081428      -0.14343173      -0.27257017
C        0.50586557       0.02042666      -0.17069261
N       -0.34053467      -1.00110237      -0.17293977
N       -1.57920768      -0.44338178       0.12402226
C       -1.37782050       0.85891278       0.13212005
N       -0.10735396       1.20428581      -0.07832723
H        2.38695569       0.67597820      -0.02209032
H        2.22839672      -1.00638701       0.08868827
H       -1.41410090      -1.71662152      -0.02676766
H       -2.16301456       1.55132096       0.39855718
10
Frame=12 idx=005182 GeodesicLength=0.5908726891315162 rxn_smarts="[N:1]([c:2]1[n:3][n:4]([H:9])[c:5]([H:10])[n:6]1)([H:7])[H:8]>>[N:1]([c:2]1[n:3]([H:9])[n:4][c:5]([H:10])[n:6]1)([H:7])[H:8]"
N        1.85995117      -0.14491881      -0.27225856
C        0.50440853       0.02546150      -0.17857047
N       -0.35025224      -0.98749552      -0.23795485
N       -1.58454563      -0.43795251       0.05638514
C       -1.37891390       0.86154432       0.12991161
N       -0.10494434       1.20893658      -0.05993490
H        2.38630345       0.66820424      -0.00239302
H        2.21767924      -1.01409628       0.08426055
H       -1.38476724      -1.72548060       0.06694581
H       -2.16491904       1.54579708       0.41360869
10
Frame=13 idx=005182 GeodesicLength=0.634115490781833 rxn_smarts="[N:1]([c:2]1[n:3][n:4]([H:9])[c:5]([H:10])[n:6]1)([H:7])[H:8]>>[N:1]([c:2]1[n:3]([H:9])[n:4][c:5]([H:10])[n:6]1)([H:7])[H:8]"
N        1.85915109      -0.14798609      -0.27305446
C        0.50296896       0.02759611      -0.18646528
N       -0.35782968      -0.97753942      -0.28480261
N       -1.58779583      -0.43366600       0.00152824
C       -1.37802661       0.85969172       0.14121150
N       -0.10363569       1.21018344      -0.04615446
H        2.38498104       0.66219390       0.00672155
H        2.20920541      -1.01897700       0.08692208
H       -1.35991873      -1.72108654       0.13368506
H       -2.16909997       1.53958988       0.42040838
10
Frame=14 idx=005182 GeodesicLength=0.6783057327320641 rxn_smarts="[N:1]([c:2]1[n:3][n:4]([H:9])[c:5]([H:10])[n:6]1)([H:7])[H:8]>>[N:1]([c:2]1[n:3]([H:9])[n:4][c:5]([H:10])[n:6]1)([H:7])[H:8]"
N        1.85832591      -0.15152355      -0.27334121
C        0.50135413       0.02934942      -0.19763467
N       -0.36469319      -0.96875825      -0.32375015
N       -1.58850787      -0.43051648      -0.03737424
C       -1.37711231       0.85651795       0.15212483
N       -0.10340304       1.21078547      -0.03954331
H        2.38276953       0.65691467       0.01428808
H        2.20036871      -1.02277869       0.09396909
H       -1.33727051      -1.71329899       0.18343068
H       -2.17183136       1.53330845       0.42783090
10
Frame=15 idx=005182 GeodesicLength=0.7227934731624873 rxn_smarts="[N:1]([c:2]1[n:3][n:4]([H:9])[c:5]([H:10])[n:6]1)([H:7])[H:8]>>[N:1]([c:2]1[n:3]([H:9])[n:4][c:5]([H:10])[n:6]1)([H:7])[H:8]"
N        1.85733229      -0.15508979      -0.27298891
C        0.49961028       0.03103543      -0.20952680
N       -0.37123007      -0.96047322      -0.35785239
N       -1.58813945      -0.42801549      -0.06757794
C       -1.37697784       0.85367471       0.15748644
N       -0.10383949       1.21145264      -0.03824162
H        2.37989954       0.65172570       0.02282642
H        2.19118781      -1.02642665       0.10191135
H       -1.31498522      -1.70430397       0.22482985
H       -2.17285784       1.52642065       0.43913359
10
Frame=16 idx=005182 GeodesicLength=0.7673897956514495 rxn_smarts="[N:1]([c:2]1[n:3][n:4]([H:9])[c:5]([H:10])[n:6]1)([H:7])[H:8]>>[N:1]([c:2]1[n:3]([H:9])[n:4][c:5]([H:10])[n:6]1)([H:7])[H:8]"
N        1.85626098      -0.15858422      -0.27253230
C        0.49790605       0.03252383      -0.22052620
N       -0.37734607      -0.95275913      -0.38761778
N       -1.58736504      -0.42580375      -0.09381846
C       -1.37732740       0.85112646       0.15964829
N       -0.10451884       1.21209101      -0.03901809
H        2.37679820       0.64664628       0.03140514
H        2.18231658      -1.02996131       0.10939118
H       -1.29347768      -1.69434627       0.26115022
H       -2.17324677       1.51906711       0.45191800
