14
Frame=0 idx=001392 GeodesicLength=0.0 rxn_smarts="[C:1]([C@@:2]1([H:10])[C@@:3]2([H:11])[C:4]([H:12])([H:13])[C@:5]1([H:14])[O:6]2)([H:7])([H:8])[H:9]>>[C:1]([C@@:2]1([H:10])[C@@:3]([O:6][H:13])([H:11])[C:4]([H:12])=[C:5]1[H:14])([H:7])([H:8])[H:9]"
C       -1.70693130       0.26304126       0.12089636
C       -0.46876031      -0.52829787      -0.23004378
C        0.70455291       0.19245012      -0.90612089
C        1.22818716       0.86298127       0.37160605
C        0.70904257      -0.53038734       0.75277468
O        1.62166518      -0.98729815      -0.43542050
H       -1.45848042       1.23646374       0.54427557
H       -2.32284422       0.42214003      -0.76648132
H       -2.31367197      -0.28245017       0.84645824
H       -0.73241305      -1.50363242      -0.65400012
H        0.83705243       0.45678748      -1.95397381
H        0.72122998       1.74647353       0.75837065
H        2.33706469      -0.23166847      -0.10854056
H        0.84430638      -1.11660296       1.66019947
14
Frame=1 idx=001392 GeodesicLength=0.09223615121196362 rxn_smarts="[C:1]([C@@:2]1([H:10])[C@@:3]2([H:11])[C:4]([H:12])([H:13])[C@:5]1([H:14])[O:6]2)([H:7])([H:8])[H:9]>>[C:1]([C@@:2]1([H:10])[C@@:3]([O:6][H:13])([H:11])[C:4]([H:12])=[C:5]1[H:14])([H:7])([H:8])[H:9]"
C       -1.71064907       0.26240856       0.11708677
C       -0.46932873      -0.52782851      -0.22489600
C        0.70577801       0.18810403      -0.90473292
C        1.23036314       0.85145767       0.37626743
C        0.70573487      -0.53181067       0.76026266
O        1.62603860      -0.98725611      -0.45779590
H       -1.46678796       1.23979415       0.53411161
H       -2.32457846       0.41287127      -0.77320734
H       -2.31793903      -0.27923336       0.84511654
H       -0.72904158      -1.50571472      -0.64498712
H        0.82228986       0.47022880      -1.94934657
H        0.74335339       1.74565912       0.76249984
H        2.34891122      -0.22472161      -0.11125798
H        0.83585573      -1.11395863       1.67087896
14
Frame=2 idx=001392 GeodesicLength=0.18442597108226422 rxn_smarts="[C:1]([C@@:2]1([H:10])[C@@:3]2([H:11])[C:4]([H:12])([H:13])[C@:5]1([H:14])[O:6]2)([H:7])([H:8])[H:9]>>[C:1]([C@@:2]1([H:10])[C@@:3]([O:6][H:13])([H:11])[C:4]([H:12])=[C:5]1[H:14])([H:7])([H:8])[H:9]"
C       -1.71436229       0.26164336       0.11321085
C       -0.46988578      -0.52740410      -0.21972839
C        0.70691290       0.18378395      -0.90333901
C        1.23269249       0.83972785       0.38086556
C        0.70222303      -0.53317930       0.76795074
O        1.63030852      -0.98700817      -0.48080559
H       -1.47511772       1.24295306       0.52378676
H       -2.32625465       0.40339132      -0.77994160
H       -2.32224274      -0.27612492       0.84365801
H       -0.72556193      -1.50782866      -0.63593771
H        0.80734201       0.48393773      -1.94411680
H        0.76635412       1.74445086       0.76657198
H        2.36078575      -0.21756661      -0.11423757
H        0.82680629      -1.11077636       1.68206276
14
Frame=3 idx=001392 GeodesicLength=0.2766316316173166 rxn_smarts="[C:1]([C@@:2]1([H:10])[C@@:3]2([H:11])[C:4]([H:12])([H:13])[C@:5]1([H:14])[O:6]2)([H:7])([H:8])[H:9]>>[C:1]([C@@:2]1([H:10])[C@@:3]([O:6][H:13])([H:11])[C:4]([H:12])=[C:5]1[H:14])([H:7])([H:8])[H:9]"
C       -1.71809959       0.26074144       0.10927168
C       -0.47043798      -0.52702784      -0.21454336
C        0.70796206       0.17948772      -0.90194514
C        1.23520049       0.82778214       0.38540776
C        0.69851104      -0.53448076       0.77585660
O        1.63447647      -0.98654321      -0.50449689
H       -1.48350048       1.24593566       0.51332919
H       -2.32790192       0.39370267      -0.78669233
H       -2.32662505      -0.27313561       0.84207758
H       -0.72197535      -1.50998420      -0.62686592
H        0.79224532       0.49790497      -1.93827470
H        0.79027519       1.74282009       0.77058781
H        2.37272404      -0.21019781      -0.11749527
H        0.81714576      -1.10700525       1.69378299
14
Frame=4 idx=001392 GeodesicLength=0.3688323829602509 rxn_smarts="[C:1]([C@@:2]1([H:10])[C@@:3]2([H:11])[C:4]([H:12])([H:13])[C@:5]1([H:14])[O:6]2)([H:7])([H:8])[H:9]>>[C:1]([C@@:2]1([H:10])[C@@:3]([O:6][H:13])([H:11])[C:4]([H:12])=[C:5]1[H:14])([H:7])([H:8])[H:9]"
C       -1.72185691       0.25969443       0.10526751
C       -0.47098343      -0.52669869      -0.20933701
C        0.70892040       0.17522201      -0.90054646
C        1.23789212       0.81560426       0.38989187
C        0.69458503      -0.53570597       0.78399034
O        1.63851830      -0.98583467      -0.52890639
H       -1.49193666       1.24873055       0.50273592
H       -2.32950978       0.38379759      -0.79345909
H       -2.33108093      -0.27027870       0.84036849
H       -0.71827031      -1.51217950      -0.61776421
H        0.77700887       0.51213011      -1.93179197
H        0.81515721       1.74072169       0.77453965
H        2.38472023      -0.20260178      -0.12104135
H        0.80683588      -1.10260133       1.70605269
14
Frame=5 idx=001392 GeodesicLength=0.4610275161070783 rxn_smarts="[C:1]([C@@:2]1([H:10])[C@@:3]2([H:11])[C:4]([H:12])([H:13])[C@:5]1([H:14])[O:6]2)([H:7])([H:8])[H:9]>>[C:1]([C@@:2]1([H:10])[C@@:3]([O:6][H:13])([H:11])[C:4]([H:12])=[C:5]1[H:14])([H:7])([H:8])[H:9]"
C       -1.72563774       0.25849418       0.10119698
C       -0.47152200      -0.52641669      -0.20410621
C        0.70978532       0.17099151      -0.89913994
C        1.24077816       0.80317748       0.39431840
C        0.69043368      -0.53684353       0.79236525
O        1.64241384      -0.98485645      -0.55407565
H       -1.50043393       1.25132782       0.49200885
H       -2.33107653       0.37366848      -0.80024440
H       -2.33561618      -0.26756712       0.83852427
H       -0.71443710      -1.51441579      -0.60862836
H        0.76164674       0.52661187      -1.92464363
H        0.84104534       1.73810870       0.77842389
H        2.39677819      -0.19476621      -0.12488773
H        0.79584220      -1.09751424       1.71888827
14
Frame=6 idx=001392 GeodesicLength=0.5532183586159712 rxn_smarts="[C:1]([C@@:2]1([H:10])[C@@:3]2([H:11])[C:4]([H:12])([H:13])[C@:5]1([H:14])[O:6]2)([H:7])([H:8])[H:9]>>[C:1]([C@@:2]1([H:10])[C@@:3]([O:6][H:13])([H:11])[C:4]([H:12])=[C:5]1[H:14])([H:7])([H:8])[H:9]"
C       -1.72944652       0.25713237       0.09705829
C       -0.47205343      -0.52618215      -0.19884727
C        0.71055417       0.16680072      -0.89772235
C        1.24387076       0.79048354       0.39868878
C        0.68604536      -0.53788052       0.80099669
O        1.64614117      -0.98358057      -0.58004867
H       -1.50900162       1.25371794       0.48114997
H       -2.33260095       0.36330744      -0.80705241
H       -2.34023787      -0.26501437       0.83653774
H       -0.71046474      -1.51669527      -0.59945348
H        0.74617307       0.54134971      -1.91680449
H        0.86798695       1.73492982       0.78223766
H        2.40890289      -0.18667907      -0.12904664
H        0.78413076      -1.09168959       1.73230618
14
Frame=7 idx=001392 GeodesicLength=0.6454263170351762 rxn_smarts="[C:1]([C@@:2]1([H:10])[C@@:3]2([H:11])[C:4]([H:12])([H:13])[C@:5]1([H:14])[O:6]2)([H:7])([H:8])[H:9]>>[C:1]([C@@:2]1([H:10])[C@@:3]([O:6][H:13])([H:11])[C:4]([H:12])=[C:5]1[H:14])([H:7])([H:8])[H:9]"
C       -1.73329617       0.25560401       0.09284685
C       -0.47257795      -0.52599744      -0.19355880
C        0.71122356       0.16265279      -0.89629300
C        1.24718782       0.77750499       0.40301233
C        0.68141478      -0.53880442       0.80990529
O        1.64968566      -0.98198544      -0.60687653
H       -1.51765986       1.25590296       0.47015576
H       -2.33409817       0.35270184      -0.81389503
H       -2.34495722      -0.26262718       0.83440517
H       -0.70633981      -1.51902788      -0.59024041
H        0.73059350       0.55634407      -1.90825546
H        0.89603386       1.73113642       0.78599402
H        2.42111102      -0.17833260      -0.13352798
H        0.77167898      -1.08507211       1.74632778
14
Frame=8 idx=001392 GeodesicLength=0.737567648121786 rxn_smarts="[C:1]([C@@:2]1([H:10])[C@@:3]2([H:11])[C:4]([H:12])([H:13])[C@:5]1([H:14])[O:6]2)([H:7])([H:8])[H:9]>>[C:1]([C@@:2]1([H:10])[C@@:3]([O:6][H:13])([H:11])[C:4]([H:12])=[C:5]1[H:14])([H:7])([H:8])[H:9]"
C       -1.73716219       0.25388548       0.08856825
C       -0.47309312      -0.52585397      -0.18822382
C        0.71179670       0.15856108      -0.89482848
C        1.25073075       0.76420205       0.40726492
C        0.67650255      -0.53959402       0.81909589
O        1.65297727      -0.97998741      -0.63458856
H       -1.52638154       1.25783093       0.45903570
H       -2.33550767       0.34184655      -0.82075057
H       -2.34976909      -0.26044139       0.83210557
H       -0.70205642      -1.52138471      -0.58095781
H        0.71495744       0.57159740      -1.89892810
H        0.92522754       1.72662531       0.78961442
H        2.43336653      -0.16969677      -0.13835162
H        0.75841125      -1.07759053       1.76094420
14
Frame=9 idx=001392 GeodesicLength=0.8297491301529583 rxn_smarts="[C:1]([C@@:2]1([H:10])[C@@:3]2([H:11])[C:4]([H:12])([H:13])[C@:5]1([H:14])[O:6]2)([H:7])([H:8])[H:9]>>[C:1]([C@@:2]1([H:10])[C@@:3]([O:6][H:13])([H:11])[C:4]([H:12])=[C:5]1[H:14])([H:7])([H:8])[H:9]"
C       -1.74108533       0.25197986       0.08420629
C       -0.47360063      -0.52576295      -0.18284421
C        0.71226634       0.15452227      -0.89334148
C        1.25453937       0.75056169       0.41147867
C        0.67132484      -0.54023733       0.82860368
O        1.65602835      -0.97760015      -0.66326604
H       -1.53522282       1.25954377       0.44775103
H       -2.33689693       0.33069355      -0.82765938
H       -2.35470288      -0.25843593       0.82965042
H       -0.69759184      -1.52380576      -0.57161507
H        0.69923578       0.58713990      -1.88881924
H        0.95565082       1.72135871       0.79319194
H        2.44572537      -0.16078278      -0.14353441
H        0.74432957      -1.06917485       1.77619780
14
Frame=10 idx=001392 GeodesicLength=0.9219254816167912 rxn_smarts="[C:1]([C@@:2]1([H:10])[C@@:3]2([H:11])[C:4]([H:12])([H:13])[C@:5]1([H:14])[O:6]2)([H:7])([H:8])[H:9]>>[C:1]([C@@:2]1([H:10])[C@@:3]([O:6][H:13])([H:11])[C:4]([H:12])=[C:5]1[H:14])([H:7])([H:8])[H:9]"
C       -1.74504721       0.24987041       0.07974919
C       -0.47409281      -0.52572137      -0.17740735
C        0.71262369       0.15055659      -0.89181389
C        1.25862105       0.73653505       0.41565509
C        0.66585502      -0.54072843       0.83844751
O        1.65877083      -0.97475417      -0.69296571
H       -1.54417266       1.26102917       0.43623988
H       -2.33824091       0.31918608      -0.83462492
H       -2.35972670      -0.25661283       0.82704336
H       -0.69291955      -1.52628308      -0.56218571
H        0.68342010       0.60302025      -1.87786329
H        0.98737647       1.71522720       0.79671055
H        2.45815951      -0.15158043      -0.14909361
H        0.72937317      -1.05974444       1.79210890
14
Frame=11 idx=001392 GeodesicLength=1.014096821249633 rxn_smarts="[C:1]([C@@:2]1([H:10])[C@@:3]2([H:11])[C:4]([H:12])([H:13])[C@:5]1([H:14])[O:6]2)([H:7])([H:8])[H:9]>>[C:1]([C@@:2]1([H:10])[C@@:3]([O:6][H:13])([H:11])[C:4]([H:12])=[C:5]1[H:14])([H:7])([H:8])[H:9]"
C       -1.74906207       0.24753767       0.07520107
C       -0.47457602      -0.52572307      -0.17190448
C        0.71287827       0.14666117      -0.89023546
C        1.26300640       0.72209279       0.41977708
C        0.66006692      -0.54101766       0.84863753
O        1.66116601      -0.97139030      -0.72373416
H       -1.55324420       1.26224691       0.42453566
H       -2.33953102       0.30732520      -0.84163643
H       -2.36487978      -0.25500928       0.82425585
H       -0.68804010      -1.52880440      -0.55264894
H        0.66757511       0.61921164      -1.86600560
H        1.02046107       1.70812403       0.80015736
H        2.47068766      -0.14206547      -0.15505485
H        0.71349175      -1.04918923       1.80865538
14
Frame=12 idx=001392 GeodesicLength=1.1062778206595125 rxn_smarts="[C:1]([C@@:2]1([H:10])[C@@:3]2([H:11])[C:4]([H:12])([H:13])[C@:5]1([H:14])[O:6]2)([H:7])([H:8])[H:9]>>[C:1]([C@@:2]1([H:10])[C@@:3]([O:6][H:13])([H:11])[C:4]([H:12])=[C:5]1[H:14])([H:7])([H:8])[H:9]"
C       -1.75313794       0.24497511       0.07055336
C       -0.47504434      -0.52577326      -0.16632852
C        0.71302368       0.14284332      -0.88860550
C        1.26771647       0.70719909       0.42386031
C        0.65395083      -0.54108663       0.85921758
O        1.66316842      -0.96746562      -0.75563814
H       -1.56246071       1.26319852       0.41264513
H       -2.34076473       0.29511157      -0.84872315
H       -2.37017091      -0.25364718       0.82127283
H       -0.68292217      -1.53138989      -0.54299944
H        0.65169875       0.63573337      -1.85322316
H        1.05495403       1.69996952       0.80351983
H        2.48331705      -0.13224004      -0.16142470
H        0.69667158      -1.03742787       1.82587358
14
Frame=13 idx=001392 GeodesicLength=1.1984620773408223 rxn_smarts="[C:1]([C@@:2]1([H:10])[C@@:3]2([H:11])[C:4]([H:12])([H:13])[C@:5]1([H:14])[O:6]2)([H:7])([H:8])[H:9]>>[C:1]([C@@:2]1([H:10])[C@@:3]([O:6][H:13])([H:11])[C:4]([H:12])=[C:5]1[H:14])([H:7])([H:8])[H:9]"
C       -1.75727857       0.24216485       0.06579840
C       -0.47549589      -0.52586774      -0.16066614
C        0.71306072       0.13911143      -0.88691069
C        1.27277928       0.69180523       0.42790286
C        0.64748057      -0.54089713       0.87021295
O        1.66471582      -0.96290935      -0.78874093
H       -1.57183434       1.26386435       0.40054760
H       -2.34193097       0.28251088      -0.85589172
H       -2.37560971      -0.25254432       0.81808071
H       -0.67754418      -1.53403510      -0.53320984
H        0.63581538       0.65260513      -1.83945140
H        1.09091995       1.69063495       0.80679206
H        2.49605075      -0.12209538      -0.16822385
H        0.67887119      -1.02434780       1.84375999
14
Frame=14 idx=001392 GeodesicLength=1.2906509248948452 rxn_smarts="[C:1]([C@@:2]1([H:10])[C@@:3]2([H:11])[C:4]([H:12])([H:13])[C@:5]1([H:14])[O:6]2)([H:7])([H:8])[H:9]>>[C:1]([C@@:2]1([H:10])[C@@:3]([O:6][H:13])([H:11])[C:4]([H:12])=[C:5]1[H:14])([H:7])([H:8])[H:9]"
C       -1.76149051       0.23908970       0.06092600
C       -0.47592785      -0.52600357      -0.15490380
C        0.71298972       0.13547418      -0.88513931
C        1.27822719       0.67585788       0.43190645
C        0.64063146      -0.54040635       0.88165597
O        1.66574006      -0.95764750      -0.82311163
H       -1.58138265       1.26422919       0.38822250
H       -2.34302153       0.26948951      -0.86315623
H       -2.38120815      -0.25171950       0.81466393
H       -0.67187997      -1.53674138      -0.52325295
H        0.61994563       0.66985120      -1.82462497
H        1.12842129       1.67998495       0.80997032
H        2.50889526      -0.11162876      -0.17547101
H        0.66006005      -1.00982956       1.86231471
14
Frame=15 idx=001392 GeodesicLength=1.3828458681054387 rxn_smarts="[C:1]([C@@:2]1([H:10])[C@@:3]2([H:11])[C:4]([H:12])([H:13])[C@:5]1([H:14])[O:6]2)([H:7])([H:8])[H:9]>>[C:1]([C@@:2]1([H:10])[C@@:3]([O:6][H:13])([H:11])[C:4]([H:12])=[C:5]1[H:14])([H:7])([H:8])[H:9]"
C       -1.76578063       0.23573094       0.05592411
C       -0.47633647      -0.52617669      -0.14902598
C        0.71281151       0.13194130      -0.88327885
C        1.28409686       0.65929551       0.43587214
C        0.63337708      -0.53956341       0.89358222
O        1.66616240      -0.95159678      -0.85882345
H       -1.59112552       1.26427688       0.37564505
H       -2.34402634       0.25600969      -0.87053335
H       -2.38697889      -0.25119268       0.81100499
H       -0.66589940      -1.53950984      -0.51309633
H        0.60411282       0.68750101      -1.80866984
H        1.16751689       1.66786788       0.81305119
H        2.52185751      -0.10084209      -0.18318605
H        0.64021218      -0.99374172       1.88153415
14
Frame=16 idx=001392 GeodesicLength=1.4750497718922444 rxn_smarts="[C:1]([C@@:2]1([H:10])[C@@:3]2([H:11])[C:4]([H:12])([H:13])[C@:5]1([H:14])[O:6]2)([H:7])([H:8])[H:9]>>[C:1]([C@@:2]1([H:10])[C@@:3]([O:6][H:13])([H:11])[C:4]([H:12])=[C:5]1[H:14])([H:7])([H:8])[H:9]"
C       -1.77015623       0.23206758       0.05077846
C       -0.47671706      -0.52638168      -0.14301532
C        0.71252792       0.12852483      -0.88131542
C        1.29043047       0.64204610       0.43980095
C        0.62568862      -0.53830818       0.90603011
O        1.66589162      -0.94466206      -0.89595533
H       -1.60108526       1.26398997       0.36278386
H       -2.34493398       0.24202626      -0.87804193
H       -2.39293511      -0.25098519       0.80708473
H       -0.65956792      -1.54234089      -0.50270238
H        0.58834263       0.70559102      -1.79150037
H        1.20826297       1.65411419       0.81603127
H        2.53494526      -0.08974452      -0.19138929
H        0.61930608      -0.97593743       1.90141068
