17
Frame=0 idx=009570 GeodesicLength=0.0 rxn_smarts="[C:1]1([H:8])([H:9])[C:2]([H:10])([H:11])[C:3]12[C:4]([H:12])([H:13])[C@@:5]1([H:14])[C:6]([H:15])([H:16])[C@@:7]21[H:17]>>[C:1](=[C:3]([C:2]([H:10])([H:11])[H:15])[C:4]([C:5]1([H:14])[C:6]([H:16])=[C:7]1[H:17])([H:12])[H:13])([H:8])[H:9]"
C       -1.95985721      -0.58116858      -0.10551641
C       -0.66851633       1.23427907      -0.55392388
C       -0.63666974      -0.18700225      -0.10310359
C        0.46700546      -0.97738111      -0.81219099
C        1.50805015      -0.60304523       0.23080075
C        1.39981012       0.80660504       0.72053612
C        0.55178515      -0.13848306       1.29237651
H       -2.28984391      -1.52749378      -0.52277106
H       -2.71080211       0.03667751       0.37122707
H       -0.79469361       1.38718215      -1.62456519
H       -1.24570824       1.92976082       0.05470803
H        0.25808780      -2.04824363      -0.75880094
H        0.64043774      -0.70131637      -1.85771189
H        2.42538157      -1.16298110       0.37926532
H        0.58650444       1.47746878      -0.15169286
H        2.14869870       1.46349149       1.13117860
H        0.32033002      -0.40834971       2.31018438
17
Frame=1 idx=009570 GeodesicLength=0.0807907578847602 rxn_smarts="[C:1]1([H:8])([H:9])[C:2]([H:10])([H:11])[C:3]12[C:4]([H:12])([H:13])[C@@:5]1([H:14])[C:6]([H:15])([H:16])[C@@:7]21[H:17]>>[C:1](=[C:3]([C:2]([H:10])([H:11])[H:15])[C:4]([C:5]1([H:14])[C:6]([H:16])=[C:7]1[H:17])([H:12])[H:13])([H:8])[H:9]"
C       -1.96322655      -0.56736796      -0.11643367
C       -0.68694417       1.23043055      -0.56081962
C       -0.63548104      -0.18907124      -0.10727560
C        0.47027817      -0.98017869      -0.81002106
C        1.51196988      -0.60525990       0.23342944
C        1.40657793       0.80479678       0.72373449
C        0.55973978      -0.13994574       1.29863900
H       -2.29400165      -1.51167059      -0.53733533
H       -2.70542321       0.03115961       0.39713044
H       -0.80306086       1.38370321      -1.63247834
H       -1.26357907       1.92780146       0.04550883
H        0.25695076      -2.05013813      -0.75889685
H        0.65379224      -0.70169170      -1.85304812
H        2.42685363      -1.16929395       0.38088785
H        0.58437557       1.48571703      -0.15269745
H        2.15624009       1.46088747       1.13408798
H        0.32493850      -0.40987821       2.31558800
17
Frame=2 idx=009570 GeodesicLength=0.16155155138986904 rxn_smarts="[C:1]1([H:8])([H:9])[C:2]([H:10])([H:11])[C:3]12[C:4]([H:12])([H:13])[C@@:5]1([H:14])[C:6]([H:15])([H:16])[C@@:7]21[H:17]>>[C:1](=[C:3]([C:2]([H:10])([H:11])[H:15])[C:4]([C:5]1([H:14])[C:6]([H:16])=[C:7]1[H:17])([H:12])[H:13])([H:8])[H:9]"
C       -1.96641924      -0.55383075      -0.12633178
C       -0.70555718       1.22665278      -0.56773326
C       -0.63441085      -0.19080668      -0.11136788
C        0.47332850      -0.98273063      -0.80783029
C        1.51581366      -0.60755917       0.23604691
C        1.41366074       0.80287713       0.72703934
C        0.56786060      -0.14135900       1.30501093
H       -2.29769576      -1.49625253      -0.55079307
H       -2.70026369       0.02526786       0.42044206
H       -0.81169460       1.38035828      -1.64029760
H       -1.28149056       1.92596012       0.03636717
H        0.25560638      -2.05177687      -0.75916033
H        0.66675362      -0.70178170      -1.84827797
H        2.42812349      -1.17588813       0.38237317
H        0.58248178       1.49419616      -0.15358771
H        2.16425737       1.45803093       1.13702683
H        0.32964574      -0.41135782       2.32107346
17
Frame=3 idx=009570 GeodesicLength=0.2422917452070108 rxn_smarts="[C:1]1([H:8])([H:9])[C:2]([H:10])([H:11])[C:3]12[C:4]([H:12])([H:13])[C@@:5]1([H:14])[C:6]([H:15])([H:16])[C@@:7]21[H:17]>>[C:1](=[C:3]([C:2]([H:10])([H:11])[H:15])[C:4]([C:5]1([H:14])[C:6]([H:16])=[C:7]1[H:17])([H:12])[H:13])([H:8])[H:9]"
C       -1.96943312      -0.54059910      -0.13527119
C       -0.72436516       1.22292368      -0.57470126
C       -0.63344519      -0.19221971      -0.11540706
C        0.47618801      -0.98504445      -0.80562184
C        1.51959161      -0.60993985       0.23866726
C        1.42105148       0.80084765       0.73045622
C        0.57613859      -0.14272650       1.31148832
H       -2.30098391      -1.48120143      -0.56333261
H       -2.69533400       0.01909572       0.44153161
H       -0.82060352       1.37710524      -1.64806242
H       -1.29945650       1.92422017       0.02723571
H        0.25409286      -2.05316736      -0.75959279
H        0.67937530      -0.70159779      -1.84340632
H        2.42920055      -1.18274994       0.38375217
H        0.58082816       1.50290662      -0.15437906
H        2.17272967       1.45493182       1.14000953
H        0.33442517      -0.41278476       2.32663373
17
Frame=4 idx=009570 GeodesicLength=0.32301922213296264 rxn_smarts="[C:1]1([H:8])([H:9])[C:2]([H:10])([H:11])[C:3]12[C:4]([H:12])([H:13])[C@@:5]1([H:14])[C:6]([H:15])([H:16])[C@@:7]21[H:17]>>[C:1](=[C:3]([C:2]([H:10])([H:11])[H:15])[C:4]([C:5]1([H:14])[C:6]([H:16])=[C:7]1[H:17])([H:12])[H:13])([H:8])[H:9]"
C       -1.97227167      -0.52769843      -0.14332158
C       -0.74337663       1.21922851      -0.58175982
C       -0.63257223      -0.19331471      -0.11942539
C        0.47888472      -0.98711948      -0.80340798
C        1.52330979      -0.61239997       0.24129970
C        1.42874139       0.79870571       0.73399622
C        0.58455981      -0.14405781       1.31806443
H       -2.30390206      -1.46652726      -0.57502237
H       -2.69064495       0.01273753       0.46068993
H       -0.82978889       1.37391696      -1.65581277
H       -1.31748522       1.92257229       0.01806806
H        0.25244431      -2.05430964      -0.76021209
H        0.69170902      -0.70113799      -1.83844367
H        2.43008941      -1.18987031       0.38504760
H        0.57942313       1.51185136      -0.15507970
H        2.18163532       1.45159184       1.14306217
H        0.33924473      -0.41416859       2.33225727
17
Frame=5 idx=009570 GeodesicLength=0.40374088134020847 rxn_smarts="[C:1]1([H:8])([H:9])[C:2]([H:10])([H:11])[C:3]12[C:4]([H:12])([H:13])[C@@:5]1([H:14])[C:6]([H:15])([H:16])[C@@:7]21[H:17]>>[C:1](=[C:3]([C:2]([H:10])([H:11])[H:15])[C:4]([C:5]1([H:14])[C:6]([H:16])=[C:7]1[H:17])([H:12])[H:13])([H:8])[H:9]"
C       -1.97494024      -0.51514290      -0.15055014
C       -0.76259911       1.21555583      -0.58894538
C       -0.63178160      -0.19409122      -0.12345428
C        0.48144214      -0.98895191      -0.80120110
C        1.52697102      -0.61493846       0.24395244
C        1.43672338       0.79644717       0.73767115
C        0.59310952      -0.14536145       1.32473306
H       -2.30647816      -1.45224869      -0.58590255
H       -2.68619137       0.00626589       0.47817372
H       -0.83925023       1.37077104      -1.66358792
H       -1.33558808       1.92100868       0.00882122
H        0.25068705      -2.05519955      -0.76103755
H        0.70380090      -0.70039620      -1.83339932
H        2.43078913      -1.19724327       0.38627942
H        0.57827765       1.52103627      -0.15569498
H        2.19095690       1.44800708       1.14621089
H        0.34407109      -0.41551829       2.33793132
17
Frame=6 idx=009570 GeodesicLength=0.48446057062783465 rxn_smarts="[C:1]1([H:8])([H:9])[C:2]([H:10])([H:11])[C:3]12[C:4]([H:12])([H:13])[C@@:5]1([H:14])[C:6]([H:15])([H:16])[C@@:7]21[H:17]>>[C:1](=[C:3]([C:2]([H:10])([H:11])[H:15])[C:4]([C:5]1([H:14])[C:6]([H:16])=[C:7]1[H:17])([H:12])[H:13])([H:8])[H:9]"
C       -1.97744868      -0.50293647      -0.15701674
C       -0.78204019       1.21189737      -0.59629283
C       -0.63106404      -0.19454499      -0.12752375
C        0.48387985      -0.99053504      -0.79901572
C        1.53057601      -0.61755449       0.24663143
C        1.44499018       0.79406638       0.74149456
C        0.60177246      -0.14664882       1.33148819
H       -2.30872879      -1.43839385      -0.59596679
H       -2.68196009      -0.00026010       0.49418576
H       -0.84898808       1.36765076      -1.67142577
H       -1.35377314       1.91952392      -0.00054611
H        0.24884148      -2.05582972      -0.76209249
H        0.71569203      -0.69936202      -1.82828376
H        2.43129718      -1.20486502       0.38746293
H        0.57740415       1.53046812      -0.15622715
H        2.20067807       1.44417130       1.14948500
H        0.34887159      -0.41684734       2.34364323
17
Frame=7 idx=009570 GeodesicLength=0.5651808218704696 rxn_smarts="[C:1]1([H:8])([H:9])[C:2]([H:10])([H:11])[C:3]12[C:4]([H:12])([H:13])[C@@:5]1([H:14])[C:6]([H:15])([H:16])[C@@:7]21[H:17]>>[C:1](=[C:3]([C:2]([H:10])([H:11])[H:15])[C:4]([C:5]1([H:14])[C:6]([H:16])=[C:7]1[H:17])([H:12])[H:13])([H:8])[H:9]"
C       -1.97980758      -0.49107917      -0.16279130
C       -0.80170746       1.20824542      -0.60383969
C       -0.63041065      -0.19466972      -0.13166692
C        0.48621658      -0.99186047      -0.79686726
C        1.53412316      -0.62024795       0.24934271
C        1.45353380       0.79155612       0.74548048
C        0.61053015      -0.14793108       1.33832314
H       -2.31066871      -1.42500031      -0.60520164
H       -2.67792181      -0.00678608       0.50894498
H       -0.85899718       1.36454237      -1.67936679
H       -1.37205094       1.91811338      -0.01007873
H        0.24692531      -2.05618975      -0.76340249
H        0.72742370      -0.69802204      -1.82310678
H        2.43160671      -1.21273324       0.38861399
H        0.57681443       1.54015625      -0.15667814
H        2.21078210       1.44007511       1.15291516
H        0.35360839      -0.41816886       2.34937927
17
Frame=8 idx=009570 GeodesicLength=0.6459033047270626 rxn_smarts="[C:1]1([H:8])([H:9])[C:2]([H:10])([H:11])[C:3]12[C:4]([H:12])([H:13])[C@@:5]1([H:14])[C:6]([H:15])([H:16])[C@@:7]21[H:17]>>[C:1](=[C:3]([C:2]([H:10])([H:11])[H:15])[C:4]([C:5]1([H:14])[C:6]([H:16])=[C:7]1[H:17])([H:12])[H:13])([H:8])[H:9]"
C       -1.98202467      -0.47956605      -0.16792897
C       -0.82161030       1.20459244      -0.61162031
C       -0.62981391      -0.19445682      -0.13591206
C        0.48846755      -0.99291786      -0.79477064
C        1.53761042      -0.62301879       0.25209020
C        1.46234717       0.78890863       0.74964380
C        0.61936655      -0.14922106       1.34523296
H       -2.31230479      -1.41210421      -0.61356754
H       -2.67405155      -0.01326594       0.52261563
H       -0.86927736       1.36143169      -1.68744751
H       -1.39042929       1.91677453      -0.01981908
H        0.24495382      -2.05626817      -0.76499385
H        0.73903012      -0.69636067      -1.81787741
H        2.43171164      -1.22084611       0.38974271
H        0.57652157       1.55010989      -0.15704602
H        2.22125458       1.43570697       1.15653188
H        0.35824848      -0.41949848       2.35512621
17
Frame=9 idx=009570 GeodesicLength=0.7266302776268194 rxn_smarts="[C:1]1([H:8])([H:9])[C:2]([H:10])([H:11])[C:3]12[C:4]([H:12])([H:13])[C@@:5]1([H:14])[C:6]([H:15])([H:16])[C@@:7]21[H:17]>>[C:1](=[C:3]([C:2]([H:10])([H:11])[H:15])[C:4]([C:5]1([H:14])[C:6]([H:16])=[C:7]1[H:17])([H:12])[H:13])([H:8])[H:9]"
C       -1.98410227      -0.46839507      -0.17245445
C       -0.84176062       1.20092679      -0.61966355
C       -0.62926722      -0.19389928      -0.14027704
C        0.49064511      -0.99369798      -0.79273509
C        1.54103804      -0.62586583       0.25487750
C        1.47142813       0.78611700       0.75399812
C        0.62827422      -0.15052980       1.35221738
H       -2.31364872      -1.39972350      -0.62105528
H       -2.67033297      -0.01965711       0.53531304
H       -0.87984422       1.35829625      -1.69569626
H       -1.40891503       1.91550220      -0.02980157
H        0.24294118      -2.05605468      -0.76688547
H        0.75053640      -0.69436471      -1.81259972
H        2.43160760      -1.22920083       0.39085398
H        0.57653967       1.56033740      -0.15732930
H        2.23208845       1.43105767       1.16035998
H        0.36277225      -0.42084851       2.36087775
17
Frame=10 idx=009570 GeodesicLength=0.8073605943981949 rxn_smarts="[C:1]1([H:8])([H:9])[C:2]([H:10])([H:11])[C:3]12[C:4]([H:12])([H:13])[C@@:5]1([H:14])[C:6]([H:15])([H:16])[C@@:7]21[H:17]>>[C:1](=[C:3]([C:2]([H:10])([H:11])[H:15])[C:4]([C:5]1([H:14])[C:6]([H:16])=[C:7]1[H:17])([H:12])[H:13])([H:8])[H:9]"
C       -1.98605621      -0.45755345      -0.17642922
C       -0.86216797       1.19724133      -0.62800727
C       -0.62876182      -0.19298469      -0.14479143
C        0.49276249      -0.99418994      -0.79077470
C        1.54440181      -0.62878963       0.25770950
C        1.48076978       0.78317264       0.75855827
C        0.63723465      -0.15186900       1.35927195
H       -2.31470992      -1.38788986      -0.62763438
H       -2.66670612      -0.02593346       0.54722191
H       -0.89069185       1.35512374      -1.70415617
H       -1.42752403       1.91429038      -0.04007067
H        0.24089594      -2.05553497      -0.76910153
H        0.76197533      -0.69201919      -1.80728096
H        2.43128476      -1.23779758       0.39195924
H        0.57688004       1.57085252      -0.15752606
H        2.24327044       1.42611361       1.16443011
H        0.36714267      -0.42223245       2.36662139
17
Frame=11 idx=009570 GeodesicLength=0.8880996731166177 rxn_smarts="[C:1]1([H:8])([H:9])[C:2]([H:10])([H:11])[C:3]12[C:4]([H:12])([H:13])[C@@:5]1([H:14])[C:6]([H:15])([H:16])[C@@:7]21[H:17]>>[C:1](=[C:3]([C:2]([H:10])([H:11])[H:15])[C:4]([C:5]1([H:14])[C:6]([H:16])=[C:7]1[H:17])([H:12])[H:13])([H:8])[H:9]"
C       -1.98789039      -0.44703166      -0.17988535
C       -0.88284742       1.19352290      -0.63668575
C       -0.62829085      -0.19170178      -0.14947794
C        0.49483144      -0.99438134      -0.78890239
C        1.54769875      -0.63179001       0.26058946
C        1.49036760       0.78006640       0.76334014
C        0.64623475      -0.15325071       1.36639492
H       -2.31549496      -1.37662757      -0.63327177
H       -2.66313031      -0.03205914       0.55847380
H       -0.90182950       1.35189370      -1.71286468
H       -1.44626724       1.91313279      -0.05066839
H        0.23883017      -2.05469395      -0.77166783
H        0.77337393      -0.68930509      -1.80192621
H        2.43073429      -1.24663608       0.39306426
H        0.57755798       1.58166617      -0.15763276
H        2.25479090       1.42086033       1.16877277
H        0.37133084      -0.42366496       2.37234773
17
Frame=12 idx=009570 GeodesicLength=0.9688407597788431 rxn_smarts="[C:1]1([H:8])([H:9])[C:2]([H:10])([H:11])[C:3]12[C:4]([H:12])([H:13])[C@@:5]1([H:14])[C:6]([H:15])([H:16])[C@@:7]21[H:17]>>[C:1](=[C:3]([C:2]([H:10])([H:11])[H:15])[C:4]([C:5]1([H:14])[C:6]([H:16])=[C:7]1[H:17])([H:12])[H:13])([H:8])[H:9]"
C       -1.98961268      -0.43681979      -0.18284931
C       -0.90381064       1.18975973      -0.64573019
C       -0.62784673      -0.19003794      -0.15435413
C        0.49686119      -0.99426029      -0.78712727
C        1.55092659      -0.63486664       0.26351953
C        1.50021925       0.77678945       0.76835834
C        0.65526573      -0.15468790       1.37358695
H       -2.31600779      -1.36595497      -0.63793728
H       -2.65956408      -0.03800435       0.56916935
H       -0.91326936       1.34858491      -1.72185334
H       -1.46515818       1.91202162      -0.06163265
H        0.23675091      -2.05351645      -0.77460356
H        0.78475277      -0.68620719      -1.79653789
H        2.42994893      -1.25571519       0.39417013
H        0.57858529       1.59279101      -0.15764276
H        2.26664346       1.41528397       1.17341420
H        0.37531534      -0.42515997       2.37804986
17
Frame=13 idx=009570 GeodesicLength=1.0495894098892118 rxn_smarts="[C:1]1([H:8])([H:9])[C:2]([H:10])([H:11])[C:3]12[C:4]([H:12])([H:13])[C@@:5]1([H:14])[C:6]([H:15])([H:16])[C@@:7]21[H:17]>>[C:1](=[C:3]([C:2]([H:10])([H:11])[H:15])[C:4]([C:5]1([H:14])[C:6]([H:16])=[C:7]1[H:17])([H:12])[H:13])([H:8])[H:9]"
C       -1.99122658      -0.42690540      -0.18534349
C       -0.92507542       1.18593517      -0.65517482
C       -0.62742205      -0.18797947      -0.15943926
C        0.49886155      -0.99381352      -0.78546018
C        1.55408237      -0.63801927       0.26650264
C        1.51032186       0.77333195       0.77362922
C        0.66431663      -0.15619370       1.38084851
H       -2.31625657      -1.35588887      -0.64160536
H       -2.65595530      -0.04373794       0.57942705
H       -0.92502375       1.34517266      -1.73116034
H       -1.48421167       1.91094741      -0.07300584
H        0.23466759      -2.05198541      -0.77793243
H        0.79613494      -0.68270655      -1.79111871
H        2.42891944      -1.26503503       0.39527976
H        0.57997570       1.60424107      -0.15755122
H        2.27882133       1.40936890       1.17838451
H        0.37906993      -0.42673199       2.38371997
17
Frame=14 idx=009570 GeodesicLength=1.1303419774421828 rxn_smarts="[C:1]1([H:8])([H:9])[C:2]([H:10])([H:11])[C:3]12[C:4]([H:12])([H:13])[C@@:5]1([H:14])[C:6]([H:15])([H:16])[C@@:7]21[H:17]>>[C:1](=[C:3]([C:2]([H:10])([H:11])[H:15])[C:4]([C:5]1([H:14])[C:6]([H:16])=[C:7]1[H:17])([H:12])[H:13])([H:8])[H:9]"
C       -1.99273380      -0.41727759      -0.18737716
C       -0.94665799       1.18203161      -0.66504942
C       -0.62700977      -0.18551228      -0.16474668
C        0.50084023      -0.99302688      -0.78390944
C        1.55716448      -0.64124748       0.26953999
C        1.52067483       0.76968345       0.77916842
C        0.67338147      -0.15778224       1.38818206
H       -2.31624074      -1.34644240      -0.64424048
H       -2.65226849      -0.04922593       0.58931730
H       -0.93711322       1.34162858      -1.74081761
H       -1.50344042       1.90990064      -0.08482701
H        0.23258765      -2.05008324      -0.78167516
H        0.80753684      -0.67878322      -1.78566936
H        2.42763877      -1.27459478       0.39639036
H        0.58174218       1.61603016      -0.15734905
H        2.29132116       1.40309823       1.18371047
H        0.38257682      -0.42839661       2.38935275
17
Frame=15 idx=009570 GeodesicLength=1.2110918911904553 rxn_smarts="[C:1]1([H:8])([H:9])[C:2]([H:10])([H:11])[C:3]12[C:4]([H:12])([H:13])[C@@:5]1([H:14])[C:6]([H:15])([H:16])[C@@:7]21[H:17]>>[C:1](=[C:3]([C:2]([H:10])([H:11])[H:15])[C:4]([C:5]1([H:14])[C:6]([H:16])=[C:7]1[H:17])([H:12])[H:13])([H:8])[H:9]"
C       -1.99413531      -0.40792392      -0.18896262
C       -0.96857495       1.17802980      -0.67538661
C       -0.62660283      -0.18262119      -0.17029273
C        0.50280555      -0.99188507      -0.78248540
C        1.56017009      -0.64455075       0.27263233
C        1.53127561       0.76583261       0.78499284
C        0.68245158      -0.15946913       1.39558919
H       -2.31595904      -1.33763209      -0.64579908
H       -2.64845955      -0.05443093       0.59892406
H       -0.94955698       1.33792379      -1.75086012
H       -1.52285654       1.90887181      -0.09714029
H        0.23051952      -2.04779084      -0.78585648
H        0.81897733      -0.67441529      -1.78019158
H        2.42609846      -1.28439431       0.39749943
H        0.58389655       1.62817253      -0.15702595
H        2.30413707       1.39645447       1.18942214
H        0.38581345      -0.43017148       2.39494087
17
Frame=16 idx=009570 GeodesicLength=1.291837154776716 rxn_smarts="[C:1]1([H:8])([H:9])[C:2]([H:10])([H:11])[C:3]12[C:4]([H:12])([H:13])[C@@:5]1([H:14])[C:6]([H:15])([H:16])[C@@:7]21[H:17]>>[C:1](=[C:3]([C:2]([H:10])([H:11])[H:15])[C:4]([C:5]1([H:14])[C:6]([H:16])=[C:7]1[H:17])([H:12])[H:13])([H:8])[H:9]"
C       -1.99542948      -0.39883030      -0.19010333
C       -0.99084599       1.17390643      -0.68621907
C       -0.62619393      -0.17928938      -0.17609147
C        0.50476515      -0.99037148      -0.78119751
C        1.56309666      -0.64792844       0.27577999
C        1.54212260       0.76176759       0.79112012
C        0.69151991      -0.16127112       1.40307280
H       -2.31540888      -1.32946892      -0.64623959
H       -2.64448398      -0.05931490       0.60832148
H       -0.96237739       1.33402406      -1.76132437
H       -1.54247456       1.90784899      -0.10999165
H        0.22847123      -2.04508700      -0.79050099
H        0.83047310      -0.66957887      -1.77468587
H        2.42428987      -1.29443324       0.39860214
H        0.58645210       1.64068359      -0.15657047
H        2.31726489       1.38941802       1.19555008
H        0.38875870      -0.43207502       2.40047773
