17
Frame=0 idx=010385 GeodesicLength=0.0 rxn_smarts="[C:1]([C:2]12[C:3]([H:11])([H:12])[C:4]([H:13])([C:5]1([H:14])[H:15])[O:6][C:7]2([H:16])[H:17])([H:8])([H:9])[H:10]>>[C:1]([C@:2]1([H:15])[C:3]([H:11])([H:12])[C@:4]([C:5][H:14])([H:13])[O:6][C:7]1([H:16])[H:17])([H:8])([H:9])[H:10]"
C        1.75803305      -0.79446761      -0.07775980
C        0.40582920      -0.15900196       0.07832172
C       -0.54607073       0.03903786      -1.10329249
C       -1.62288688       0.45554244      -0.10728298
C       -1.54292370      -0.72385674       0.85564018
O       -1.03840032       1.59867902       0.52552273
C        0.30018723       1.19548428       0.77148032
H        2.35454882      -0.18954530      -0.76749012
H        1.67964686      -1.79849286      -0.49491286
H        2.29251455      -0.85068163       0.87175649
H       -0.20273992       0.80886599      -1.80457003
H       -0.77908075      -0.87821273      -1.63910346
H       -2.62522613       0.70647304      -0.44840312
H       -1.71359191      -1.62462733       0.23757554
H       -0.21152928      -0.82706763       0.93450143
H        0.99626625       1.91318407       0.32265367
H        0.49542359       1.12868702       1.84536270
17
Frame=1 idx=010385 GeodesicLength=0.06997343937045306 rxn_smarts="[C:1]([C:2]12[C:3]([H:11])([H:12])[C:4]([H:13])([C:5]1([H:14])[H:15])[O:6][C:7]2([H:16])[H:17])([H:8])([H:9])[H:10]>>[C:1]([C@:2]1([H:15])[C:3]([H:11])([H:12])[C@:4]([C:5][H:14])([H:13])[O:6][C:7]1([H:16])[H:17])([H:8])([H:9])[H:10]"
C        1.76079803      -0.78974726      -0.07984120
C        0.40469503      -0.16344389       0.08715166
C       -0.54489169       0.03335888      -1.09738206
C       -1.62453993       0.46140504      -0.10645362
C       -1.54713412      -0.72977686       0.83519835
O       -1.03893431       1.59428546       0.54008927
C        0.30272937       1.19498302       0.77326308
H        2.35214512      -0.18106747      -0.77062451
H        1.68671938      -1.79352572      -0.49858800
H        2.30107976      -0.84538008       0.86651699
H       -0.20465150       0.79692652      -1.80598487
H       -0.78018879      -0.88849344      -1.62551316
H       -2.62023451       0.72337010      -0.45857794
H       -1.73850365      -1.62583110       0.21823280
H       -0.20778701      -0.83562336       0.96183012
H        0.99168214       1.91370189       0.31487727
H        0.50701668       1.13485827       1.84580581
17
Frame=2 idx=010385 GeodesicLength=0.13992088982021142 rxn_smarts="[C:1]([C:2]12[C:3]([H:11])([H:12])[C:4]([H:13])([C:5]1([H:14])[H:15])[O:6][C:7]2([H:16])[H:17])([H:8])([H:9])[H:10]>>[C:1]([C@:2]1([H:15])[C:3]([H:11])([H:12])[C@:4]([C:5][H:14])([H:13])[O:6][C:7]1([H:16])[H:17])([H:8])([H:9])[H:10]"
C        1.76344413      -0.78512807      -0.08180441
C        0.40363991      -0.16785507       0.09592242
C       -0.54364111       0.02782874      -1.09159164
C       -1.62608724       0.46690737      -0.10551769
C       -1.55046793      -0.73591264       0.81467837
O       -1.03964177       1.58940358       0.55491776
C        0.30522630       1.19453660       0.77490406
H        2.34976276      -0.17278050      -0.77354122
H        1.69354177      -1.78862185      -0.50216521
H        2.30932000      -0.84025685       0.86146393
H       -0.20661792       0.78519737      -1.80737300
H       -0.78101885      -0.89842674      -1.61234183
H       -2.61495586       0.73984718      -0.46837105
H       -1.76380129      -1.62648505       0.19879984
H       -0.20432918      -0.84388921       0.98927863
H        0.98668538       1.91432994       0.30681769
H        0.51894090       1.14130521       1.84592335
17
Frame=3 idx=010385 GeodesicLength=0.20984476010604014 rxn_smarts="[C:1]([C:2]12[C:3]([H:11])([H:12])[C:4]([H:13])([C:5]1([H:14])[H:15])[O:6][C:7]2([H:16])[H:17])([H:8])([H:9])[H:10]>>[C:1]([C@:2]1([H:15])[C:3]([H:11])([H:12])[C@:4]([C:5][H:14])([H:13])[O:6][C:7]1([H:16])[H:17])([H:8])([H:9])[H:10]"
C        1.76599063      -0.78059982      -0.08366231
C        0.40267172      -0.17223388       0.10461645
C       -0.54231719       0.02243248      -1.08593278
C       -1.62752938       0.47204515      -0.10447383
C       -1.55297117      -0.74224730       0.79409901
O       -1.04050348       1.58402653       0.56998016
C        0.30766981       1.19412974       0.77641241
H        2.34741784      -0.16466007      -0.77624759
H        1.70014813      -1.78377013      -0.50566503
H        2.31725337      -0.83530598       0.85658927
H       -0.20864030       0.77366567      -1.80874925
H       -0.78157418      -0.90804428      -1.59958356
H       -2.60938799       0.75593007      -0.47778989
H       -1.78947456      -1.62652404       0.17935635
H       -0.20117591      -0.85188998       1.01681484
H        0.98127292       1.91505109       0.29851975
H        0.53114973       1.14799474       1.84571601
17
Frame=4 idx=010385 GeodesicLength=0.2797448578536909 rxn_smarts="[C:1]([C:2]12[C:3]([H:11])([H:12])[C:4]([H:13])([C:5]1([H:14])[H:15])[O:6][C:7]2([H:16])[H:17])([H:8])([H:9])[H:10]>>[C:1]([C@:2]1([H:15])[C:3]([H:11])([H:12])[C@:4]([C:5][H:14])([H:13])[O:6][C:7]1([H:16])[H:17])([H:8])([H:9])[H:10]"
C        1.76845365      -0.77615332      -0.08542812
C        0.40179561      -0.17657992       0.11321746
C       -0.54091921       0.01715625      -1.08041706
C       -1.62886797       0.47681600      -0.10332406
C       -1.55469385      -0.74876105       0.77347732
O       -1.04150222       1.57815142       0.58524644
C        0.31005074       1.19374691       0.77779788
H        2.34512324      -0.15668333      -0.77875114
H        1.70656787      -1.77895989      -0.50910875
H        2.32489490      -0.83052283       0.85188405
H       -0.21071909       0.76231915      -1.81012721
H       -0.78186163      -0.91737390      -1.58723476
H       -2.60352667       0.77164519      -0.48684761
H       -1.81548699      -1.62588797       0.15999157
H       -0.19834652      -0.85965364       1.04440864
H        0.97544551       1.91584803       0.29002783
H        0.54359261       1.15489289       1.84518753
17
Frame=5 idx=010385 GeodesicLength=0.3496277095995758 rxn_smarts="[C:1]([C:2]12[C:3]([H:11])([H:12])[C:4]([H:13])([C:5]1([H:14])[H:15])[O:6][C:7]2([H:16])[H:17])([H:8])([H:9])[H:10]>>[C:1]([C@:2]1([H:15])[C:3]([H:11])([H:12])[C@:4]([C:5][H:14])([H:13])[O:6][C:7]1([H:16])[H:17])([H:8])([H:9])[H:10]"
C        1.77084710      -0.77177950      -0.08711610
C        0.40101409      -0.18089461       0.12170935
C       -0.53944678       0.01198637      -1.07505657
C       -1.63010589       0.48122217      -0.10207401
C       -1.55569054      -0.75543199       0.75282646
O       -1.04261943       1.57177828       0.60068349
C        0.31235925       1.19337183       0.77907051
H        2.34288875      -0.14882737      -0.78106105
H        1.71282879      -1.77418036      -0.51251846
H        2.33225915      -0.82590171       0.84733762
H       -0.21285244       0.75114449      -1.81152110
H       -0.78188846      -0.92644141      -1.57529185
H       -2.59736812       0.78702157      -0.49555834
H       -1.84178519      -1.62452432       0.14080137
H       -0.19586181      -0.86720887       1.07203703
H        0.96920656       1.91670136       0.28138804
H        0.55621496       1.16196408       1.84434361
17
Frame=6 idx=010385 GeodesicLength=0.4194890603746594 rxn_smarts="[C:1]([C:2]12[C:3]([H:11])([H:12])[C:4]([H:13])([C:5]1([H:14])[H:15])[O:6][C:7]2([H:16])[H:17])([H:8])([H:9])[H:10]>>[C:1]([C@:2]1([H:15])[C:3]([H:11])([H:12])[C@:4]([C:5][H:14])([H:13])[O:6][C:7]1([H:16])[H:17])([H:8])([H:9])[H:10]"
C        1.77318050      -0.76747137      -0.08873917
C        0.40032627      -0.18517935       0.13007856
C       -0.53790147       0.00691214      -1.06986191
C       -1.63124759       0.48526948      -0.10072977
C       -1.55601776      -0.76223082       0.73216169
O       -1.04383750       1.56491293       0.61625612
C        0.31458622       1.19299088       0.78023971
H        2.34072062      -0.14107359      -0.78318536
H        1.71895208      -1.76942302      -0.51591366
H        2.33935680      -0.82143942       0.84293989
H       -0.21503858       0.74012997      -1.81294399
H       -0.78166958      -0.93527126      -1.56374971
H       -2.59090824       0.80208999      -0.50393633
H       -1.86828394      -1.62240011       0.12187228
H       -0.19374275      -0.87458592       1.09967537
H        0.96256257       1.91759247       0.27264469
H        0.56896235       1.16917702       1.84319162
17
Frame=7 idx=010385 GeodesicLength=0.4893274123015217 rxn_smarts="[C:1]([C:2]12[C:3]([H:11])([H:12])[C:4]([H:13])([C:5]1([H:14])[H:15])[O:6][C:7]2([H:16])[H:17])([H:8])([H:9])[H:10]>>[C:1]([C@:2]1([H:15])[C:3]([H:11])([H:12])[C@:4]([C:5][H:14])([H:13])[O:6][C:7]1([H:16])[H:17])([H:8])([H:9])[H:10]"
C        1.77545988      -0.76322312      -0.09031026
C        0.39972950      -0.18943571       0.13831121
C       -0.53628528       0.00192494      -1.06484436
C       -1.63229760       0.48896629      -0.09930064
C       -1.55573167      -0.76912842       0.71149575
O       -1.04514037       1.55756377       0.63192846
C        0.31672215       1.19259058       0.78131472
H        2.33862254      -0.13340498      -0.78513295
H        1.72495339      -1.76468018      -0.51931412
H        2.34619580      -0.81713364       0.83868144
H       -0.21727404       0.72926684      -1.81440925
H       -0.78121970      -0.94388312      -1.55260627
H       -2.58414262       0.81688029      -0.51199785
H       -1.89488239      -1.61949117       0.10329827
H       -0.19201217      -0.88181557       1.12730539
H        0.95552331       1.91850306       0.26383967
H        0.58177928       1.17650015       1.84174080
17
Frame=8 idx=010385 GeodesicLength=0.5591423031439423 rxn_smarts="[C:1]([C:2]12[C:3]([H:11])([H:12])[C:4]([H:13])([C:5]1([H:14])[H:15])[O:6][C:7]2([H:16])[H:17])([H:8])([H:9])[H:10]>>[C:1]([C@:2]1([H:15])[C:3]([H:11])([H:12])[C@:4]([C:5][H:14])([H:13])[O:6][C:7]1([H:16])[H:17])([H:8])([H:9])[H:10]"
C        1.77768924      -0.75902937      -0.09184209
C        0.39921717      -0.19366792       0.14639617
C       -0.53460124      -0.00298347      -1.06001438
C       -1.63326209       0.49232570      -0.09779816
C       -1.55489305      -0.77609136       0.69084013
O       -1.04651208       1.54974485       0.64766266
C        0.31875769       1.19215769       0.78230460
H        2.33659426      -0.12580558      -0.78691247
H        1.73084610      -1.75994498      -0.52273890
H        2.35278257      -0.81298157       0.83455040
H       -0.21955492       0.71854482      -1.81592944
H       -0.78055397      -0.95229290      -1.54186254
H       -2.57706810       0.83142504      -0.51975992
H       -1.92146382      -1.61578826       0.08517340
H       -0.19068968      -0.88892754       1.15491327
H        0.94810257       1.91941270       0.25501439
H        0.59460933       1.18390215       1.84000287
17
Frame=9 idx=010385 GeodesicLength=0.6289634023279563 rxn_smarts="[C:1]([C:2]12[C:3]([H:11])([H:12])[C:4]([H:13])([C:5]1([H:14])[H:15])[O:6][C:7]2([H:16])[H:17])([H:8])([H:9])[H:10]>>[C:1]([C@:2]1([H:15])[C:3]([H:11])([H:12])[C@:4]([C:5][H:14])([H:13])[O:6][C:7]1([H:16])[H:17])([H:8])([H:9])[H:10]"
C        1.77986180      -0.75488772      -0.09334583
C        0.39877676      -0.19787703       0.15433820
C       -0.53285995      -0.00781694      -1.05536372
C       -1.63414755       0.49537280      -0.09622904
C       -1.55357593      -0.78306881       0.67022437
O       -1.04793047       1.54149014       0.66341965
C        0.32068970       1.19168827       0.78321910
H        2.33462126      -0.11827419      -0.78854389
H        1.73662816      -1.75521449      -0.52619613
H        2.35912468      -0.80897473       0.83052712
H       -0.22188085       0.70794843      -1.81750448
H       -0.77971031      -0.96051516      -1.53149358
H       -2.56967981       0.84575637      -0.52724571
H       -1.94788944      -1.61136062       0.06747976
H       -0.18976346      -0.89593898       1.18251927
H        0.94032803       1.92030398       0.24620046
H        0.60740739       1.19136866       1.83799443
17
Frame=10 idx=010385 GeodesicLength=0.6987569776565289 rxn_smarts="[C:1]([C:2]12[C:3]([H:11])([H:12])[C:4]([H:13])([C:5]1([H:14])[H:15])[O:6][C:7]2([H:16])[H:17])([H:8])([H:9])[H:10]>>[C:1]([C@:2]1([H:15])[C:3]([H:11])([H:12])[C@:4]([C:5][H:14])([H:13])[O:6][C:7]1([H:16])[H:17])([H:8])([H:9])[H:10]"
C        1.78198255      -0.75079465      -0.09483349
C        0.39840328      -0.20206826       0.16211489
C       -0.53105928      -0.01258001      -1.05091640
C       -1.63496197       0.49811517      -0.09460957
C       -1.55182259      -0.79003452       0.64964967
O       -1.04938840       1.53280495       0.67916161
C        0.32250680       1.19116700       0.78406388
H        2.33271103      -0.11079176      -0.79002636
H        1.74231310      -1.75048289      -0.52970881
H        2.36522276      -0.80511974       0.82660990
H       -0.22424416       0.69747995      -1.81915472
H       -0.77868782      -0.96855799      -1.52152147
H       -2.56197883       0.85990301      -0.53446355
H       -1.97404323      -1.60617884       0.05037792
H       -0.18927777      -0.90288377       1.21009443
H        0.93220755       1.92115987       0.23743687
H        0.62011699       1.19886248       1.83572520
17
Frame=11 idx=010385 GeodesicLength=0.7685256988609886 rxn_smarts="[C:1]([C:2]12[C:3]([H:11])([H:12])[C:4]([H:13])([C:5]1([H:14])[H:15])[O:6][C:7]2([H:16])[H:17])([H:8])([H:9])[H:10]>>[C:1]([C@:2]1([H:15])[C:3]([H:11])([H:12])[C@:4]([C:5][H:14])([H:13])[O:6][C:7]1([H:16])[H:17])([H:8])([H:9])[H:10]"
C        1.78404643      -0.74674979      -0.09631548
C        0.39808568      -0.20624334       0.16971754
C       -0.52920404      -0.01727144      -1.04668096
C       -1.63571328       0.50057287      -0.09295392
C       -1.54968858      -0.79694992       0.62912565
O       -1.05087346       1.52371367       0.69485037
C        0.32420320       1.19058646       0.78484566
H        2.33085844      -0.10335321      -0.79136821
H        1.74789896      -1.74574794      -0.53329142
H        2.37107492      -0.80142001       0.82278882
H       -0.22664005       0.68713857      -1.82088910
H       -0.77750727      -0.97642574      -1.51194831
H       -2.55396476       0.87389419      -0.54142987
H       -1.99978082      -1.60028648       0.03394281
H       -0.18924858      -0.90978459       1.23764178
H        0.92376281       1.92196645       0.22875428
H        0.63269039       1.20636022       1.83321035
17
Frame=12 idx=010385 GeodesicLength=0.8382651629812459 rxn_smarts="[C:1]([C:2]12[C:3]([H:11])([H:12])[C:4]([H:13])([C:5]1([H:14])[H:15])[O:6][C:7]2([H:16])[H:17])([H:8])([H:9])[H:10]>>[C:1]([C@:2]1([H:15])[C:3]([H:11])([H:12])[C@:4]([C:5][H:14])([H:13])[O:6][C:7]1([H:16])[H:17])([H:8])([H:9])[H:10]"
C        1.78604782      -0.74275267      -0.09780145
C        0.39781161      -0.21040541       0.17714067
C       -0.52730033      -0.02189066      -1.04266239
C       -1.63640930       0.50276983      -0.09127601
C       -1.54722668      -0.80377310       0.60866873
O       -1.05237211       1.51424537       0.71044727
C        0.32577479       1.18994140       0.78557010
H        2.32905615      -0.09595420      -0.79257904
H        1.75338275      -1.74100809      -0.53695558
H        2.37668163      -0.79787615       0.81905303
H       -0.22906406       0.67692142      -1.82271500
H       -0.77618802      -0.98412054      -1.50277443
H       -2.54563890       0.88775887      -0.54815728
H       -2.02497267      -1.59374770       0.01822477
H       -0.18968602      -0.91665964       1.26517000
H        0.91501922       1.92270930       0.22018101
H        0.64508412       1.21384197       1.83046561
17
Frame=13 idx=010385 GeodesicLength=0.9079757270045701 rxn_smarts="[C:1]([C:2]12[C:3]([H:11])([H:12])[C:4]([H:13])([C:5]1([H:14])[H:15])[O:6][C:7]2([H:16])[H:17])([H:8])([H:9])[H:10]>>[C:1]([C@:2]1([H:15])[C:3]([H:11])([H:12])[C@:4]([C:5][H:14])([H:13])[O:6][C:7]1([H:16])[H:17])([H:8])([H:9])[H:10]"
C        1.78797985      -0.73880349      -0.09930011
C        0.39756896      -0.21455676       0.18437966
C       -0.52535371      -0.02643500      -1.03886540
C       -1.63705716       0.50473097      -0.08958974
C       -1.54448634      -0.81046419       0.58829230
O       -1.05387247       1.50442972       0.72591727
C        0.32721918       1.18922768       0.78624260
H        2.32729680      -0.08859237      -0.79366775
H        1.75875918      -1.73626250      -0.54071148
H        2.38204246      -0.79448985       0.81539304
H       -0.23151178       0.66682824      -1.82463909
H       -0.77475048      -0.99164304      -1.49399925
H       -2.53700287       0.90152363      -0.55465777
H       -2.04949809      -1.58663649       0.00326533
H       -0.19059591      -0.92352352       1.29269360
H        0.90600225       1.92337715       0.21173979
H        0.65726013       1.22128985       1.82750699
17
Frame=14 idx=010385 GeodesicLength=0.9776587812269018 rxn_smarts="[C:1]([C:2]12[C:3]([H:11])([H:12])[C:4]([H:13])([C:5]1([H:14])[H:15])[O:6][C:7]2([H:16])[H:17])([H:8])([H:9])[H:10]>>[C:1]([C@:2]1([H:15])[C:3]([H:11])([H:12])[C@:4]([C:5][H:14])([H:13])[O:6][C:7]1([H:16])[H:17])([H:8])([H:9])[H:10]"
C        1.78983604      -0.73490284      -0.10081900
C        0.39734580      -0.21869960       0.19143128
C       -0.52337013      -0.03090094      -1.03529259
C       -1.63766420       0.50647993      -0.08790588
C       -1.54151128      -0.81698705       0.56800989
O       -1.05536396       1.49429767       0.74122840
C        0.32853571       1.18844295       0.78686681
H        2.32557206      -0.08126731      -0.79464417
H        1.76402254      -1.73151219      -0.54456542
H        2.38715803      -0.79126167       0.81179917
H       -0.23398019       0.65685989      -1.82666669
H       -0.77321238      -0.99899392      -1.48562374
H       -2.52805986       0.91521096      -0.56093790
H       -2.07325136      -1.57903000      -0.01091414
H       -0.19198177      -0.93038481       1.32023533
H        0.89673876       1.92395888       0.20344942
H        0.66918618       1.22869006       1.82434921
17
Frame=15 idx=010385 GeodesicLength=1.0473135725328828 rxn_smarts="[C:1]([C:2]12[C:3]([H:11])([H:12])[C:4]([H:13])([C:5]1([H:14])[H:15])[O:6][C:7]2([H:16])[H:17])([H:8])([H:9])[H:10]>>[C:1]([C@:2]1([H:15])[C:3]([H:11])([H:12])[C@:4]([C:5][H:14])([H:13])[O:6][C:7]1([H:16])[H:17])([H:8])([H:9])[H:10]"
C        1.79161034      -0.73105121      -0.10236466
C        0.39713106      -0.22283565       0.19829407
C       -0.52135512      -0.03528413      -1.03194466
C       -1.63823688       0.50804026      -0.08623410
C       -1.53834046      -0.82330789       0.54783575
O       -1.05683611       1.48388152       0.75635033
C        0.32972557       1.18758651       0.78744606
H        2.32387379      -0.07397970      -0.79551787
H        1.76916593      -1.72675812      -0.54852236
H        2.39202931      -0.78819166       0.80826217
H       -0.23646677       0.64701750      -1.82880139
H       -0.77159084      -1.00617279      -1.47764607
H       -2.51881429       0.92883947      -0.56700275
H       -2.09614742      -1.57101328      -0.02430826
H       -0.19384028      -0.93724847       1.34782163
H        0.88725695       1.92444616       0.19532484
H        0.68083523       1.23603148       1.82100727
17
Frame=16 idx=010385 GeodesicLength=1.1169407854551625 rxn_smarts="[C:1]([C:2]12[C:3]([H:11])([H:12])[C:4]([H:13])([C:5]1([H:14])[H:15])[O:6][C:7]2([H:16])[H:17])([H:8])([H:9])[H:10]>>[C:1]([C@:2]1([H:15])[C:3]([H:11])([H:12])[C@:4]([C:5][H:14])([H:13])[O:6][C:7]1([H:16])[H:17])([H:8])([H:9])[H:10]"
C        1.79329798      -0.72724880      -0.10394298
C        0.39691569      -0.22696609       0.20496763
C       -0.51931360      -0.03958061      -1.02882056
C       -1.63878057       0.50943499      -0.08458297
C       -1.53500689      -0.82939684       0.52778464
O       -1.05827941       1.47321138       0.77125817
C        0.33079180       1.18665880       0.78798299
H        2.32219539      -0.06673038      -0.79629864
H        1.77418420      -1.72200148      -0.55258524
H        2.39665987      -0.78527863       0.80477336
H       -0.23896999       0.63730164      -1.83104582
H       -0.76990214      -1.01318033      -1.47006023
H       -2.50927079       0.94242452      -0.57285421
H       -2.11812822      -1.56267281      -0.03693257
H       -0.19616365      -0.94411446       1.37548530
H        0.87758296       1.92483287       0.18737647
H        0.69218737       1.24330623       1.81749465
