10
Frame=0 idx=002595 GeodesicLength=0.0 rxn_smarts="[C:1]([O:2][C:3](=[O:4])[N:5]([H:9])[H:10])([H:6])([H:7])[H:8]>>[C:1]([O:2][H:9])([H:6])([H:7])[H:8].[C:3](=[O:4])=[N:5][H:10]"
C        1.42366728      -0.00834890      -0.24653785
O        0.17648984       0.65995390      -0.37524133
C       -0.95164750       0.16544123       0.68735613
O       -0.74171447       0.25730573       1.84473012
N       -1.75388772      -0.21004367      -0.26207440
H        1.79379452       0.15675097       0.76561219
H        2.11882327       0.41953598      -0.96704514
H        1.31188946      -1.08152340      -0.42540358
H       -0.70418837       0.18876899      -0.99390997
H       -2.67322632      -0.54784083      -0.02748618
10
Frame=1 idx=002595 GeodesicLength=0.08376304389887565 rxn_smarts="[C:1]([O:2][C:3](=[O:4])[N:5]([H:9])[H:10])([H:6])([H:7])[H:8]>>[C:1]([O:2][H:9])([H:6])([H:7])[H:8].[C:3](=[O:4])=[N:5][H:10]"
C        1.43183722      -0.00965349      -0.24848641
O        0.18649415       0.65939057      -0.38425346
C       -0.96263514       0.17039138       0.69772161
O       -0.75733868       0.23970864       1.85741974
N       -1.76760878      -0.17992975      -0.25829548
H        1.80809833       0.17005733       0.75915824
H        2.12554203       0.40545478      -0.97787431
H        1.31959682      -1.08540148      -0.41053846
H       -0.71636082       0.20053199      -1.00209022
H       -2.66762515      -0.57054997      -0.03276125
10
Frame=2 idx=002595 GeodesicLength=0.16726578126488095 rxn_smarts="[C:1]([O:2][C:3](=[O:4])[N:5]([H:9])[H:10])([H:6])([H:7])[H:8]>>[C:1]([O:2][H:9])([H:6])([H:7])[H:8].[C:3](=[O:4])=[N:5][H:10]"
C        1.43998790      -0.01074336      -0.25056272
O        0.19603477       0.65795669      -0.39375994
C       -0.97367112       0.17468772       0.70906542
O       -0.77301368       0.22072132       1.87061091
N       -1.78101804      -0.15084022      -0.25297801
H        1.82262302       0.18487724       0.75192173
H        2.13162645       0.39104669      -0.98931812
H        1.32796535      -1.08904097      -0.39452591
H       -0.72935950       0.21135655      -1.00971273
H       -2.66117516      -0.59002166      -0.04074063
10
Frame=3 idx=002595 GeodesicLength=0.2509862331409015 rxn_smarts="[C:1]([O:2][C:3](=[O:4])[N:5]([H:9])[H:10])([H:6])([H:7])[H:8]>>[C:1]([O:2][H:9])([H:6])([H:7])[H:8].[C:3](=[O:4])=[N:5][H:10]"
C        1.44835438      -0.01153435      -0.25276511
O        0.20517076       0.65556699      -0.40392512
C       -0.98484112       0.17817899       0.72127124
O       -0.78889887       0.20013115       1.88422890
N       -1.79399613      -0.12342317      -0.24638285
H        1.83743310       0.20129607       0.74395694
H        2.13742720       0.37646670      -1.00128341
H        1.33739180      -1.09232920      -0.37738293
H       -0.74312076       0.22112300      -1.01700749
H       -2.65492035      -0.60547620      -0.05071016
10
Frame=4 idx=002595 GeodesicLength=0.33447988423305275 rxn_smarts="[C:1]([O:2][C:3](=[O:4])[N:5]([H:9])[H:10])([H:6])([H:7])[H:8]>>[C:1]([O:2][H:9])([H:6])([H:7])[H:8].[C:3](=[O:4])=[N:5][H:10]"
C        1.45683649      -0.01208977      -0.25506061
O        0.21400483       0.65232139      -0.41475923
C       -0.99605546       0.18102622       0.73422138
O       -0.80502549       0.17826112       1.89811598
N       -1.80629269      -0.09758493      -0.23876675
H        1.85232959       0.21896194       0.73530395
H        2.14294796       0.36159872      -1.01353143
H        1.34758933      -1.09514878      -0.35927178
H       -0.75759313       0.23027765      -1.02405588
H       -2.64874142      -0.61762356      -0.06219563
10
Frame=5 idx=002595 GeodesicLength=0.4179942174487178 rxn_smarts="[C:1]([O:2][C:3](=[O:4])[N:5]([H:9])[H:10])([H:6])([H:7])[H:8]>>[C:1]([O:2][H:9])([H:6])([H:7])[H:8].[C:3](=[O:4])=[N:5][H:10]"
C        1.46557446      -0.01240450      -0.25746005
O        0.22263393       0.64820476      -0.42632960
C       -1.00740625       0.18318432       0.74781678
O       -0.82159039       0.15519620       1.91212695
N       -1.81787329      -0.07369434      -0.23031537
H        1.86727049       0.23777674       0.72596316
H        2.14847978       0.34658486      -1.02587692
H        1.35877389      -1.09750342      -0.34038768
H       -0.77267096       0.23891941      -1.03097071
H       -2.64319167      -0.62626403      -0.07456656
10
Frame=6 idx=002595 GeodesicLength=0.501511198240056 rxn_smarts="[C:1]([O:2][C:3](=[O:4])[N:5]([H:9])[H:10])([H:6])([H:7])[H:8]>>[C:1]([O:2][H:9])([H:6])([H:7])[H:8].[C:3](=[O:4])=[N:5][H:10]"
C        1.47459295      -0.01250618      -0.25995468
O        0.23113859       0.64322826      -0.43867099
C       -1.01887371       0.18462521       0.76199970
O       -0.83867233       0.13103823       1.92621428
N       -1.82874495      -0.05150936      -0.22123503
H        1.88221948       0.25764122       0.71595122
H        2.15413297       0.33134432      -1.03824244
H        1.37090635      -1.09933185      -0.32076644
H       -0.78831065       0.24729692      -1.03783745
H       -2.63838868      -0.63182677      -0.08745818
10
Frame=7 idx=002595 GeodesicLength=0.5850430135959284 rxn_smarts="[C:1]([O:2][C:3](=[O:4])[N:5]([H:9])[H:10])([H:6])([H:7])[H:8]>>[C:1]([O:2][H:9])([H:6])([H:7])[H:8].[C:3](=[O:4])=[N:5][H:10]"
C        1.48392015      -0.01242150      -0.26254744
O        0.23958495       0.63738502      -0.45182882
C       -1.03046699       0.18532562       0.77672574
O       -0.85636665       0.10588439       1.94032605
N       -1.83892735      -0.03085939      -0.21165894
H        1.89712017       0.27846252       0.70525904
H        2.16002796       0.31584484      -1.05053971
H        1.38399047      -1.10060726      -0.30046711
H       -0.80446946       0.25561438      -1.04471040
H       -2.63441324      -0.63462863      -0.10055841
10
Frame=8 idx=002595 GeodesicLength=0.6684626013621463 rxn_smarts="[C:1]([O:2][C:3](=[O:4])[N:5]([H:9])[H:10])([H:6])([H:7])[H:8]>>[C:1]([O:2][H:9])([H:6])([H:7])[H:8].[C:3](=[O:4])=[N:5][H:10]"
C        1.49348093      -0.01221008      -0.26523919
O        0.24800795       0.63067753      -0.46579740
C       -1.04220651       0.18541208       0.79200293
O       -0.87470417       0.07991494       1.95442591
N       -1.84840916      -0.01156719      -0.20163470
H        1.91188093       0.30008774       0.69385480
H        2.16614226       0.29997414      -1.06267006
H        1.39784667      -1.10130807      -0.27957010
H       -0.82115107       0.26420652      -1.05157637
H       -2.63088782      -0.63518761      -0.11379582
10
Frame=9 idx=002595 GeodesicLength=0.751889932490422 rxn_smarts="[C:1]([O:2][C:3](=[O:4])[N:5]([H:9])[H:10])([H:6])([H:7])[H:8]>>[C:1]([O:2][H:9])([H:6])([H:7])[H:8].[C:3](=[O:4])=[N:5][H:10]"
C        1.50341488      -0.01183243      -0.26803946
O        0.25646452       0.62296294      -0.48070079
C       -1.05406149       0.18458913       0.80777089
O       -0.89377982       0.05303112       1.96849203
N       -1.85723714       0.00648881      -0.19129073
H        1.92649669       0.32263197       0.68171780
H        2.17270011       0.28382481      -1.07458874
H        1.41275440      -1.10137153      -0.25803889
H       -0.83827824       0.27295013      -1.05851134
H       -2.62847391      -0.63327494      -0.12681077
10
Frame=10 idx=002595 GeodesicLength=0.8352867713969961 rxn_smarts="[C:1]([O:2][C:3](=[O:4])[N:5]([H:9])[H:10])([H:6])([H:7])[H:8]>>[C:1]([O:2][H:9])([H:6])([H:7])[H:8].[C:3](=[O:4])=[N:5][H:10]"
C        1.51370095      -0.01131429      -0.27095599
O        0.26498130       0.61416486      -0.49659138
C       -1.06604643       0.18287149       0.82403961
O       -0.91362875       0.02523171       1.98251177
N       -1.86541844       0.02349590      -0.18064855
H        1.94089707       0.34609901       0.66878419
H        2.17973164       0.26729904      -1.08625352
H        1.42866756      -1.10075557      -0.23583683
H       -0.85585260       0.28204742      -1.06550436
H       -2.62703230      -0.62913957      -0.13954494
10
Frame=11 idx=002595 GeodesicLength=0.9186585254311691 rxn_smarts="[C:1]([O:2][C:3](=[O:4])[N:5]([H:9])[H:10])([H:6])([H:7])[H:8]>>[C:1]([O:2][H:9])([H:6])([H:7])[H:8].[C:3](=[O:4])=[N:5][H:10]"
C        1.52432512      -0.01068817      -0.27400372
O        0.27358251       0.60419795      -0.51353107
C       -1.07818814       0.18028208       0.84082938
O       -0.93430934      -0.00345039       1.99649062
N       -1.87295685       0.03958924      -0.16971655
H        1.95501876       0.37047204       0.65498281
H        2.18728645       0.25030447      -1.09762454
H        1.44554070      -1.09942429      -0.21293909
H       -0.87389044       0.29176596      -1.07252968
H       -2.62640876      -0.62304889      -0.15195816
10
Frame=12 idx=002595 GeodesicLength=1.0019973949855465 rxn_smarts="[C:1]([O:2][C:3](=[O:4])[N:5]([H:9])[H:10])([H:6])([H:7])[H:8]>>[C:1]([O:2][H:9])([H:6])([H:7])[H:8].[C:3](=[O:4])=[N:5][H:10]"
C        1.53530452      -0.00995916      -0.27719829
O        0.28228050       0.59288169      -0.53163172
C       -1.09048444       0.17673261       0.85814724
O       -0.95587372      -0.03311328       2.01042336
N       -1.87984430       0.05490798      -0.15850806
H        1.96876724       0.39585230       0.64022626
H        2.19544550       0.23278319      -1.10866620
H        1.46345259      -1.09730834      -0.18925943
H       -0.89238160       0.30221751      -1.07956960
H       -2.62666630      -0.61499449      -0.16396354
10
Frame=13 idx=002595 GeodesicLength=1.085349788487133 rxn_smarts="[C:1]([O:2][C:3](=[O:4])[N:5]([H:9])[H:10])([H:6])([H:7])[H:8]>>[C:1]([O:2][H:9])([H:6])([H:7])[H:8].[C:3](=[O:4])=[N:5][H:10]"
C        1.54662822      -0.00916493      -0.28056568
O        0.29108104       0.58005264      -0.55099299
C       -1.10297320       0.17224269       0.87603578
O       -0.97839630      -0.06375882       2.02434078
N       -1.88606702       0.06953385      -0.14701225
H        1.98204946       0.42226381       0.62441204
H        2.20427053       0.21462117      -1.11935243
H        1.48239604      -1.09435733      -0.16473247
H       -0.91135500       0.31375844      -1.08657517
H       -2.62763377      -0.60519151      -0.17555761
10
Frame=14 idx=002595 GeodesicLength=1.1686246797782605 rxn_smarts="[C:1]([O:2][C:3](=[O:4])[N:5]([H:9])[H:10])([H:6])([H:7])[H:8]>>[C:1]([O:2][H:9])([H:6])([H:7])[H:8].[C:3](=[O:4])=[N:5][H:10]"
C        1.55831764      -0.00824855      -0.28409481
O        0.29998431       0.56527517      -0.57178672
C       -1.11563476       0.16666217       0.89450649
O       -1.00181039      -0.09603834       2.03805920
N       -1.89162810       0.08376645      -0.13516678
H        1.99477251       0.45019483       0.60721587
H        2.21377888       0.19560516      -1.12967157
H        1.50254641      -1.09032799      -0.13885248
H       -0.93076643       0.32627709      -1.09346893
H       -2.62956006      -0.59316599      -0.18674027
10
Frame=15 idx=002595 GeodesicLength=1.2518734973914394 rxn_smarts="[C:1]([O:2][C:3](=[O:4])[N:5]([H:9])[H:10])([H:6])([H:7])[H:8]>>[C:1]([O:2][H:9])([H:6])([H:7])[H:8].[C:3](=[O:4])=[N:5][H:10]"
C        1.57039252      -0.00726581      -0.28784718
O        0.30898242       0.54819987      -0.59418386
C       -1.12846206       0.15978044       0.91356991
O       -1.02633039      -0.12973004       2.05168049
N       -1.89644974       0.09757299      -0.12297717
H        2.00670599       0.47961123       0.58855637
H        2.22414047       0.17576518      -1.13952611
H        1.52405258      -1.08516158      -0.11171842
H       -0.95061196       0.34020637      -1.10017121
H       -2.63241982      -0.57897864      -0.19738283
10
Frame=16 idx=002595 GeodesicLength=1.335140744522116 rxn_smarts="[C:1]([O:2][C:3](=[O:4])[N:5]([H:9])[H:10])([H:6])([H:7])[H:8]>>[C:1]([O:2][H:9])([H:6])([H:7])[H:8].[C:3](=[O:4])=[N:5][H:10]"
C        1.58290930      -0.00616394      -0.29183018
O        0.31803040       0.52808534      -0.61847217
C       -1.14144430       0.15134380       0.93327389
O       -1.05194050      -0.16565408       2.06505193
N       -1.90052688       0.11131070      -0.11034957
H        2.01761855       0.51115905       0.56800689
H        2.23545413       0.15485350      -1.14890471
H        1.54731180      -1.07852987      -0.08270270
H       -0.97083756       0.35547301      -1.10660671
H       -2.63657495      -0.56187752      -0.20746667
