11
Frame=0 idx=006335 GeodesicLength=0.0 rxn_smarts="[O:1]=[c:2]1[o:3][c:4]([H:8])[c:5]([H:9])[c:6]([H:10])[c:7]1[H:11]>>[O:1]=[C:2]1[O+:3]=[C:4]([H:8])[C:5]([H:9])=[C-:6][C:7]1([H:10])[H:11]"
O        2.32846544      -1.16905390       0.16774284
C        1.24775128      -0.67328254       0.11672392
O        0.14435456      -1.47657479      -0.01782348
C       -1.10054987      -0.94937815      -0.05779441
C       -1.37229843       0.35780456       0.00262657
C       -0.33140938       1.34874109       0.20911882
C        0.95386363       0.78811297       0.19121372
H       -1.84210323      -1.73312788      -0.15913466
H       -2.40788251       0.66613601      -0.05997158
H        0.54874835       1.44736210      -0.80125809
H        1.83106015       1.39326054       0.40855632
11
Frame=1 idx=006335 GeodesicLength=0.03792597566072445 rxn_smarts="[O:1]=[c:2]1[o:3][c:4]([H:8])[c:5]([H:9])[c:6]([H:10])[c:7]1[H:11]>>[O:1]=[C:2]1[O+:3]=[C:4]([H:8])[C:5]([H:9])=[C-:6][C:7]1([H:10])[H:11]"
O        2.32957954      -1.17049696       0.13292444
C        1.24857426      -0.67341466       0.10864967
O        0.14207422      -1.47905487      -0.00111509
C       -1.10120330      -0.95211388      -0.05056486
C       -1.37228858       0.35655272      -0.00451995
C       -0.33150971       1.34442004       0.20343051
C        0.95508219       0.78617137       0.18806447
H       -1.84473886      -1.73656879      -0.13019740
H       -2.40590610       0.66648633      -0.08772028
H        0.55737266       1.46898555      -0.80387169
H        1.82296368       1.38903315       0.44492019
11
Frame=2 idx=006335 GeodesicLength=0.0758469474769688 rxn_smarts="[O:1]=[c:2]1[o:3][c:4]([H:8])[c:5]([H:9])[c:6]([H:10])[c:7]1[H:11]>>[O:1]=[C:2]1[O+:3]=[C:4]([H:8])[C:5]([H:9])=[C-:6][C:7]1([H:10])[H:11]"
O        2.32996241      -1.17186366       0.09818169
C        1.24934905      -0.67344577       0.09987179
O        0.14005129      -1.48122086       0.01589802
C       -1.10172180      -0.95485413      -0.04253801
C       -1.37214458       0.35517033      -0.01156826
C       -0.33154254       1.34012081       0.19755094
C        0.95644819       0.78438155       0.18474285
H       -1.84705299      -1.73951906      -0.10127094
H       -2.40343502       0.66630113      -0.11600233
H        0.56603845       1.49127438      -0.80593721
H        1.81404755       1.38365528       0.48107146
11
Frame=3 idx=006335 GeodesicLength=0.11376216986250749 rxn_smarts="[O:1]=[c:2]1[o:3][c:4]([H:8])[c:5]([H:9])[c:6]([H:10])[c:7]1[H:11]>>[O:1]=[C:2]1[O+:3]=[C:4]([H:8])[C:5]([H:9])=[C-:6][C:7]1([H:10])[H:11]"
O        2.32964098      -1.17318152       0.06395682
C        1.25004718      -0.67337623       0.09034252
O        0.13835799      -1.48303251       0.03190469
C       -1.10209673      -0.95756708      -0.03407097
C       -1.37187349       0.35366068      -0.01870282
C       -0.33153123       1.33582572       0.19149095
C        0.95794009       0.78272949       0.18134021
H       -1.84912664      -1.74202016      -0.07107299
H       -2.40044603       0.66554530      -0.14501957
H        0.57481532       1.51434645      -0.80727827
H        1.80427255       1.37706986       0.51710943
11
Frame=4 idx=006335 GeodesicLength=0.1516589902445763 rxn_smarts="[O:1]=[c:2]1[o:3][c:4]([H:8])[c:5]([H:9])[c:6]([H:10])[c:7]1[H:11]>>[O:1]=[C:2]1[O+:3]=[C:4]([H:8])[C:5]([H:9])=[C-:6][C:7]1([H:10])[H:11]"
O        2.32868463      -1.17444698       0.03060981
C        1.25064403      -0.67321409       0.08037269
O        0.13699133      -1.48451935       0.04643817
C       -1.10236627      -0.96021257      -0.02478905
C       -1.37150578       0.35204378      -0.02565453
C       -0.33145744       1.33157183       0.18518828
C        0.95955839       0.78122091       0.17783978
H       -1.85092819      -1.74400223      -0.04016318
H       -2.39693860       0.66419469      -0.17450720
H        0.58363936       1.53800082      -0.80800557
H        1.79367854       1.36936320       0.55267080
11
Frame=5 idx=006335 GeodesicLength=0.18951353644038849 rxn_smarts="[O:1]=[c:2]1[o:3][c:4]([H:8])[c:5]([H:9])[c:6]([H:10])[c:7]1[H:11]>>[O:1]=[C:2]1[O+:3]=[C:4]([H:8])[C:5]([H:9])=[C-:6][C:7]1([H:10])[H:11]"
O        2.32717344      -1.17573660      -0.00091310
C        1.25113265      -0.67295697       0.07024814
O        0.13590756      -1.48570844       0.05976023
C       -1.10253579      -0.96270646      -0.01453617
C       -1.37107104       0.35036795      -0.03204569
C       -0.33125934       1.32742883       0.17841654
C        0.96133615       0.77988614       0.17403120
H       -1.85239750      -1.74547100      -0.01041906
H       -2.39308564       0.66225238      -0.20301138
H        0.59239199       1.56188869      -0.80855326
H        1.78240752       1.36075547       0.58702255
11
Frame=6 idx=006335 GeodesicLength=0.22732720117796446 rxn_smarts="[O:1]=[c:2]1[o:3][c:4]([H:8])[c:5]([H:9])[c:6]([H:10])[c:7]1[H:11]>>[O:1]=[C:2]1[O+:3]=[C:4]([H:8])[C:5]([H:9])=[C-:6][C:7]1([H:10])[H:11]"
O        2.32526090      -1.17704872      -0.03060930
C        1.25153197      -0.67262989       0.06004582
O        0.13507891      -1.48667721       0.07137424
C       -1.10260417      -0.96503120      -0.00393658
C       -1.37059893       0.34865023      -0.03808248
C       -0.33096080       1.32338183       0.17115002
C        0.96324938       0.77869556       0.17004906
H       -1.85359864      -1.74644526       0.01909845
H       -2.38897150       0.65975697      -0.23059609
H        0.60118112       1.58603880      -0.80880302
H        1.77043176       1.35130888       0.62030987
11
Frame=7 idx=006335 GeodesicLength=0.2650879885237335 rxn_smarts="[O:1]=[c:2]1[o:3][c:4]([H:8])[c:5]([H:9])[c:6]([H:10])[c:7]1[H:11]>>[O:1]=[C:2]1[O+:3]=[C:4]([H:8])[C:5]([H:9])=[C-:6][C:7]1([H:10])[H:11]"
O        2.32303285      -1.17846150      -0.05806796
C        1.25185185      -0.67224861       0.05011416
O        0.13444042      -1.48744379       0.08203221
C       -1.10256402      -0.96713092       0.00711772
C       -1.37011626       0.34694247      -0.04340097
C       -0.33049813       1.31948570       0.16322686
C        0.96533389       0.77766960       0.16575686
H       -1.85450441      -1.74703905       0.04654313
H       -2.38480692       0.65679745      -0.25611769
H        0.60991196       1.61011934      -0.80915541
H        1.75791876       1.34130930       0.65195110
11
Frame=8 idx=006335 GeodesicLength=0.3027400671614219 rxn_smarts="[O:1]=[c:2]1[o:3][c:4]([H:8])[c:5]([H:9])[c:6]([H:10])[c:7]1[H:11]>>[O:1]=[C:2]1[O+:3]=[C:4]([H:8])[C:5]([H:9])=[C-:6][C:7]1([H:10])[H:11]"
O        2.32056095      -1.18012741      -0.08258789
C        1.25210324      -0.67182704       0.04081645
O        0.13393167      -1.48796652       0.09272942
C       -1.10239544      -0.96892787       0.01894992
C       -1.36964042       0.34531588      -0.04747337
C       -0.32978341       1.31580883       0.15446281
C        0.96764492       0.77684085       0.16092270
H       -1.85509890      -1.74750983       0.06922014
H       -2.38089815       0.65353264      -0.27797105
H        0.61843842       1.63368210      -0.81021013
H        1.74513710       1.33117837       0.68114101
11
Frame=9 idx=006335 GeodesicLength=0.34033423187120815 rxn_smarts="[O:1]=[c:2]1[o:3][c:4]([H:8])[c:5]([H:9])[c:6]([H:10])[c:7]1[H:11]>>[O:1]=[C:2]1[O+:3]=[C:4]([H:8])[C:5]([H:9])=[C-:6][C:7]1([H:10])[H:11]"
O        2.31790882      -1.18202894      -0.10487784
C        1.25230283      -0.67139378       0.03210487
O        0.13353929      -1.48828829       0.10343281
C       -1.10212909      -0.97043645       0.03159250
C       -1.36918796       0.34378109      -0.05048594
C       -0.32884706       1.31231873       0.14497367
C        0.97016085       0.77617716       0.15574624
H       -1.85548390      -1.74799737       0.08801895
H       -2.37722174       0.65002391      -0.29702433
H        0.62685179       1.65688170      -0.81174356
H        1.73210616       1.32096224       0.70826261
11
Frame=10 idx=006335 GeodesicLength=0.37787363782027467 rxn_smarts="[O:1]=[c:2]1[o:3][c:4]([H:8])[c:5]([H:9])[c:6]([H:10])[c:7]1[H:11]>>[O:1]=[C:2]1[O+:3]=[C:4]([H:8])[C:5]([H:9])=[C-:6][C:7]1([H:10])[H:11]"
O        2.31509164      -1.18410347      -0.12558043
C        1.25244394      -0.67095418       0.02379572
O        0.13324633      -1.48843876       0.11385930
C       -1.10176840      -0.97166406       0.04496303
C       -1.36874644       0.34232413      -0.05269647
C       -0.32773831       1.30894371       0.13488184
C        0.97282614       0.77562361       0.15042689
H       -1.85570086      -1.74848747       0.10427819
H       -2.37364513       0.64626073      -0.31428724
H        0.63524767       1.67990979      -0.81342847
H        1.71874342       1.31058598       0.73378764
11
Frame=11 idx=006335 GeodesicLength=0.4153912525570552 rxn_smarts="[O:1]=[c:2]1[o:3][c:4]([H:8])[c:5]([H:9])[c:6]([H:10])[c:7]1[H:11]>>[O:1]=[C:2]1[O+:3]=[C:4]([H:8])[C:5]([H:9])=[C-:6][C:7]1([H:10])[H:11]"
O        2.31215943      -1.18626840      -0.14526963
C        1.25253758      -0.67051399       0.01563891
O        0.13304266      -1.48849144       0.12351717
C       -1.10131975      -0.97266284       0.05860738
C       -1.36831227       0.34090971      -0.05454715
C       -0.32652268       1.30560862       0.12426802
C        0.97558565       0.77512875       0.14518076
H       -1.85578799      -1.74885922       0.11990537
H       -2.37006017       0.64220668      -0.33076098
H        0.64377186       1.70305252      -0.81483885
H        1.70490567       1.29988960       0.75829899
11
Frame=12 idx=006335 GeodesicLength=0.4529041379023227 rxn_smarts="[O:1]=[c:2]1[o:3][c:4]([H:8])[c:5]([H:9])[c:6]([H:10])[c:7]1[H:11]>>[O:1]=[C:2]1[O+:3]=[C:4]([H:8])[C:5]([H:9])=[C-:6][C:7]1([H:10])[H:11]"
O        2.30915403      -1.18841246      -0.16442037
C        1.25258626      -0.67006711       0.00735248
O        0.13292375      -1.48851916       0.13180764
C       -1.10076635      -0.97349040       0.07193704
C       -1.36787141       0.33949488      -0.05647774
C       -0.32526054       1.30222584       0.11320318
C        0.97837234       0.77463152       0.14020514
H       -1.85577191      -1.74891282       0.13697780
H       -2.36630768       0.63780185      -0.34743990
H        0.65254765       1.72660433      -0.81549918
H        1.69039387       1.28864352       0.78235392
11
Frame=13 idx=006335 GeodesicLength=0.49036696017425685 rxn_smarts="[O:1]=[c:2]1[o:3][c:4]([H:8])[c:5]([H:9])[c:6]([H:10])[c:7]1[H:11]>>[O:1]=[C:2]1[O+:3]=[C:4]([H:8])[C:5]([H:9])=[C-:6][C:7]1([H:10])[H:11]"
O        2.30601264      -1.19084023      -0.18199806
C        1.25259551      -0.66966189      -0.00023847
O        0.13283769      -1.48836610       0.14074037
C       -1.10012180      -0.97399630       0.08631635
C       -1.36743178       0.33820206      -0.05741331
C       -0.32377587       1.29893840       0.10135820
C        0.98133005       0.77422664       0.13500264
H       -1.85556420      -1.74917310       0.14982112
H       -2.36289787       0.63328413      -0.36146369
H        0.66126434       1.74974676      -0.81665820
H        1.67575130       1.27763963       0.80453306
11
Frame=14 idx=006335 GeodesicLength=0.5278157264134107 rxn_smarts="[O:1]=[c:2]1[o:3][c:4]([H:8])[c:5]([H:9])[c:6]([H:10])[c:7]1[H:11]>>[O:1]=[C:2]1[O+:3]=[C:4]([H:8])[C:5]([H:9])=[C-:6][C:7]1([H:10])[H:11]"
O        2.30281072      -1.19345822      -0.19844599
C        1.25258913      -0.66930437      -0.00744037
O        0.13279490      -1.48811286       0.14958624
C       -1.09938108      -0.97426669       0.10098036
C       -1.36698224       0.33698107      -0.05789829
C       -0.32214189       1.29564343       0.08879039
C        0.98439636       0.77385090       0.12978417
H       -1.85519034      -1.74945070       0.16080128
H       -2.35973830       0.62864598      -0.37381570
H        0.67007768       1.77281922      -0.81782764
H        1.66076506       1.26665225       0.82548555
11
Frame=15 idx=006335 GeodesicLength=0.5652623313754336 rxn_smarts="[O:1]=[c:2]1[o:3][c:4]([H:8])[c:5]([H:9])[c:6]([H:10])[c:7]1[H:11]>>[O:1]=[C:2]1[O+:3]=[C:4]([H:8])[C:5]([H:9])=[C-:6][C:7]1([H:10])[H:11]"
O        2.29960133      -1.19616637      -0.21413926
C        1.25259217      -0.66899396      -0.01443324
O        0.13279771      -1.48783291       0.15777894
C       -1.09852951      -0.97436739       0.11536113
C       -1.36650271       0.33578915      -0.05835418
C       -0.32039789       1.29225834       0.07549769
C        0.98752552       0.77345562       0.12470918
H       -1.85468242      -1.74956558       0.17171547
H       -2.35674409       0.62386750      -0.38521807
H        0.67911788       1.79605482      -0.81862218
H        1.64522201       1.25550079       0.84570453
11
Frame=16 idx=006335 GeodesicLength=0.6027258648881145 rxn_smarts="[O:1]=[c:2]1[o:3][c:4]([H:8])[c:5]([H:9])[c:6]([H:10])[c:7]1[H:11]>>[O:1]=[C:2]1[O+:3]=[C:4]([H:8])[C:5]([H:9])=[C-:6][C:7]1([H:10])[H:11]"
O        2.29641034      -1.19890285      -0.22935113
C        1.25261292      -0.66872602      -0.02137040
O        0.13283826      -1.48757849       0.16503101
C       -1.09755953      -0.97432007       0.12933771
C       -1.36598972       0.33461199      -0.05892574
C       -0.31855765       1.28873971       0.06150317
C        0.99069399       0.77301762       0.11985725
H       -1.85408166      -1.74941404       0.18352512
H       -2.35379491       0.61889714      -0.39627881
H        0.68841681       1.81961732      -0.81877255
H        1.62901115       1.24405768       0.86544437
