10
Frame=0 idx=000835 GeodesicLength=0.0 rxn_smarts="[O:1]=[C:2]1[C:3]([H:7])([H:8])[N:4]=[C:5]([H:9])[N:6]1[H:10]>>[O:1]=[C:2]([C:3]([N+:4]#[C-:5])([H:7])[H:8])[N:6]([H:9])[H:10]"
O       -1.24033286       1.70051607       0.25922362
C       -0.39655748       0.82391062       0.10844030
C       -0.94142999      -0.62349547       0.01412933
N        0.17650969      -1.54903790      -0.15614314
C        1.28966222      -1.19350200      -0.20922044
N        0.92424961       0.92326223       0.01162267
H       -1.48562164      -0.88743332       0.91913780
H       -1.61577443      -0.72398258      -0.83444716
H        2.01544112      -0.33958028      -0.18794970
H        1.27385376       1.86934264       0.07520673
10
Frame=1 idx=000835 GeodesicLength=0.07401073282989154 rxn_smarts="[O:1]=[C:2]1[C:3]([H:7])([H:8])[N:4]=[C:5]([H:9])[N:6]1[H:10]>>[O:1]=[C:2]([C:3]([N+:4]#[C-:5])([H:7])[H:8])[N:6]([H:9])[H:10]"
O       -1.23697455       1.70414578       0.25459724
C       -0.40033882       0.82184573       0.10874561
C       -0.94288192      -0.62492516       0.01322330
N        0.17627143      -1.54863279      -0.14618488
C        1.29386334      -1.19587674      -0.17005618
N        0.92473405       0.91205662       0.02672216
H       -1.49548650      -0.88624226       0.91403053
H       -1.60978319      -0.72555923      -0.84132661
H        2.00790197      -0.31178795      -0.24713977
H        1.28269418       1.85497600       0.08738859
10
Frame=2 idx=000835 GeodesicLength=0.14820614040671623 rxn_smarts="[O:1]=[C:2]1[C:3]([H:7])([H:8])[N:4]=[C:5]([H:9])[N:6]1[H:10]>>[O:1]=[C:2]([C:3]([N+:4]#[C-:5])([H:7])[H:8])[N:6]([H:9])[H:10]"
O       -1.23329574       1.70758237       0.25116273
C       -0.40388083       0.82003056       0.10797250
C       -0.94367578      -0.62636293       0.01230403
N        0.17679622      -1.54767034      -0.13876315
C        1.29783191      -1.19648962      -0.13675220
N        0.92497025       0.90178831       0.03592883
H       -1.50242312      -0.88539029       0.91011215
H       -1.60495835      -0.72733372      -0.84666996
H        1.99712917      -0.28710875      -0.29454496
H        1.29150627       1.84095441       0.09925003
10
Frame=3 idx=000835 GeodesicLength=0.22244570247969797 rxn_smarts="[O:1]=[C:2]1[C:3]([H:7])([H:8])[N:4]=[C:5]([H:9])[N:6]1[H:10]>>[O:1]=[C:2]([C:3]([N+:4]#[C-:5])([H:7])[H:8])[N:6]([H:9])[H:10]"
O       -1.22949726       1.71091746       0.24858279
C       -0.40743535       0.81841592       0.10585216
C       -0.94429904      -0.62779503       0.01142211
N        0.17743299      -1.54634491      -0.13391965
C        1.30126396      -1.19613489      -0.10935617
N        0.92489198       0.89220237       0.04011109
H       -1.50687877      -0.88468805       0.90758424
H       -1.60201711      -0.72936900      -0.85032822
H        1.98641345      -0.26435002      -0.33069970
H        1.30012516       1.82714615       0.11075135
10
Frame=4 idx=000835 GeodesicLength=0.2967639116187363 rxn_smarts="[O:1]=[C:2]1[C:3]([H:7])([H:8])[N:4]=[C:5]([H:9])[N:6]1[H:10]>>[O:1]=[C:2]([C:3]([N+:4]#[C-:5])([H:7])[H:8])[N:6]([H:9])[H:10]"
O       -1.22568690       1.71431370       0.24519660
C       -0.41099419       0.81697585       0.10257072
C       -0.94472706      -0.62922789       0.01075340
N        0.17835675      -1.54487768      -0.12907394
C        1.30451739      -1.19509326      -0.08459185
N        0.92464788       0.88312593       0.04113956
H       -1.51027963      -0.88352386       0.90591787
H       -1.59961708      -0.73210193      -0.85310252
H        1.97501650      -0.24265324      -0.36410538
H        1.30876634       1.81306239       0.12529554
10
Frame=5 idx=000835 GeodesicLength=0.37113597282146726 rxn_smarts="[O:1]=[C:2]1[C:3]([H:7])([H:8])[N:4]=[C:5]([H:9])[N:6]1[H:10]>>[O:1]=[C:2]([C:3]([N+:4]#[C-:5])([H:7])[H:8])[N:6]([H:9])[H:10]"
O       -1.22179619       1.71768717       0.24193843
C       -0.41452441       0.81560810       0.09897000
C       -0.94505081      -0.63064673       0.01012057
N        0.17940136      -1.54328185      -0.12470069
C        1.30756317      -1.19363481      -0.06179171
N        0.92434969       0.87431635       0.04106948
H       -1.51303831      -0.88236455       0.90460764
H       -1.59759189      -0.73493381      -0.85545359
H        1.96348215      -0.22166299      -0.39439451
H        1.31720524       1.79891311       0.13963438
10
Frame=6 idx=000835 GeodesicLength=0.44553545807773737 rxn_smarts="[O:1]=[C:2]1[C:3]([H:7])([H:8])[N:4]=[C:5]([H:9])[N:6]1[H:10]>>[O:1]=[C:2]([C:3]([N+:4]#[C-:5])([H:7])[H:8])[N:6]([H:9])[H:10]"
O       -1.21783231       1.72106034       0.23857606
C       -0.41802137       0.81430182       0.09510368
C       -0.94527223      -0.63204976       0.00953999
N        0.18057568      -1.54158859      -0.12046958
C        1.31047047      -1.19183460      -0.04030018
N        0.92402677       0.86572432       0.04027937
H       -1.51538076      -0.88113542       0.90355097
H       -1.59573673      -0.73790608      -0.85751744
H        1.95168845      -0.20116049      -0.42297177
H        1.32548204       1.78458844       0.15420890
10
Frame=7 idx=000835 GeodesicLength=0.5199663868228916 rxn_smarts="[O:1]=[C:2]1[C:3]([H:7])([H:8])[N:4]=[C:5]([H:9])[N:6]1[H:10]>>[O:1]=[C:2]([C:3]([N+:4]#[C-:5])([H:7])[H:8])[N:6]([H:9])[H:10]"
O       -1.21379682       1.72446146       0.23483330
C       -0.42148265       0.81305362       0.09092497
C       -0.94539499      -0.63343705       0.00903936
N        0.18186982      -1.53981620      -0.11625781
C        1.31328141      -1.18974955      -0.01987916
N        0.92370211       0.85730765       0.03904702
H       -1.51736108      -0.87976232       0.90276493
H       -1.59400928      -0.74107653      -0.85929525
H        1.93957329      -0.18096013      -0.45055909
H        1.33361820       1.76997907       0.16938173
10
Frame=8 idx=000835 GeodesicLength=0.5944110414411178 rxn_smarts="[O:1]=[C:2]1[C:3]([H:7])([H:8])[N:4]=[C:5]([H:9])[N:6]1[H:10]>>[O:1]=[C:2]([C:3]([N+:4]#[C-:5])([H:7])[H:8])[N:6]([H:9])[H:10]"
O       -1.20963519       1.72779727       0.23159371
C       -0.42487107       0.81179824       0.08704557
C       -0.94544360      -0.63480786       0.00847009
N        0.18324782      -1.53797267      -0.11227348
C        1.31595751      -1.18750899       0.00014050
N        0.92341566       0.84897622       0.03792877
H       -1.51928023      -0.87858649       0.90183174
H       -1.59219253      -0.74404687      -0.86116658
H        1.92726112      -0.16103523      -0.47683220
H        1.34154049       1.75538638       0.18326189
10
Frame=9 idx=000835 GeodesicLength=0.6688738706192384 rxn_smarts="[O:1]=[C:2]1[C:3]([H:7])([H:8])[N:4]=[C:5]([H:9])[N:6]1[H:10]>>[O:1]=[C:2]([C:3]([N+:4]#[C-:5])([H:7])[H:8])[N:6]([H:9])[H:10]"
O       -1.20535347       1.73109456       0.22859922
C       -0.42818912       0.81054048       0.08337312
C       -0.94541557      -0.63616802       0.00786736
N        0.18471327      -1.53607464      -0.10839630
C        1.31851416      -1.18513656       0.01985234
N        0.92317047       0.84071767       0.03687649
H       -1.52114191      -0.87752960       0.90080693
H       -1.59027842      -0.74690691      -0.86309081
H        1.91467814      -0.14128153      -0.50227437
H        1.34930244       1.74074454       0.19638603
10
Frame=10 idx=000835 GeodesicLength=0.7433592507489 rxn_smarts="[O:1]=[C:2]1[C:3]([H:7])([H:8])[N:4]=[C:5]([H:9])[N:6]1[H:10]>>[O:1]=[C:2]([C:3]([N+:4]#[C-:5])([H:7])[H:8])[N:6]([H:9])[H:10]"
O       -1.20094716       1.73435773       0.22581740
C       -0.43143522       0.80927688       0.07992097
C       -0.94531045      -0.63752152       0.00723331
N        0.18626997      -1.53413004      -0.10456561
C        1.32095411      -1.18265104       0.03942081
N        0.92296919       0.83252148       0.03585212
H       -1.52298589      -0.87658403       0.89967042
H       -1.58822551      -0.74966851      -0.86509516
H        1.90177231      -0.12163497      -0.52715356
H        1.35693866       1.72603402       0.20889929
10
Frame=11 idx=000835 GeodesicLength=0.8178708324771105 rxn_smarts="[O:1]=[C:2]1[C:3]([H:7])([H:8])[N:4]=[C:5]([H:9])[N:6]1[H:10]>>[O:1]=[C:2]([C:3]([N+:4]#[C-:5])([H:7])[H:8])[N:6]([H:9])[H:10]"
O       -1.19640005       1.73757775       0.22333620
C       -0.43459400       0.80799157       0.07682738
C       -0.94512580      -0.63887520       0.00655331
N        0.18791977      -1.53215920      -0.10069248
C        1.32327878      -1.18008463       0.05900561
N        0.92283175       0.82435400       0.03497730
H       -1.52492141      -0.87579611       0.89832584
H       -1.58592423      -0.75228012      -0.86728158
H        1.88845735      -0.10204110      -0.55164782
H        1.36447783       1.71131304       0.22059622
10
Frame=12 idx=000835 GeodesicLength=0.892412572527706 rxn_smarts="[O:1]=[C:2]1[C:3]([H:7])([H:8])[N:4]=[C:5]([H:9])[N:6]1[H:10]>>[O:1]=[C:2]([C:3]([N+:4]#[C-:5])([H:7])[H:8])[N:6]([H:9])[H:10]"
O       -1.19173639       1.74078672       0.22085480
C       -0.43769932       0.80671383       0.07376805
C       -0.94486605      -0.64022505       0.00586365
N        0.18966770      -1.53012153      -0.09695032
C        1.32546445      -1.17741454       0.07863829
N        0.92272081       0.81625324       0.03386993
H       -1.52672947      -0.87504583       0.89698209
H       -1.58358990      -0.75488830      -0.86943438
H        1.87482598      -0.08243025      -0.57586947
H        1.37194218       1.69637172       0.23227735
10
Frame=13 idx=000835 GeodesicLength=0.9669769752615731 rxn_smarts="[O:1]=[C:2]1[C:3]([H:7])([H:8])[N:4]=[C:5]([H:9])[N:6]1[H:10]>>[O:1]=[C:2]([C:3]([N+:4]#[C-:5])([H:7])[H:8])[N:6]([H:9])[H:10]"
O       -1.18691118       1.74392854       0.21888353
C       -0.44070693       0.80539642       0.07120753
C       -0.94452791      -0.64158369       0.00509075
N        0.19151270      -1.52806775      -0.09314374
C        1.32749659      -1.17470528       0.09860631
N        0.92268669       0.80814197       0.03291567
H       -1.52873342      -0.87452636       0.89530723
H       -1.58090984      -0.75727241      -0.87188650
H        1.86073891      -0.06280071      -0.59982816
H        1.37935438       1.68148927       0.24284738
10
Frame=14 idx=000835 GeodesicLength=1.0415588116644894 rxn_smarts="[O:1]=[C:2]1[C:3]([H:7])([H:8])[N:4]=[C:5]([H:9])[N:6]1[H:10]>>[O:1]=[C:2]([C:3]([N+:4]#[C-:5])([H:7])[H:8])[N:6]([H:9])[H:10]"
O       -1.18192463       1.74699871       0.21741564
C       -0.44362403       0.80404173       0.06906919
C       -0.94411902      -0.64295442       0.00422750
N        0.19344940      -1.52598614      -0.08939801
C        1.32932603      -1.17197609       0.11901639
N        0.92272418       0.80001007       0.03201363
H       -1.53086429      -0.87423694       0.89334439
H       -1.57796691      -0.75944790      -0.87458631
H        1.84627009      -0.04310641      -0.62348138
H        1.38672918       1.66665739       0.25237896
10
Frame=15 idx=000835 GeodesicLength=1.1161516378968086 rxn_smarts="[O:1]=[C:2]1[C:3]([H:7])([H:8])[N:4]=[C:5]([H:9])[N:6]1[H:10]>>[O:1]=[C:2]([C:3]([N+:4]#[C-:5])([H:7])[H:8])[N:6]([H:9])[H:10]"
O       -1.17676720       1.74998767       0.21650388
C       -0.44644487       0.80264364       0.06737783
C       -0.94363820      -0.64434210       0.00326260
N        0.19548199      -1.52388117      -0.08570565
C        1.33091811      -1.16924207       0.13998135
N        0.92284142       0.79183629       0.03114801
H       -1.53314451      -0.87419468       0.89106170
H       -1.57473547      -0.76140154      -0.87756226
H        1.83139889      -0.02330699      -0.64688592
H        1.39408983       1.65190096       0.26081847
10
Frame=16 idx=000835 GeodesicLength=1.1907515457305515 rxn_smarts="[O:1]=[C:2]1[C:3]([H:7])([H:8])[N:4]=[C:5]([H:9])[N:6]1[H:10]>>[O:1]=[C:2]([C:3]([N+:4]#[C-:5])([H:7])[H:8])[N:6]([H:9])[H:10]"
O       -1.17142904       1.75288946       0.21617092
C       -0.44916323       0.80119807       0.06614046
C       -0.94308202      -0.64575139       0.00218990
N        0.19761847      -1.52175582      -0.08204583
C        1.33223900      -1.16650970       0.16159770
N        0.92304705       0.78360262       0.03028382
H       -1.53558886      -0.87440455       0.88843870
H       -1.57119164      -0.76313344      -0.88083265
H        1.81608940      -0.00335646      -0.67012547
H        1.40146087       1.63722121       0.26818246
