9
Frame=0 idx=002671 GeodesicLength=0.0 rxn_smarts="[C:1](#[C:2][C:3]([C:4]#[C:5][H:9])([H:7])[H:8])[H:6]>>[C:1](=[C:2]=[C:3]([C:4]#[C:5][H:9])[H:8])([H:6])[H:7]"
C        2.07372253      -0.56502412       0.44262786
C        1.16062412       0.16927988      -0.06878923
C       -0.09931434       0.65374750      -0.41438214
C       -1.29453100      -0.03579194      -0.10287063
C       -2.31189568      -0.61970969       0.15502999
H        2.71377023      -1.31161491      -0.00622815
H        1.14470786       1.21182621       0.46818316
H       -0.17579478       1.64016512      -0.85279168
H       -3.21128892      -1.14287803       0.37922081
9
Frame=1 idx=002671 GeodesicLength=0.09028572272124849 rxn_smarts="[C:1](#[C:2][C:3]([C:4]#[C:5][H:9])([H:7])[H:8])[H:6]>>[C:1](=[C:2]=[C:3]([C:4]#[C:5][H:9])[H:8])([H:6])[H:7]"
C        2.06230850      -0.56014824       0.43544766
C        1.16375197       0.15844678      -0.11851110
C       -0.10267771       0.66377730      -0.40192223
C       -1.29638153      -0.03232085      -0.09373807
C       -2.30877093      -0.62819692       0.15483762
H        2.72334475      -1.30709934       0.01964180
H        1.15680674       1.19996340       0.47933695
H       -0.18274837       1.64505815      -0.85146013
H       -3.21563342      -1.13948028       0.37636748
9
Frame=2 idx=002671 GeodesicLength=0.1806192537689199 rxn_smarts="[C:1](#[C:2][C:3]([C:4]#[C:5][H:9])([H:7])[H:8])[H:6]>>[C:1](=[C:2]=[C:3]([C:4]#[C:5][H:9])[H:8])([H:6])[H:7]"
C        2.05174030      -0.55578631       0.42768195
C        1.16390225       0.14527132      -0.16168178
C       -0.10489073       0.67175865      -0.38818257
C       -1.29929659      -0.02723301      -0.08296240
C       -2.30950681      -0.63138786       0.15295560
H        2.73525884      -1.29740388       0.04071601
H        1.16860890       1.18750449       0.49220279
H       -0.18665748       1.64540864      -0.85435830
H       -3.21915871      -1.13813205       0.37362869
9
Frame=3 idx=002671 GeodesicLength=0.2710033966557084 rxn_smarts="[C:1](#[C:2][C:3]([C:4]#[C:5][H:9])([H:7])[H:8])[H:6]>>[C:1](=[C:2]=[C:3]([C:4]#[C:5][H:9])[H:8])([H:6])[H:7]"
C        2.04330600      -0.55145452       0.41915669
C        1.16208000       0.12952671      -0.20000035
C       -0.10626539       0.67621204      -0.37348305
C       -1.30218170      -0.02434553      -0.07078878
C       -2.31203318      -0.63387474       0.15133080
H        2.75385087      -1.27993862       0.05701485
H        1.17924348       1.17365014       0.50729459
H       -0.18982549       1.64031385      -0.85951891
H       -3.22817458      -1.13008933       0.36899415
9
Frame=4 idx=002671 GeodesicLength=0.36145186659733225 rxn_smarts="[C:1](#[C:2][C:3]([C:4]#[C:5][H:9])([H:7])[H:8])[H:6]>>[C:1](=[C:2]=[C:3]([C:4]#[C:5][H:9])[H:8])([H:6])[H:7]"
C        2.03496638      -0.54742285       0.41011203
C        1.15832864       0.11242749      -0.23498186
C       -0.10648464       0.67991428      -0.35957279
C       -1.30537440      -0.02026166      -0.06056063
C       -2.31690661      -0.63150972       0.14690255
H        2.77145334      -1.26026637       0.07135743
H        1.18835666       1.15882349       0.52507509
H       -0.19077585       1.63364000      -0.86633057
H       -3.23356352      -1.12534466       0.36799875
9
Frame=5 idx=002671 GeodesicLength=0.4518939002202197 rxn_smarts="[C:1](#[C:2][C:3]([C:4]#[C:5][H:9])([H:7])[H:8])[H:6]>>[C:1](=[C:2]=[C:3]([C:4]#[C:5][H:9])[H:8])([H:6])[H:7]"
C        2.02933074      -0.54218220       0.40013731
C        1.15360067       0.09363173      -0.26734663
C       -0.10595772       0.68102623      -0.34565306
C       -1.30801087      -0.01800193      -0.04830841
C       -2.32221911      -0.62880812       0.14551895
H        2.79208585      -1.23648546       0.08289692
H        1.19654732       1.14357230       0.54420363
H       -0.19198045       1.62317888      -0.87417924
H       -3.24339642      -1.11593144       0.36273052
9
Frame=6 idx=002671 GeodesicLength=0.5423878230589526 rxn_smarts="[C:1](#[C:2][C:3]([C:4]#[C:5][H:9])([H:7])[H:8])[H:6]>>[C:1](=[C:2]=[C:3]([C:4]#[C:5][H:9])[H:8])([H:6])[H:7]"
C        2.02443578      -0.53665398       0.38965962
C        1.14762529       0.07338381      -0.29770673
C       -0.10449196       0.68108306      -0.33279887
C       -1.31066026      -0.01530721      -0.03687123
C       -2.32883478      -0.62332208       0.14302135
H        2.81270138      -1.21067927       0.09296236
H        1.20323910       1.12747363       0.56556371
H       -0.19207946       1.61137727      -0.88282259
H       -3.25193509      -1.10735523       0.35899237
9
Frame=7 idx=002671 GeodesicLength=0.6328058339796498 rxn_smarts="[C:1](#[C:2][C:3]([C:4]#[C:5][H:9])([H:7])[H:8])[H:6]>>[C:1](=[C:2]=[C:3]([C:4]#[C:5][H:9])[H:8])([H:6])[H:7]"
C        2.02144673      -0.53071046       0.37851558
C        1.14052743       0.05056572      -0.32619023
C       -0.10238054       0.67881516      -0.32035998
C       -1.31314982      -0.01351710      -0.02349792
C       -2.33651059      -0.61672189       0.14193004
H        2.83667306      -1.17979463       0.10074376
H        1.20910260       1.11018362       0.58839320
H       -0.19204314       1.59644420      -0.89208749
H       -3.26366574      -1.09526462       0.35255304
9
Frame=8 idx=002671 GeodesicLength=0.7234401765993156 rxn_smarts="[C:1](#[C:2][C:3]([C:4]#[C:5][H:9])([H:7])[H:8])[H:6]>>[C:1](=[C:2]=[C:3]([C:4]#[C:5][H:9])[H:8])([H:6])[H:7]"
C        2.01844737      -0.52434811       0.36691590
C        1.13220722       0.02603322      -0.35338077
C       -0.09929989       0.67597216      -0.30962404
C       -1.31573015      -0.01044006      -0.01242073
C       -2.34547014      -0.60583243       0.13897072
H        2.85886230      -1.14778948       0.10772576
H        1.21265030       1.09165478       0.61399928
H       -0.19011703       1.58121947      -0.90174387
H       -3.27154999      -1.08646955       0.34955774
9
Frame=9 idx=002671 GeodesicLength=0.813956862430999 rxn_smarts="[C:1](#[C:2][C:3]([C:4]#[C:5][H:9])([H:7])[H:8])[H:6]>>[C:1](=[C:2]=[C:3]([C:4]#[C:5][H:9])[H:8])([H:6])[H:7]"
C        2.01863943      -0.51539013       0.35427890
C        1.12347932      -0.00065304      -0.37903680
C       -0.09550012       0.67039108      -0.29937138
C       -1.31741925      -0.01005914      -0.00034074
C       -2.35392084      -0.59615476       0.13899169
H        2.88296709      -1.11184743       0.11223118
H        1.21459939       1.07230807       0.64178512
H       -0.18843903       1.56272279      -0.91146117
H       -3.28440599      -1.07131745       0.34292320
9
Frame=10 idx=002671 GeodesicLength=0.9046015762847419 rxn_smarts="[C:1](#[C:2][C:3]([C:4]#[C:5][H:9])([H:7])[H:8])[H:6]>>[C:1](=[C:2]=[C:3]([C:4]#[C:5][H:9])[H:8])([H:6])[H:7]"
C        2.02094383      -0.50488465       0.34083469
C        1.11404351      -0.03041558      -0.40316682
C       -0.09093971       0.66225095      -0.29000906
C       -1.31885644      -0.01144469       0.01082773
C       -2.36312305      -0.58592526       0.13857752
H        2.90933394      -1.07051247       0.11435936
H        1.21419014       1.05068538       0.67299583
H       -0.18594625       1.54167610      -0.92127257
H       -3.29964597      -1.05142980       0.33685333
9
Frame=11 idx=002671 GeodesicLength=0.9952508279768567 rxn_smarts="[C:1](#[C:2][C:3]([C:4]#[C:5][H:9])([H:7])[H:8])[H:6]>>[C:1](=[C:2]=[C:3]([C:4]#[C:5][H:9])[H:8])([H:6])[H:7]"
C        2.02350800      -0.49261429       0.32687826
C        1.10333880      -0.06260394      -0.42590662
C       -0.08529344       0.65402104      -0.28248581
C       -1.32091309      -0.01048620       0.01864624
C       -2.37431125      -0.57019175       0.13492388
H        2.93289853      -1.02920506       0.11552305
H        1.21081367       1.02719272       0.70811173
H       -0.18045727       1.52099645      -0.93197282
H       -3.30958395      -1.03710897       0.33628208
9
Frame=12 idx=002671 GeodesicLength=1.0858319245173498 rxn_smarts="[C:1](#[C:2][C:3]([C:4]#[C:5][H:9])([H:7])[H:8])[H:6]>>[C:1](=[C:2]=[C:3]([C:4]#[C:5][H:9])[H:8])([H:6])[H:7]"
C        2.02667696      -0.47882325       0.31223035
C        1.09053528      -0.09950779      -0.44654341
C       -0.07863803       0.64494146      -0.27627694
C       -1.32427398      -0.00606937       0.02577558
C       -2.38891877      -0.54627071       0.13164097
H        2.95613261      -0.98501375       0.11463294
H        1.20526963       1.00117050       0.74636632
H       -0.17156615       1.49891594      -0.94416666
H       -3.31521755      -1.02934304       0.33634085
9
Frame=13 idx=002671 GeodesicLength=1.176384098578209 rxn_smarts="[C:1](#[C:2][C:3]([C:4]#[C:5][H:9])([H:7])[H:8])[H:6]>>[C:1](=[C:2]=[C:3]([C:4]#[C:5][H:9])[H:8])([H:6])[H:7]"
C        2.03241366      -0.46055001       0.29594074
C        1.07615828      -0.14184850      -0.46390811
C       -0.07093503       0.63292716      -0.27039676
C       -1.32737788      -0.00221783       0.03233962
C       -2.40360882      -0.51989642       0.13018098
H        2.98013814      -0.93501508       0.10939535
H        1.19594145       0.97184735       0.78949017
H       -0.16038206       1.47268058      -0.95766022
H       -3.32234774      -1.01792726       0.33461823
9
Frame=14 idx=002671 GeodesicLength=1.2669826825316295 rxn_smarts="[C:1](#[C:2][C:3]([C:4]#[C:5][H:9])([H:7])[H:8])[H:6]>>[C:1](=[C:2]=[C:3]([C:4]#[C:5][H:9])[H:8])([H:6])[H:7]"
C        2.04074760      -0.43734695       0.27744608
C        1.05857127      -0.19310808      -0.47566225
C       -0.06208808       0.61782135      -0.26410528
C       -1.33138874       0.00470435       0.04294226
C       -2.42037953      -0.48550970       0.13854489
H        3.00561968      -0.87777721       0.09780935
H        1.18471084       0.93968488       0.83627504
H       -0.14623672       1.43976553      -0.97443514
H       -3.32955632      -1.00823417       0.32118506
9
Frame=15 idx=002671 GeodesicLength=1.3588955834840792 rxn_smarts="[C:1](#[C:2][C:3]([C:4]#[C:5][H:9])([H:7])[H:8])[H:6]>>[C:1](=[C:2]=[C:3]([C:4]#[C:5][H:9])[H:8])([H:6])[H:7]"
C        2.05320009      -0.40853063       0.25631533
C        1.03909701      -0.25558301      -0.47968169
C       -0.05191032       0.59762243      -0.25746393
C       -1.33753010       0.01279275       0.05374302
C       -2.44110102      -0.44511371       0.14961225
H        3.03715247      -0.80639438       0.07686307
H        1.16987229       0.90054841       0.89172055
H       -0.12798785       1.39816438      -0.99442878
H       -3.34079257      -0.99350624       0.30332017
9
Frame=16 idx=002671 GeodesicLength=1.4490131607190697 rxn_smarts="[C:1](#[C:2][C:3]([C:4]#[C:5][H:9])([H:7])[H:8])[H:6]>>[C:1](=[C:2]=[C:3]([C:4]#[C:5][H:9])[H:8])([H:6])[H:7]"
C        2.06361384      -0.36792285       0.23046681
C        1.02203521      -0.32045802      -0.47917660
C       -0.03831886       0.57199973      -0.25199961
C       -1.33918476       0.01186988       0.05157869
C       -2.45341493      -0.41912866       0.13912447
H        3.06200080      -0.72410758       0.05215507
H        1.14435478       0.84879195       0.95770787
H       -0.10373328       1.35381656      -1.01049266
H       -3.35735280      -0.95486099       0.31063596
