17
Frame=0 idx=009561 GeodesicLength=0.0 rxn_smarts="[C:1]1([H:8])([H:9])[C:2]([H:10])([H:11])[C:3]12[C:4]([H:12])([H:13])[C@@:5]1([H:14])[C:6]([H:15])([H:16])[C@@:7]21[H:17]>>[C:1]1([H:8])([H:9])[C@:3]23[C:2]([H:10])([H:11])[C:6]([H:15])([H:16])[C@:5]([H:14])([C:4]2([H:12])[H:13])[C@:7]13[H:17]"
C       -2.02802050      -0.76178012      -0.03514741
C       -0.57709695       1.21105592      -0.33702558
C       -0.69684091      -0.23525709      -0.06316689
C        0.43083200      -0.97014708      -0.84548423
C        1.40054575      -0.55988271       0.26387128
C        1.27460699       0.96609324       0.35183062
C        0.27081863      -0.25579376       1.13361664
H       -2.32698894      -1.57312948      -0.68418792
H       -2.78916095      -0.26138346       0.55009979
H       -0.58682244       1.58474857      -1.36385184
H       -1.04891511       1.87111926       0.38504512
H        0.24271342      -2.04368655      -0.82024412
H        0.64168271      -0.63934229      -1.86456031
H        2.33598264      -1.05368264       0.50195002
H        1.54277668       1.47026604      -0.57733080
H        1.76205325       1.44754382       1.19496985
H        0.15183376      -0.19674170       2.20961584
17
Frame=1 idx=009561 GeodesicLength=0.08149798959419925 rxn_smarts="[C:1]1([H:8])([H:9])[C:2]([H:10])([H:11])[C:3]12[C:4]([H:12])([H:13])[C@@:5]1([H:14])[C:6]([H:15])([H:16])[C@@:7]21[H:17]>>[C:1]1([H:8])([H:9])[C@:3]23[C:2]([H:10])([H:11])[C:6]([H:15])([H:16])[C@:5]([H:14])([C:4]2([H:12])[H:13])[C@:7]13[H:17]"
C       -2.01627552      -0.74805589      -0.01533285
C       -0.59038226       1.21330148      -0.35096744
C       -0.68507341      -0.23525559      -0.09549097
C        0.44533221      -0.97259964      -0.86124404
C        1.39719841      -0.56414042       0.26403696
C        1.27025393       0.96119154       0.35634579
C        0.25224675      -0.26866201       1.12314394
H       -2.32771724      -1.56679345      -0.64967814
H       -2.76070325      -0.25900261       0.59970922
H       -0.59753902       1.58819885      -1.37699431
H       -1.05968465       1.87352854       0.37217523
H        0.24766534      -2.04452645      -0.84330786
H        0.67041586      -0.63271297      -1.87422818
H        2.32872484      -1.05911800       0.51520483
H        1.55436010       1.46898729      -0.56603389
H        1.74993018       1.43822585       1.20651732
H        0.12124774      -0.19256651       2.19614441
17
Frame=2 idx=009561 GeodesicLength=0.1630160138654767 rxn_smarts="[C:1]1([H:8])([H:9])[C:2]([H:10])([H:11])[C:3]12[C:4]([H:12])([H:13])[C@@:5]1([H:14])[C:6]([H:15])([H:16])[C@@:7]21[H:17]>>[C:1]1([H:8])([H:9])[C@:3]23[C:2]([H:10])([H:11])[C:6]([H:15])([H:16])[C@:5]([H:14])([C:4]2([H:12])[H:13])[C@:7]13[H:17]"
C       -2.00372234      -0.73407395       0.00385496
C       -0.60423769       1.21492514      -0.36430319
C       -0.67371039      -0.23538894      -0.12600567
C        0.45921564      -0.97501216      -0.87611131
C        1.39371581      -0.56842337       0.26419709
C        1.26581117       0.95626110       0.36065659
C        0.23413989      -0.28141167       1.11298490
H       -2.32727387      -1.55943801      -0.61645011
H       -2.73168837      -0.25611635       0.64628298
H       -0.60950124       1.59088623      -1.38958736
H       -1.07032453       1.87594019       0.35981403
H        0.25237476      -2.04527490      -0.86566745
H        0.69820574      -0.62632823      -1.88288699
H        2.32126518      -1.06462893       0.52788266
H        1.56539930       1.46743694      -0.55488774
H        1.73804035       1.42903056       1.21745108
H        0.09229058      -0.18838364       2.18277553
17
Frame=3 idx=009561 GeodesicLength=0.24457344992732194 rxn_smarts="[C:1]1([H:8])([H:9])[C:2]([H:10])([H:11])[C:3]12[C:4]([H:12])([H:13])[C@@:5]1([H:14])[C:6]([H:15])([H:16])[C@@:7]21[H:17]>>[C:1]1([H:8])([H:9])[C@:3]23[C:2]([H:10])([H:11])[C:6]([H:15])([H:16])[C@:5]([H:14])([C:4]2([H:12])[H:13])[C@:7]13[H:17]"
C       -1.99048783      -0.71993348       0.02235879
C       -0.61861514       1.21595981      -0.37701919
C       -0.66272447      -0.23562726      -0.15468956
C        0.47247718      -0.97737418      -0.89008201
C        1.39015349      -0.57271029       0.26435624
C        1.26135602       0.95132849       0.36476548
C        0.21657366      -0.29400926       1.10321230
H       -2.32576874      -1.55108997      -0.58467703
H       -2.70246129      -0.25284274       0.68985650
H       -0.62267124       1.59278917      -1.40163496
H       -1.08081452       1.87836586       0.34795793
H        0.25684262      -2.04592477      -0.88728620
H        0.72498837      -0.62018202      -1.89055475
H        2.31368637      -1.07019187       0.53997095
H        1.57598230       1.46562392      -0.54391850
H        1.72649200       1.41998832       1.22777347
H        0.06499121      -0.18416974       2.16961055
17
Frame=4 idx=009561 GeodesicLength=0.3261748532100408 rxn_smarts="[C:1]1([H:8])([H:9])[C:2]([H:10])([H:11])[C:3]12[C:4]([H:12])([H:13])[C@@:5]1([H:14])[C:6]([H:15])([H:16])[C@@:7]21[H:17]>>[C:1]1([H:8])([H:9])[C@:3]23[C:2]([H:10])([H:11])[C:6]([H:15])([H:16])[C@:5]([H:14])([C:4]2([H:12])[H:13])[C@:7]13[H:17]"
C       -1.97669053      -0.70571697       0.04014450
C       -0.63346523       1.21644708      -0.38912188
C       -0.65208966      -0.23593437      -0.18156419
C        0.48512462      -0.97967183      -0.90317584
C        1.38655528      -0.57698468       0.26451919
C        1.25695304       0.94641429       0.36868206
C        0.19959279      -0.30642949       1.09387611
H       -2.32330596      -1.54181689      -0.55445032
H       -2.67329648      -0.24928253       0.73052986
H       -0.63699532       1.59390325      -1.41316166
H       -1.09114320       1.88081784       0.33658712
H        0.26106897      -2.04646223      -0.90815728
H        0.75073515      -0.61425788      -1.89727084
H        2.30605358      -1.07579195       0.55147088
H        1.58620485       1.46355860      -0.53313433
H        1.71536598       1.41111598       1.23750514
H        0.03933213      -0.17990825       2.15672150
17
Frame=5 idx=009561 GeodesicLength=0.4078228465559052 rxn_smarts="[C:1]1([H:8])([H:9])[C:2]([H:10])([H:11])[C:3]12[C:4]([H:12])([H:13])[C@@:5]1([H:14])[C:6]([H:15])([H:16])[C@@:7]21[H:17]>>[C:1]1([H:8])([H:9])[C@:3]23[C:2]([H:10])([H:11])[C:6]([H:15])([H:16])[C@:5]([H:14])([C:4]2([H:12])[H:13])[C@:7]13[H:17]"
C       -1.96243731      -0.69148884       0.05719648
C       -0.64873834       1.21643325      -0.40063719
C       -0.64177672      -0.23627069      -0.20669292
C        0.49717475      -0.98189073      -0.91543193
C        1.38295589      -0.58123299       0.26468979
C        1.25265972       0.94153650       0.37242155
C        0.18321584      -0.31865379       1.08500174
H       -2.32000428      -1.53171169      -0.52579972
H       -2.64440689      -0.24553416       0.76847534
H       -0.65240658       1.59423855      -1.42420603
H       -1.10130404       1.88330780       0.32566070
H        0.26505429      -2.04687273      -0.92830007
H        0.77545067      -0.60853024      -1.90308953
H        2.29841886      -1.08141847       0.56240350
H        1.59616876       1.46125371      -0.52252886
H        1.70471898       1.40242171       1.24668589
H        0.01525641      -0.17558719       2.14415125
17
Frame=6 idx=009561 GeodesicLength=0.48951014253789715 rxn_smarts="[C:1]1([H:8])([H:9])[C:2]([H:10])([H:11])[C:3]12[C:4]([H:12])([H:13])[C@@:5]1([H:14])[C:6]([H:15])([H:16])[C@@:7]21[H:17]>>[C:1]1([H:8])([H:9])[C@:3]23[C:2]([H:10])([H:11])[C:6]([H:15])([H:16])[C@:5]([H:14])([C:4]2([H:12])[H:13])[C@:7]13[H:17]"
C       -1.94782418      -0.67731187       0.07352680
C       -0.66439279       1.21596185      -0.41159126
C       -0.63176105      -0.23659886      -0.23014973
C        0.50864916      -0.98401661      -0.92689409
C        1.37938194      -0.58544500       0.26487073
C        1.24851853       0.93670729       0.37600034
C        0.16744436      -0.33067067       1.07660489
H       -2.31595014      -1.52087193      -0.49871927
H       -2.61593242      -0.24164381       0.80384555
H       -0.66884546       1.59380671      -1.43480566
H       -1.11130246       1.88584010       0.31513770
H        0.26880010      -2.04714094      -0.94773993
H        0.79915069      -0.60297241      -1.90807177
H        2.29081877      -1.08706706       0.57278586
H        1.60596156       1.45871852      -0.51208688
H        1.69458822       1.39390567       1.25535713
H       -0.00730481      -0.17120099       2.13192958
17
Frame=7 idx=009561 GeodesicLength=0.5712339954536442 rxn_smarts="[C:1]1([H:8])([H:9])[C:2]([H:10])([H:11])[C:3]12[C:4]([H:12])([H:13])[C@@:5]1([H:14])[C:6]([H:15])([H:16])[C@@:7]21[H:17]>>[C:1]1([H:8])([H:9])[C@:3]23[C:2]([H:10])([H:11])[C:6]([H:15])([H:16])[C@:5]([H:14])([C:4]2([H:12])[H:13])[C@:7]13[H:17]"
C       -1.93293725      -0.66322418       0.08915202
C       -0.68038669       1.21507730      -0.42202613
C       -0.62201364      -0.23688090      -0.25203095
C        0.51957642      -0.98603665      -0.93761601
C        1.37585335      -0.58961264       0.26506338
C        1.24456734       0.93193834       0.37943803
C        0.15226384      -0.34247348       1.06868404
H       -2.31124282      -1.50941743      -0.47316304
H       -2.58797925      -0.23765934       0.83684054
H       -0.68624405       1.59263063      -1.44500538
H       -1.12114642       1.88841930       0.30496805
H        0.27230838      -2.04725055      -0.96651936
H        0.82187308      -0.59755700      -1.91228315
H        2.28327780      -1.09273559       0.58264851
H        1.61567364       1.45596636      -0.50178418
H        1.68499431       1.38556439       1.26357047
H       -0.02843803      -0.16674856       2.12006316
17
Frame=8 idx=009561 GeodesicLength=0.6529845179764026 rxn_smarts="[C:1]1([H:8])([H:9])[C:2]([H:10])([H:11])[C:3]12[C:4]([H:12])([H:13])[C@@:5]1([H:14])[C:6]([H:15])([H:16])[C@@:7]21[H:17]>>[C:1]1([H:8])([H:9])[C@:3]23[C:2]([H:10])([H:11])[C:6]([H:15])([H:16])[C@:5]([H:14])([C:4]2([H:12])[H:13])[C@:7]13[H:17]"
C       -1.91785107      -0.64925903       0.10409742
C       -0.69668519       1.21381905      -0.43197837
C       -0.61250812      -0.23708636      -0.27243420
C        0.52998883      -0.98793993      -0.94765258
C        1.37238361      -0.59373033       0.26526813
C        1.24083287       0.92723811       0.38275391
C        0.13765395      -0.35405987       1.06122965
H       -2.30596576      -1.49744672      -0.44906289
H       -2.56061189      -0.23360788       0.86764324
H       -0.70454238       1.59072859      -1.45484943
H       -1.13084900       1.89104565       0.29510276
H        0.27558286      -2.04718864      -0.98468440
H        0.84366278      -0.59225844      -1.91578681
H        2.27581251      -1.09842363       0.59202001
H        1.62538313       1.45300964      -0.49159149
H        1.67594374       1.37739088       1.27137571
H       -0.04823088      -0.16223109       2.10854933
17
Frame=9 idx=009561 GeodesicLength=0.7347642975170963 rxn_smarts="[C:1]1([H:8])([H:9])[C:2]([H:10])([H:11])[C:3]12[C:4]([H:12])([H:13])[C@@:5]1([H:14])[C:6]([H:15])([H:16])[C@@:7]21[H:17]>>[C:1]1([H:8])([H:9])[C@:3]23[C:2]([H:10])([H:11])[C:6]([H:15])([H:16])[C@:5]([H:14])([C:4]2([H:12])[H:13])[C@:7]13[H:17]"
C       -1.90261176      -0.63543980       0.11842633
C       -0.71326916       1.21220619      -0.44145985
C       -0.60323624      -0.23718203      -0.29140505
C        0.53989177      -0.98970763      -0.95703608
C        1.36896401      -0.59779676       0.26548909
C        1.23732588       0.92260694       0.38595296
C        0.12358915      -0.36541622       1.05424416
H       -2.30013950      -1.48505262      -0.42646295
H       -2.53383806      -0.22946986       0.89636309
H       -0.72369821       1.58809969      -1.46432490
H       -1.14045201       1.89369214       0.28548698
H        0.27860746      -2.04695063      -1.00224393
H        0.86455728      -0.58703912      -1.91864194
H        2.26840937      -1.10414002       0.60092144
H        1.63515821       1.44984432      -0.48149387
H        1.66743933       1.36937416       1.27879180
H       -0.06669751      -0.15762875       2.09739273
17
Frame=10 idx=009561 GeodesicLength=0.8165552131579971 rxn_smarts="[C:1]1([H:8])([H:9])[C:2]([H:10])([H:11])[C:3]12[C:4]([H:12])([H:13])[C@@:5]1([H:14])[C:6]([H:15])([H:16])[C@@:7]21[H:17]>>[C:1]1([H:8])([H:9])[C@:3]23[C:2]([H:10])([H:11])[C:6]([H:15])([H:16])[C@:5]([H:14])([C:4]2([H:12])[H:13])[C@:7]13[H:17]"
C       -1.88729951      -0.62177909       0.13213328
C       -0.73009844       1.21029290      -0.45054768
C       -0.59414926      -0.23713725      -0.30911171
C        0.54934824      -0.99133877      -0.96584875
C        1.36562528      -0.60180472       0.26572233
C        1.23407968       0.91805645       0.38906787
C        0.11003418      -0.37655691       1.04768431
H       -2.29390906      -1.47234604      -0.40512730
H       -2.50772873      -0.22530679       0.92326891
H       -0.74364577       1.58478946      -1.47352892
H       -1.14993919       1.89638546       0.27607175
H        0.28140396      -2.04651524      -1.01928743
H        0.88463652      -0.58188302      -1.92091893
H        2.26110569      -1.10987775       0.60939851
H        1.64507561       1.44649233      -0.47144145
H        1.65947132       1.36150427       1.28590417
H       -0.08401052      -0.15297528       2.08656106
17
Frame=11 idx=009561 GeodesicLength=0.8983515259096196 rxn_smarts="[C:1]1([H:8])([H:9])[C:2]([H:10])([H:11])[C:3]12[C:4]([H:12])([H:13])[C@@:5]1([H:14])[C:6]([H:15])([H:16])[C@@:7]21[H:17]>>[C:1]1([H:8])([H:9])[C@:3]23[C:2]([H:10])([H:11])[C:6]([H:15])([H:16])[C@:5]([H:14])([C:4]2([H:12])[H:13])[C@:7]13[H:17]"
C       -1.87194869      -0.60828498       0.14524966
C       -0.74715216       1.20810399      -0.45927535
C       -0.58523170      -0.23692428      -0.32563267
C        0.55837836      -0.99282125      -0.97413342
C        1.36236811      -0.60575202       0.26597039
C        1.23110804       0.91359007       0.39211393
C        0.09695967      -0.38747855       1.04153763
H       -2.28731136      -1.45938695      -0.38500140
H       -2.48228398      -0.22114088       0.94851017
H       -0.76434642       1.58080532      -1.48250149
H       -1.15932618       1.89912153       0.26681177
H        0.28396959      -2.04586719      -1.03585206
H        0.90393698      -0.57677126      -1.92266040
H        2.25390049      -1.11564274       0.61747387
H        1.65518728       1.44295309      -0.46140790
H        1.65203171       1.35376996       1.29275062
H       -0.10023973      -0.14827385       2.07604664
17
Frame=12 idx=009561 GeodesicLength=0.9801453044580909 rxn_smarts="[C:1]1([H:8])([H:9])[C:2]([H:10])([H:11])[C:3]12[C:4]([H:12])([H:13])[C@@:5]1([H:14])[C:6]([H:15])([H:16])[C@@:7]21[H:17]>>[C:1]1([H:8])([H:9])[C@:3]23[C:2]([H:10])([H:11])[C:6]([H:15])([H:16])[C@:5]([H:14])([C:4]2([H:12])[H:13])[C@:7]13[H:17]"
C       -1.85660008      -0.59496616       0.15781214
C       -0.76441111       1.20566325      -0.46768304
C       -0.57646007      -0.23651823      -0.34105752
C        0.56701245      -0.99414760      -0.98193822
C        1.35919768      -0.60963740       0.26623276
C        1.22841985       0.90920864       0.39510621
C        0.08433309      -0.39818354       1.03577795
H       -2.28039853      -1.44624195      -0.36599264
H       -2.45749378      -0.21696939       0.97223846
H       -0.78576668       1.57615880      -1.49127708
H       -1.16863205       1.90189391       0.25766253
H        0.28630630      -2.04499292      -1.05198240
H        0.92251381      -0.57168339      -1.92392022
H        2.24679373      -1.12143951       0.62517775
H        1.66554511       1.43923038      -0.45135753
H        1.64510422       1.34615783       1.29937410
H       -0.11546393      -0.14353270       2.06582674
17
Frame=13 idx=009561 GeodesicLength=1.0619332254863239 rxn_smarts="[C:1]1([H:8])([H:9])[C:2]([H:10])([H:11])[C:3]12[C:4]([H:12])([H:13])[C@@:5]1([H:14])[C:6]([H:15])([H:16])[C@@:7]21[H:17]>>[C:1]1([H:8])([H:9])[C@:3]23[C:2]([H:10])([H:11])[C:6]([H:15])([H:16])[C@:5]([H:14])([C:4]2([H:12])[H:13])[C@:7]13[H:17]"
C       -1.84128207      -0.58182137       0.16985329
C       -0.78185911       1.20299207      -0.47580311
C       -0.56781551      -0.23589504      -0.35546645
C        0.57527378      -0.99530967      -0.98930605
C        1.35611403      -0.61345941       0.26651027
C        1.22602480       0.90491460       0.39806021
C        0.07212236      -0.40867171       1.03038213
H       -2.27321350      -1.43297717      -0.34802313
H       -2.43334539      -0.21279807       0.99459366
H       -0.80787521       1.57085720      -1.49988501
H       -1.17787177       1.90469791       0.24857880
H        0.28841160      -2.04388078      -1.06771868
H        0.94041492      -0.56660123      -1.92474644
H        2.23978249      -1.12727241       0.63253531
H        1.67619698       1.43532472      -0.44125947
H        1.63867616       1.33865665       1.30581381
H       -0.12975454      -0.13875629       2.05588086
17
Frame=14 idx=009561 GeodesicLength=1.1437139061056336 rxn_smarts="[C:1]1([H:8])([H:9])[C:2]([H:10])([H:11])[C:3]12[C:4]([H:12])([H:13])[C@@:5]1([H:14])[C:6]([H:15])([H:16])[C@@:7]21[H:17]>>[C:1]1([H:8])([H:9])[C@:3]23[C:2]([H:10])([H:11])[C:6]([H:15])([H:16])[C@:5]([H:14])([C:4]2([H:12])[H:13])[C@:7]13[H:17]"
C       -1.82601972      -0.56884662       0.18140780
C       -0.79948540       1.20010464      -0.48366605
C       -0.55928050      -0.23503685      -0.36893194
C        0.58318817      -0.99629999      -0.99627665
C        1.35311592      -0.61721820       0.26680113
C        1.22392764       0.90070837       0.40098868
C        0.06029780      -0.41894641       1.02532616
H       -2.26578873      -1.41964324      -0.33101617
H       -2.40981767      -0.20861236       1.01569441
H       -0.83064887       1.56490260      -1.50835189
H       -1.18706360       1.90752507       0.23952207
H        0.29028601      -2.04251955      -1.08309920
H        0.95768969      -0.56150792      -1.92517717
H        2.23286135      -1.13314638       0.63956710
H        1.68718003       1.43123654      -0.43108118
H        1.63272756       1.33125252       1.31210342
H       -0.14316969      -0.13395221       2.04618949
17
Frame=15 idx=009561 GeodesicLength=1.2254862980827865 rxn_smarts="[C:1]1([H:8])([H:9])[C:2]([H:10])([H:11])[C:3]12[C:4]([H:12])([H:13])[C@@:5]1([H:14])[C:6]([H:15])([H:16])[C@@:7]21[H:17]>>[C:1]1([H:8])([H:9])[C@:3]23[C:2]([H:10])([H:11])[C:6]([H:15])([H:16])[C@:5]([H:14])([C:4]2([H:12])[H:13])[C@:7]13[H:17]"
C       -1.81083276      -0.55603617       0.19250820
C       -0.81728101       1.19701272      -0.49129911
C       -0.55083806      -0.23392538      -0.38152138
C        0.59077627      -0.99711330      -1.00288557
C        1.35020302      -0.62091350       0.26710450
C        1.22213309       0.89659012       0.40390333
C        0.04883150      -0.42900951       1.02058695
H       -2.25815313      -1.40628664      -0.31490405
H       -2.38688657      -0.20439590       1.03565090
H       -0.85406880       1.55829365      -1.51669874
H       -1.19622626       1.91036616       0.23045605
H        0.29192886      -2.04089827      -1.09815910
H        0.97438392      -0.55638855      -1.92525097
H        2.22602518      -1.13906582       0.64629324
H        1.69852855       1.42696449      -0.42079199
H        1.62724156       1.32393348       1.31827437
H       -0.15576537      -0.12912759       2.03673336
17
Frame=16 idx=009561 GeodesicLength=1.307252614775142 rxn_smarts="[C:1]1([H:8])([H:9])[C:2]([H:10])([H:11])[C:3]12[C:4]([H:12])([H:13])[C@@:5]1([H:14])[C:6]([H:15])([H:16])[C@@:7]21[H:17]>>[C:1]1([H:8])([H:9])[C@:3]23[C:2]([H:10])([H:11])[C:6]([H:15])([H:16])[C@:5]([H:14])([C:4]2([H:12])[H:13])[C@:7]13[H:17]"
C       -1.79573608      -0.54338303       0.20318505
C       -0.83523966       1.19372446      -0.49872803
C       -0.54247268      -0.23254450      -0.39329722
C        0.59805916      -0.99774332      -1.00916656
C        1.34737392      -0.62454536       0.26741925
C        1.22064415       0.89255938       0.40681533
C        0.03769656      -0.43886320       1.01614103
H       -2.25032995      -1.39293994      -0.29961701
H       -2.36452701      -0.20013269       1.05456068
H       -0.87812113       1.55102470      -1.52494410
H       -1.20537755       1.91321209       0.22134596
H        0.29333999      -2.03900719      -1.11293143
H        0.99054227      -0.55122816      -1.92500186
H        2.21926735      -1.14503567       0.65273097
H        1.71027209       1.42250530      -0.41036123
H        1.62220010       1.31668687       1.32435549
H       -0.16759154      -0.12428975       2.02749366
