14
Frame=0 idx=004959 GeodesicLength=0.0 rxn_smarts="[O:1]=[C:2]1[C:3]([H:7])([H:8])[C:4]([H:9])([H:10])[C:5]([H:11])([H:12])[C:6]1([H:13])[H:14]>>[O:1]1[C:2](=[C:6]([H:13])[H:14])[C:3]([H:7])([H:8])[C@@:4]1([C:5]([H:9])([H:11])[H:12])[H:10]"
O       -0.53245268       1.73397201      -1.47154177
C       -0.09670401       1.33359110      -0.39199507
C       -1.09688662       0.30150581       0.35322061
C       -0.67363974      -0.91519914      -0.33538450
C        0.59810216      -1.42276396      -0.05045381
C        1.14676251       1.42249505       0.19803498
H       -0.87773267       0.29496660       1.42050912
H       -2.12868180       0.57827957       0.15916732
H       -0.59157640      -2.02172088       0.31528093
H       -1.13720913      -1.18918395      -1.27736258
H        1.08676544      -2.12289726      -0.71779121
H        1.08095897      -1.14572025       0.87511420
H        1.28311188       1.21577309       1.25127941
H        1.93918215       1.93690222      -0.32807761
14
Frame=1 idx=004959 GeodesicLength=0.07698355808286865 rxn_smarts="[O:1]=[C:2]1[C:3]([H:7])([H:8])[C:4]([H:9])([H:10])[C:5]([H:11])([H:12])[C:6]1([H:13])[H:14]>>[O:1]1[C:2](=[C:6]([H:13])[H:14])[C:3]([H:7])([H:8])[C@@:4]1([C:5]([H:9])([H:11])[H:12])[H:10]"
O       -0.51986336       1.68746642      -1.47880869
C       -0.10497684       1.33665598      -0.37060765
C       -1.10648012       0.30664964       0.36123043
C       -0.67455280      -0.90163159      -0.34420645
C        0.60553262      -1.40177654      -0.05445555
C        1.15252674       1.40366512       0.19760220
H       -0.89404219       0.28928971       1.42974793
H       -2.13916359       0.58219768       0.16938414
H       -0.58320554      -2.02152887       0.30049310
H       -1.14365580      -1.18128683      -1.28167664
H        1.10236447      -2.08950467      -0.72900868
H        1.07215748      -1.15387677       0.88813965
H        1.28909294       1.24305082       1.25889745
H        1.94426599       1.90062990      -0.34673122
14
Frame=2 idx=004959 GeodesicLength=0.153868273930921 rxn_smarts="[O:1]=[C:2]1[C:3]([H:7])([H:8])[C:4]([H:9])([H:10])[C:5]([H:11])([H:12])[C:6]1([H:13])[H:14]>>[O:1]1[C:2](=[C:6]([H:13])[H:14])[C:3]([H:7])([H:8])[C@@:4]1([C:5]([H:9])([H:11])[H:12])[H:10]"
O       -0.50842535       1.64414519      -1.48283279
C       -0.11216430       1.33862750      -0.35101621
C       -1.11554311       0.31170197       0.36840288
C       -0.67538164      -0.88853627      -0.35301877
C        0.61265822      -1.38171351      -0.05761747
C        1.15771666       1.38525246       0.19741699
H       -0.91024539       0.28375878       1.43807848
H       -2.14910557       0.58603992       0.17881611
H       -0.57522960      -2.02147291       0.28628081
H       -1.14953497      -1.17398966      -1.28610626
H        1.11738610      -2.05740767      -0.73881930
H        1.06361706      -1.16228558       0.90012118
H        1.29576027       1.27094451       1.26457988
H        1.94849161       1.86493526      -0.36428554
14
Frame=3 idx=004959 GeodesicLength=0.23066252475357102 rxn_smarts="[O:1]=[C:2]1[C:3]([H:7])([H:8])[C:4]([H:9])([H:10])[C:5]([H:11])([H:12])[C:6]1([H:13])[H:14]>>[O:1]1[C:2](=[C:6]([H:13])[H:14])[C:3]([H:7])([H:8])[C@@:4]1([C:5]([H:9])([H:11])[H:12])[H:10]"
O       -0.49805751       1.60375448      -1.48429336
C       -0.11843988       1.33966224      -0.33282118
C       -1.12417373       0.31663428       0.37490215
C       -0.67613480      -0.87586781      -0.36182150
C        0.61950572      -1.36254141      -0.06001080
C        1.16248415       1.36721291       0.19753842
H       -0.92638420       0.27827162       1.44566970
H       -2.15860777       0.58979833       0.18758581
H       -0.56763012      -2.02161643       0.27254296
H       -1.15487815      -1.16713973      -1.29069665
H        1.13191049      -2.02650003      -0.74738510
H        1.05531175      -1.17094594       0.91120708
H        1.30311413       1.29952590       1.26844144
H        1.95197992       1.82975159      -0.38085900
14
Frame=4 idx=004959 GeodesicLength=0.30735837673808747 rxn_smarts="[O:1]=[C:2]1[C:3]([H:7])([H:8])[C:4]([H:9])([H:10])[C:5]([H:11])([H:12])[C:6]1([H:13])[H:14]>>[O:1]1[C:2](=[C:6]([H:13])[H:14])[C:3]([H:7])([H:8])[C@@:4]1([C:5]([H:9])([H:11])[H:12])[H:10]"
O       -0.48866544       1.56607238      -1.48373127
C       -0.12396395       1.33994705      -0.31570042
C       -1.13243981       0.32145913       0.38086629
C       -0.67680517      -0.86359369      -0.37062061
C        0.62610255      -1.34425922      -0.06169910
C        1.16691282       1.34953076       0.19801249
H       -0.94248687       0.27277901       1.45268077
H       -2.16773122       0.59351669       0.19579539
H       -0.56035891      -2.02204495       0.25919443
H       -1.15970023      -1.16063580      -1.29550110
H        1.14600674      -1.99674485      -0.75485665
H        1.04720271      -1.17991658       0.92154894
H        1.31115340       1.32883878       1.27055615
H        1.95477337       1.79505129      -0.39654531
14
Frame=5 idx=004959 GeodesicLength=0.38389219300259586 rxn_smarts="[O:1]=[C:2]1[C:3]([H:7])([H:8])[C:4]([H:9])([H:10])[C:5]([H:11])([H:12])[C:6]1([H:13])[H:14]>>[O:1]1[C:2](=[C:6]([H:13])[H:14])[C:3]([H:7])([H:8])[C@@:4]1([C:5]([H:9])([H:11])[H:12])[H:10]"
O       -0.48021190       1.53083714      -1.48148777
C       -0.12889775       1.33955341      -0.29940060
C       -1.14044132       0.32616571       0.38633277
C       -0.67736549      -0.85158691      -0.37935907
C        0.63248571      -1.32660809      -0.06261674
C        1.17105049       1.33217533       0.19874912
H       -0.95867881       0.26729231       1.45907385
H       -2.17657423       0.59710030       0.20342613
H       -0.55336440      -2.02258520       0.24620164
H       -1.16394973      -1.15435108      -1.30040326
H        1.15982567      -1.96775197      -0.76112933
H        1.03913649      -1.18919836       0.93136728
H        1.32018751       1.35783304       1.27062722
H        1.95679775       1.76112436      -0.41138125
14
Frame=6 idx=004959 GeodesicLength=0.46044527023588055 rxn_smarts="[O:1]=[C:2]1[C:3]([H:7])([H:8])[C:4]([H:9])([H:10])[C:5]([H:11])([H:12])[C:6]1([H:13])[H:14]>>[O:1]1[C:2](=[C:6]([H:13])[H:14])[C:3]([H:7])([H:8])[C@@:4]1([C:5]([H:9])([H:11])[H:12])[H:10]"
O       -0.47240755       1.49758262      -1.47761542
C       -0.13323808       1.33845381      -0.28363793
C       -1.14815117       0.33063381       0.39142032
C       -0.67787331      -0.83984525      -0.38806264
C        0.63858965      -1.30964269      -0.06297278
C        1.17500680       1.31498664       0.19996224
H       -0.97485611       0.26154135       1.46489742
H       -2.18508450       0.60046466       0.21065057
H       -0.54671984      -2.02329615       0.23337845
H       -1.16775333      -1.14810992      -1.30543807
H        1.17320527      -1.93948859      -0.76651122
H        1.03121943      -1.19852967       0.94039923
H        1.32971135       1.38812855       1.26894466
H        1.95835139       1.72712083      -0.42541482
14
Frame=7 idx=004959 GeodesicLength=0.5368859171806177 rxn_smarts="[O:1]=[C:2]1[C:3]([H:7])([H:8])[C:4]([H:9])([H:10])[C:5]([H:11])([H:12])[C:6]1([H:13])[H:14]>>[O:1]1[C:2](=[C:6]([H:13])[H:14])[C:3]([H:7])([H:8])[C@@:4]1([C:5]([H:9])([H:11])[H:12])[H:10]"
O       -0.46537911       1.46648887      -1.47262437
C       -0.13717132       1.33694190      -0.26831348
C       -1.15566687       0.33501200       0.39620871
C       -0.67826337      -0.82835861      -0.39673512
C        0.64450981      -1.29340838      -0.06267839
C        1.17874096       1.29811593       0.20155781
H       -0.99113893       0.25569670       1.47035909
H       -2.19338304       0.60380057       0.21746407
H       -0.54028213      -2.02432026       0.22077197
H       -1.17101211      -1.14194596      -1.31072838
H        1.18637191      -1.91205576      -0.77097032
H        1.02337701      -1.20820946       0.94903515
H        1.34005209       1.41868498       1.26541616
H        1.95924510       1.69355748      -0.43876291
14
Frame=8 idx=004959 GeodesicLength=0.613218487216694 rxn_smarts="[O:1]=[C:2]1[C:3]([H:7])([H:8])[C:4]([H:9])([H:10])[C:5]([H:11])([H:12])[C:6]1([H:13])[H:14]>>[O:1]1[C:2](=[C:6]([H:13])[H:14])[C:3]([H:7])([H:8])[C@@:4]1([C:5]([H:9])([H:11])[H:12])[H:10]"
O       -0.45900330       1.43733723      -1.46658468
C       -0.14073918       1.33502587      -0.25326685
C       -1.16301893       0.33924246       0.40073600
C       -0.67854650      -0.81707503      -0.40536349
C        0.65023101      -1.27779370      -0.06175234
C        1.18231616       1.28152794       0.20354203
H       -1.00755438       0.24967228       1.47544337
H       -2.20149482       0.60699830       0.22390338
H       -0.53407385      -2.02559705       0.20831506
H       -1.17375174      -1.13577833      -1.31623644
H        1.19933860      -1.88523943      -0.77452546
H        1.01555111      -1.21813871       0.95729746
H        1.35119406       1.44949711       1.25996171
H        1.95955176       1.66032105      -0.45146975
14
Frame=9 idx=004959 GeodesicLength=0.6894668426550863 rxn_smarts="[O:1]=[C:2]1[C:3]([H:7])([H:8])[C:4]([H:9])([H:10])[C:5]([H:11])([H:12])[C:6]1([H:13])[H:14]>>[O:1]1[C:2](=[C:6]([H:13])[H:14])[C:3]([H:7])([H:8])[C@@:4]1([C:5]([H:9])([H:11])[H:12])[H:10]"
O       -0.45324532       1.41000340      -1.45964504
C       -0.14400418       1.33276181      -0.23838324
C       -1.17024394       0.34333338       0.40504443
C       -0.67871161      -0.80595505      -0.41393908
C        0.65577200      -1.26275301      -0.06020254
C        1.18575116       1.26521172       0.20591281
H       -1.02413969       0.24345029       1.48018288
H       -2.20946258       0.61006319       0.22999219
H       -0.52805690      -2.02711383       0.19597199
H       -1.17597164      -1.12954825      -1.32196506
H        1.21215497      -1.85896243      -0.77719588
H        1.00772458      -1.22831772       0.96525366
H        1.36316000       1.48041959       1.25254599
H        1.95927315       1.62740692      -0.46357313
14
Frame=10 idx=004959 GeodesicLength=0.7655936317709092 rxn_smarts="[O:1]=[C:2]1[C:3]([H:7])([H:8])[C:4]([H:9])([H:10])[C:5]([H:11])([H:12])[C:6]1([H:13])[H:14]>>[O:1]1[C:2](=[C:6]([H:13])[H:14])[C:3]([H:7])([H:8])[C@@:4]1([C:5]([H:9])([H:11])[H:12])[H:10]"
O       -0.44803054       1.38439634      -1.45185035
C       -0.14701409       1.33019499      -0.22355936
C       -1.17734540       0.34728484       0.40916369
C       -0.67873560      -0.79496231      -0.42245358
C        0.66113763      -1.24825027      -0.05804444
C        1.18904945       1.24916995       0.20866476
H       -1.04089535       0.23701079       1.48457509
H       -2.21727062       0.61298624       0.23576141
H       -0.52219692      -2.02885665       0.18371081
H       -1.17765231      -1.12320227      -1.32789469
H        1.22483317      -1.83316764      -0.77898809
H        0.99986390      -1.23871364       0.97292151
H        1.37586594       1.51135818       1.24310184
H        1.95839074       1.59475145      -0.47510861
14
Frame=11 idx=004959 GeodesicLength=0.8416348401502327 rxn_smarts="[O:1]=[C:2]1[C:3]([H:7])([H:8])[C:4]([H:9])([H:10])[C:5]([H:11])([H:12])[C:6]1([H:13])[H:14]>>[O:1]1[C:2](=[C:6]([H:13])[H:14])[C:3]([H:7])([H:8])[C@@:4]1([C:5]([H:9])([H:11])[H:12])[H:10]"
O       -0.44335856       1.36043420      -1.44333463
C       -0.14981129       1.32736692      -0.20872019
C       -1.18436753       0.35110154       0.41312970
C       -0.67861526      -0.78406630      -0.43090452
C        0.66634715      -1.23424649      -0.05527543
C        1.19224266       1.23340472       0.21178325
H       -1.05786728       0.23033893       1.48866227
H       -2.22498438       0.61576453       0.24122434
H       -0.51647053      -2.03081440       0.17151245
H       -1.17879936      -1.11669837      -1.33405150
H        1.23742165      -1.80780633      -0.77990407
H        0.99197221      -1.24932121       0.98037540
H        1.38936513       1.54213504       1.23162181
H        1.95692538       1.56240723      -0.48611887
14
Frame=12 idx=004959 GeodesicLength=0.9175802060172067 rxn_smarts="[O:1]=[C:2]1[C:3]([H:7])([H:8])[C:4]([H:9])([H:10])[C:5]([H:11])([H:12])[C:6]1([H:13])[H:14]>>[O:1]1[C:2](=[C:6]([H:13])[H:14])[C:3]([H:7])([H:8])[C@@:4]1([C:5]([H:9])([H:11])[H:12])[H:10]"
O       -0.43919446       1.33805473      -1.43414338
C       -0.15243050       1.32431279      -0.19379229
C       -1.19132104       0.35478668       0.41696817
C       -0.67833180      -0.77323480      -0.43928689
C        0.67140820      -1.22071078      -0.05189938
C        1.19534100       1.21792285       0.21525108
H       -1.07506534       0.22342038       1.49245076
H       -2.23260916       0.61839295       0.24640195
H       -0.51084797      -2.03297440       0.15935238
H       -1.17939534      -1.10999280      -1.34043375
H        1.24994081      -1.78283786      -0.77993754
H        0.98402993      -1.26011841       0.98764703
H        1.40360923       1.57262343       1.21806835
H        1.95486643       1.53035523      -0.49664651
14
Frame=13 idx=004959 GeodesicLength=0.9934609322891982 rxn_smarts="[O:1]=[C:2]1[C:3]([H:7])([H:8])[C:4]([H:9])([H:10])[C:5]([H:11])([H:12])[C:6]1([H:13])[H:14]>>[O:1]1[C:2](=[C:6]([H:13])[H:14])[C:3]([H:7])([H:8])[C@@:4]1([C:5]([H:9])([H:11])[H:12])[H:10]"
O       -0.43552549       1.31720979      -1.42433874
C       -0.15490771       1.32106654      -0.17871746
C       -1.19823054       0.35835226       0.42070930
C       -0.67787098      -0.76243568      -0.44760156
C        0.67634473      -1.20762165      -0.04791900
C        1.19836594       1.20272976       0.21904770
H       -1.09250959       0.21625255       1.49596973
H       -2.24018154       0.62088258       0.25131780
H       -0.50529486      -2.03532547       0.14721383
H       -1.17943386      -1.10304323      -1.34705943
H        1.26243707      -1.75823694      -0.77909239
H        0.97604160      -1.27109199       0.99478325
H        1.41854520       1.60268591       1.20243180
H        1.95222002       1.49857556      -0.50674481
14
Frame=14 idx=004959 GeodesicLength=1.0692125558653065 rxn_smarts="[O:1]=[C:2]1[C:3]([H:7])([H:8])[C:4]([H:9])([H:10])[C:5]([H:11])([H:12])[C:6]1([H:13])[H:14]>>[O:1]1[C:2](=[C:6]([H:13])[H:14])[C:3]([H:7])([H:8])[C@@:4]1([C:5]([H:9])([H:11])[H:12])[H:10]"
O       -0.43233071       1.29784660      -1.41396862
C       -0.15726143       1.31766084      -0.16344575
C       -1.20508752       0.36179990       0.42436266
C       -0.67721360      -0.75164687      -0.45582839
C        0.68113191      -1.19493404      -0.04331209
C        1.20130924       1.18785013       0.22312616
H       -1.11019798       0.20882207       1.49919323
H       -2.24767019       0.62321441       0.25596796
H       -0.49978706      -2.03786108       0.13508044
H       -1.17888222      -1.09583377      -1.35390092
H        1.27489930      -1.73391609      -0.77733107
H        0.96796424      -1.28222819       1.00181636
H        1.43418422       1.63207832       1.18469551
H        1.94894179       1.46714779      -0.51645548
14
Frame=15 idx=004959 GeodesicLength=1.1448587612657648 rxn_smarts="[O:1]=[C:2]1[C:3]([H:7])([H:8])[C:4]([H:9])([H:10])[C:5]([H:11])([H:12])[C:6]1([H:13])[H:14]>>[O:1]1[C:2](=[C:6]([H:13])[H:14])[C:3]([H:7])([H:8])[C@@:4]1([C:5]([H:9])([H:11])[H:12])[H:10]"
O       -0.42957142       1.27988892      -1.40304467
C       -0.15949364       1.31407745      -0.14794823
C       -1.21189946       0.36511465       0.42794075
C       -0.67634609      -0.74082339      -0.46396410
C        0.68580299      -1.18259108      -0.03812954
C        1.20421485       1.17328316       0.22745630
H       -1.12812156       0.20111722       1.50210664
H       -2.25509577       0.62535871       0.26037966
H       -0.49430412      -2.04049778       0.12297506
H       -1.17776001      -1.08831311      -1.36092894
H        1.28730109      -1.70993632      -0.77464890
H        0.95983117      -1.29341975       1.00870938
H        1.45036215       1.66065708       1.16488465
H        1.94507982       1.43608425      -0.52578804
14
Frame=16 idx=004959 GeodesicLength=1.2204246750866419 rxn_smarts="[O:1]=[C:2]1[C:3]([H:7])([H:8])[C:4]([H:9])([H:10])[C:5]([H:11])([H:12])[C:6]1([H:13])[H:14]>>[O:1]1[C:2](=[C:6]([H:13])[H:14])[C:3]([H:7])([H:8])[C@@:4]1([C:5]([H:9])([H:11])[H:12])[H:10]"
O       -0.42727791       1.26332732      -1.39166387
C       -0.16165090       1.31038182      -0.13220485
C       -1.21868615       0.36834725       0.43146917
C       -0.67525143      -0.72995088      -0.47201076
C        0.69038164      -1.17060548      -0.03235329
C        1.20707896       1.15905289       0.23198497
H       -1.14628892       0.19317901       1.50475588
H       -2.26248867       0.62738203       0.26456054
H       -0.48878477      -2.04326878       0.11089943
H       -1.17605036      -1.08047705      -1.36817922
H        1.29970139      -1.68629905      -0.77105796
H        0.95166988      -1.30470462       1.01553910
H        1.46704645       1.68818879       1.14308777
H        1.94060080       1.40544674      -0.53482690
