14
Frame=0 idx=005774 GeodesicLength=0.0 rxn_smarts="[O:1]([C@@:2]1([H:8])[C@@:3]2([H:9])[C:4]([H:10])([H:11])[C:5]([H:12])([H:13])[C@@:6]12[H:14])[H:7]>>[O:1]([C:2]([C@@:3]1([H:9])[C:4]([H:10])([H:11])[C:5]([H:12])([H:13])[C:6]1)([H:8])[H:14])[H:7]"
O        1.33689081      -1.40400532       0.06672948
C        0.80307357      -0.50315183       0.98096742
C        0.23923311       0.82586105       0.45438315
C       -0.20541649       0.72280024      -1.00430301
C       -1.34201053      -0.18337797      -0.49096692
C       -1.03510766       0.19606889       0.97515743
H        1.83993329      -0.92048608      -0.59229772
H        1.44165555      -0.30971192       1.84420956
H        0.70789772       1.70914094       0.87983766
H        0.49548203       0.31811693      -1.74013399
H       -0.57184852       1.67771486      -1.37867864
H       -2.35483726       0.13733826      -0.74099335
H       -1.25906758      -1.24353725      -0.72979941
H       -0.09587808      -1.02277086       1.47588829
14
Frame=1 idx=005774 GeodesicLength=0.06426876958877063 rxn_smarts="[O:1]([C@@:2]1([H:8])[C@@:3]2([H:9])[C:4]([H:10])([H:11])[C:5]([H:12])([H:13])[C@@:6]12[H:14])[H:7]>>[O:1]([C:2]([C@@:3]1([H:9])[C:4]([H:10])([H:11])[C:5]([H:12])([H:13])[C:6]1)([H:8])[H:14])[H:7]"
O        1.32651063      -1.41144070       0.06630452
C        0.80552587      -0.50135917       0.98031871
C        0.23908617       0.82431719       0.45346620
C       -0.20661605       0.72709660      -1.00527174
C       -1.34417443      -0.18081616      -0.49680459
C       -1.03173629       0.18248680       0.96909591
H        1.84554407      -0.93746561      -0.58708266
H        1.46093392      -0.30203471       1.82952445
H        0.69466413       1.71061546       0.88676283
H        0.49495326       0.32481191      -1.74159573
H       -0.57254705       1.68356118      -1.37619059
H       -2.35769860       0.13753497      -0.74636060
H       -1.25556211      -1.24031398      -0.73845149
H       -0.09888352      -1.01699379       1.50628477
14
Frame=2 idx=005774 GeodesicLength=0.1285068233835074 rxn_smarts="[O:1]([C@@:2]1([H:8])[C@@:3]2([H:9])[C:4]([H:10])([H:11])[C:5]([H:12])([H:13])[C@@:6]12[H:14])[H:7]>>[O:1]([C:2]([C@@:3]1([H:9])[C:4]([H:10])([H:11])[C:5]([H:12])([H:13])[C:6]1)([H:8])[H:14])[H:7]"
O        1.31614692      -1.41886464       0.06596985
C        0.80815628      -0.49955067       0.97956353
C        0.23890555       0.82276465       0.45256971
C       -0.20783017       0.73146859      -1.00621049
C       -1.34628299      -0.17829580      -0.50270618
C       -1.02816374       0.16850121       0.96286594
H        1.85094879      -0.95500099      -0.58178357
H        1.48004984      -0.29456248       1.81443869
H        0.68110398       1.71188872       0.89386304
H        0.49445851       0.33169117      -1.74303260
H       -0.57335293       1.68947414      -1.37356235
H       -2.36053452       0.13767542      -0.75166287
H       -1.25192645      -1.23702674      -0.74746196
H       -0.10167906      -1.01016257       1.53714926
14
Frame=3 idx=005774 GeodesicLength=0.19274600627544025 rxn_smarts="[O:1]([C@@:2]1([H:8])[C@@:3]2([H:9])[C:4]([H:10])([H:11])[C:5]([H:12])([H:13])[C@@:6]12[H:14])[H:7]>>[O:1]([C:2]([C@@:3]1([H:9])[C:4]([H:10])([H:11])[C:5]([H:12])([H:13])[C:6]1)([H:8])[H:14])[H:7]"
O        1.30581972      -1.42627777       0.06572368
C        0.81097314      -0.49773560       0.97869160
C        0.23869230       0.82119575       0.45169638
C       -0.20906232       0.73591319      -1.00711461
C       -1.34833598      -0.17582192      -0.50866475
C       -1.02437260       0.15409482       0.95646162
H        1.85615666      -0.97308079      -0.57639653
H        1.49899370      -0.28730482       1.79896538
H        0.66722369       1.71293473       0.90113829
H        0.49399259       0.33875603      -1.74444268
H       -0.57427322       1.69545062      -1.37078322
H       -2.36334669       0.13775533      -0.75688356
H       -1.24815757      -1.23367133      -0.75684409
H       -0.10430343      -1.00220824       1.56845249
14
Frame=4 idx=005774 GeodesicLength=0.25701771333720486 rxn_smarts="[O:1]([C@@:2]1([H:8])[C@@:3]2([H:9])[C:4]([H:10])([H:11])[C:5]([H:12])([H:13])[C@@:6]12[H:14])[H:7]>>[O:1]([C:2]([C@@:3]1([H:9])[C:4]([H:10])([H:11])[C:5]([H:12])([H:13])[C:6]1)([H:8])[H:14])[H:7]"
O        1.29555444      -1.43367856       0.06556083
C        0.81398237      -0.49592625       0.97769199
C        0.23844944       0.81960114       0.45084876
C       -0.21031696       0.74042687      -1.00797874
C       -1.35033373      -0.17339949      -0.51467060
C       -1.02034528       0.13925367       0.94987738
H        1.86118329      -0.99169057      -0.57091330
H        1.51775553      -0.28026978       1.78311751
H        0.65303532       1.71372393       0.90858731
H        0.49354779       0.34600729      -1.74582480
H       -0.57531597       1.70148711      -1.36784096
H       -2.36613722       0.13776927      -0.76200380
H       -1.24425273      -1.23024360      -0.76660762
H       -0.10680628      -0.99306103       1.60015606
14
Frame=5 idx=005774 GeodesicLength=0.3213181075942594 rxn_smarts="[O:1]([C@@:2]1([H:8])[C@@:3]2([H:9])[C:4]([H:10])([H:11])[C:5]([H:12])([H:13])[C@@:6]12[H:14])[H:7]>>[O:1]([C:2]([C@@:3]1([H:9])[C:4]([H:10])([H:11])[C:5]([H:12])([H:13])[C:6]1)([H:8])[H:14])[H:7]"
O        1.28538149      -1.44106344       0.06546712
C        0.81718656      -0.49413907       0.97655522
C        0.23818273       0.81797061       0.45002632
C       -0.21160020       0.74500409      -1.00879881
C       -1.35227814      -0.17103320      -0.52071056
C       -1.01606153       0.12396879       0.94310924
H        1.86605658      -1.01080329      -0.56532248
H        1.53631433      -0.27347766       1.76692303
H        0.63855716       1.71422663       0.91620379
H        0.49311225       0.35344227      -1.74718059
H       -0.57649034       1.70757796      -1.36472498
H       -2.36891001       0.13771248      -0.76699999
H       -1.24021219      -1.22673959      -0.77675519
H       -0.10923870      -0.98264658       1.63220788
14
Frame=6 idx=005774 GeodesicLength=0.38567374814396155 rxn_smarts="[O:1]([C@@:2]1([H:8])[C@@:3]2([H:9])[C:4]([H:10])([H:11])[C:5]([H:12])([H:13])[C@@:6]12[H:14])[H:7]>>[O:1]([C:2]([C@@:3]1([H:9])[C:4]([H:10])([H:11])[C:5]([H:12])([H:13])[C:6]1)([H:8])[H:14])[H:7]"
O        1.27533463      -1.44842708       0.06543035
C        0.82059156      -0.49238908       0.97526906
C        0.23790004       0.81629359       0.44922927
C       -0.21291855       0.74963952      -1.00956958
C       -1.35416998      -0.16872859      -0.52676821
C       -1.01150066       0.10823529       0.93615445
H        1.87080750      -1.03039311      -0.55961215
H        1.55464976      -0.26694452       1.75040793
H        0.62381352       1.71441327       0.92398015
H        0.49267218       0.36105912      -1.74851196
H       -0.57780681       1.71371758      -1.36142259
H       -2.37166821       0.13757781      -0.77184572
H       -1.23603483      -1.22315551      -0.78728490
H       -0.11167013      -0.97089830       1.66454391
14
Frame=7 idx=005774 GeodesicLength=0.4500785865293832 rxn_smarts="[O:1]([C@@:2]1([H:8])[C@@:3]2([H:9])[C:4]([H:10])([H:11])[C:5]([H:12])([H:13])[C@@:6]12[H:14])[H:7]>>[O:1]([C:2]([C@@:3]1([H:9])[C:4]([H:10])([H:11])[C:5]([H:12])([H:13])[C:6]1)([H:8])[H:14])[H:7]"
O        1.26545425      -1.45576035       0.06542653
C        0.82419882      -0.49069575       0.97382298
C        0.23761309       0.81455838       0.44845410
C       -0.21428026       0.75432570      -1.01028722
C       -1.35601187      -0.16649097      -0.53282307
C       -1.00664004       0.09205548       0.92901287
H        1.87548141      -1.05042069      -0.55376712
H        1.57273025      -0.26069821       1.73361566
H        0.60883718       1.71425337       0.93190211
H        0.49220902       0.36885233      -1.74982428
H       -0.57927704       1.71989815      -1.35792276
H       -2.37441678       0.13735852      -0.77650958
H       -1.23172362      -1.21948744      -0.79818593
H       -0.11417442      -0.95774853       1.69708572
14
Frame=8 idx=005774 GeodesicLength=0.5145089374110442 rxn_smarts="[O:1]([C@@:2]1([H:8])[C@@:3]2([H:9])[C:4]([H:10])([H:11])[C:5]([H:12])([H:13])[C@@:6]12[H:14])[H:7]>>[O:1]([C:2]([C@@:3]1([H:9])[C:4]([H:10])([H:11])[C:5]([H:12])([H:13])[C:6]1)([H:8])[H:14])[H:7]"
O        1.25578387      -1.46305162       0.06542974
C        0.82800676      -0.48907996       0.97220652
C        0.23733729       0.81275384       0.44769513
C       -0.21569481       0.75905453      -1.01094810
C       -1.35780741      -0.16432423      -0.53885020
C       -1.00145786       0.07544118       0.92168549
H        1.88013211      -1.07084338      -0.54776640
H        1.59052020      -0.25476576       1.71659475
H        0.59366793       1.71372079       0.93995271
H        0.49170006       0.37681410      -1.75112458
H       -0.58091309       1.72611091      -1.35421512
H       -2.37716108       0.13704780      -0.78095697
H       -1.22728391      -1.21573162      -0.80943943
H       -0.11683007      -0.94314658       1.72973646
14
Frame=9 idx=005774 GeodesicLength=0.5786218381396293 rxn_smarts="[O:1]([C@@:2]1([H:8])[C@@:3]2([H:9])[C:4]([H:10])([H:11])[C:5]([H:12])([H:13])[C@@:6]12[H:14])[H:7]>>[O:1]([C:2]([C@@:3]1([H:9])[C:4]([H:10])([H:11])[C:5]([H:12])([H:13])[C:6]1)([H:8])[H:14])[H:7]"
O        1.24637170      -1.47026778       0.06539211
C        0.83196125      -0.48758248       0.97042661
C        0.23709474       0.81086731       0.44693091
C       -0.21717855       0.76381152      -1.01155911
C       -1.35957348      -0.16222412      -0.54482237
C       -0.99595450       0.05844629       0.91417255
H        1.88487012      -1.09156644      -0.54154067
H        1.60791427      -0.24921152       1.69942837
H        0.57838038       1.71279797       0.94808670
H        0.49110644       0.38491743      -1.75243208
H       -0.58272344       1.73234150      -1.35030480
H       -2.37991650       0.13665350      -0.78515253
H       -1.22275445      -1.21187565      -0.82099968
H       -0.11959799      -0.92710753       1.76237399
14
Frame=10 idx=005774 GeodesicLength=0.6427633881823179 rxn_smarts="[O:1]([C@@:2]1([H:8])[C@@:3]2([H:9])[C:4]([H:10])([H:11])[C:5]([H:12])([H:13])[C@@:6]12[H:14])[H:7]>>[O:1]([C:2]([C@@:3]1([H:9])[C:4]([H:10])([H:11])[C:5]([H:12])([H:13])[C:6]1)([H:8])[H:14])[H:7]"
O        1.23726435      -1.47741092       0.06529427
C        0.83611381      -0.48620327       0.96845960
C        0.23690028       0.80889075       0.44616976
C       -0.21873644       0.76859472      -1.01210561
C       -1.36130089      -0.16020284      -0.55070776
C       -0.99008909       0.04106119       0.90648342
H        1.88971441      -1.11259115      -0.53510928
H        1.62495941      -0.24402551       1.68214199
H        0.56299991       1.71145418       0.95630078
H        0.49041411       0.39317230      -1.75374619
H       -0.58472642       1.73858586      -1.34616582
H       -2.38267943       0.13615163      -0.78905595
H       -1.21811054      -1.20792664      -0.83285273
H       -0.12272344      -0.90955031       1.79489351
14
Frame=11 idx=005774 GeodesicLength=0.7069290817720445 rxn_smarts="[O:1]([C@@:2]1([H:8])[C@@:3]2([H:9])[C:4]([H:10])([H:11])[C:5]([H:12])([H:13])[C@@:6]12[H:14])[H:7]>>[O:1]([C:2]([C@@:3]1([H:9])[C:4]([H:10])([H:11])[C:5]([H:12])([H:13])[C:6]1)([H:8])[H:14])[H:7]"
O        1.22851132      -1.48446343       0.06509530
C        0.84046081      -0.48496389       0.96629907
C        0.23677747       0.80681369       0.44540259
C       -0.22037993       0.77339483      -1.01258428
C       -1.36299435      -0.15826379      -0.55647197
C       -0.98384365       0.02332280       0.89862602
H        1.89474128      -1.13386165      -0.52844535
H        1.64162998      -0.23923462       1.66479499
H        0.54758807       1.70967207       0.96456511
H        0.48959261       0.40156800      -1.75507879
H       -0.58693576       1.74483355      -1.34178903
H       -2.38545554       0.13553236      -0.79262826
H       -1.21336311      -1.20388202      -0.84495534
H       -0.12632920      -0.89046790       1.82716994
14
Frame=12 idx=005774 GeodesicLength=0.7711329714574471 rxn_smarts="[O:1]([C@@:2]1([H:8])[C@@:3]2([H:9])[C:4]([H:10])([H:11])[C:5]([H:12])([H:13])[C@@:6]12[H:14])[H:7]>>[O:1]([C:2]([C@@:3]1([H:9])[C:4]([H:10])([H:11])[C:5]([H:12])([H:13])[C:6]1)([H:8])[H:14])[H:7]"
O        1.22016442      -1.49140620       0.06475100
C        0.84500300      -0.48388277       0.96393586
C        0.23675244       0.80462814       0.44461981
C       -0.22212101       0.77820381      -1.01299117
C       -1.36465720      -0.15641075      -0.56207772
C       -0.97719995       0.00527299       0.89061132
H        1.90002968      -1.15532789      -0.52152261
H        1.65790395      -0.23486217       1.64745060
H        0.53221253       1.70743547       0.97284735
H        0.48860877       0.41009557      -1.75644354
H       -0.58936683       1.75107470      -1.33716407
H       -2.38825002       0.13478432      -0.79582790
H       -1.20852208      -1.19974146      -0.85725802
H       -0.13055770      -0.86986376       1.85906909
14
Frame=13 idx=005774 GeodesicLength=0.8353697694950213 rxn_smarts="[O:1]([C@@:2]1([H:8])[C@@:3]2([H:9])[C:4]([H:10])([H:11])[C:5]([H:12])([H:13])[C@@:6]12[H:14])[H:7]>>[O:1]([C:2]([C@@:3]1([H:9])[C:4]([H:10])([H:11])[C:5]([H:12])([H:13])[C:6]1)([H:8])[H:14])[H:7]"
O        1.21227504      -1.49821810       0.06421200
C        0.84973912      -0.48297696       0.96136257
C        0.23685467       0.80232848       0.44380946
C       -0.22397220       0.78301409      -1.01332337
C       -1.36629297      -0.15464690      -0.56748731
C       -0.97014185      -0.01304033       0.88245266
H        1.90565963      -1.17694127      -0.51431313
H        1.67375890      -0.23093250       1.63017773
H        0.51694474       1.70473564       0.98111230
H        0.48742794       0.41874551      -1.75785583
H       -0.59203513       1.75729949      -1.33228260
H       -2.39106777       0.13389669      -0.79861327
H       -1.20360034      -1.19550503      -0.86970611
H       -0.13554978      -0.84775882       1.89045489
14
Frame=14 idx=005774 GeodesicLength=0.899628719812931 rxn_smarts="[O:1]([C@@:2]1([H:8])[C@@:3]2([H:9])[C:4]([H:10])([H:11])[C:5]([H:12])([H:13])[C@@:6]12[H:14])[H:7]>>[O:1]([C:2]([C@@:3]1([H:9])[C:4]([H:10])([H:11])[C:5]([H:12])([H:13])[C:6]1)([H:8])[H:14])[H:7]"
O        1.20488944      -1.50487850       0.06342899
C        0.85466960      -0.48225984       0.95857366
C        0.23711204       0.79991096       0.44295911
C       -0.22594474       0.78781856      -1.01357814
C       -1.36790521      -0.15297402      -0.57266117
C       -0.96265652      -0.03156122       0.87416338
H        1.91170590      -1.19865751      -0.50678793
H        1.68918236      -0.22746336       1.61304132
H        0.50185602       1.70157411       0.98932379
H        0.48601622       0.42750836      -1.75933018
H       -0.59495364       1.76349801      -1.32713838
H       -2.39391220       0.13285858      -0.80094649
H       -1.19861257      -1.19117247      -0.88223984
H       -0.14144670      -0.82420167       1.92119187
14
Frame=15 idx=005774 GeodesicLength=0.963886858659624 rxn_smarts="[O:1]([C@@:2]1([H:8])[C@@:3]2([H:9])[C:4]([H:10])([H:11])[C:5]([H:12])([H:13])[C@@:6]12[H:14])[H:7]>>[O:1]([C:2]([C@@:3]1([H:9])[C:4]([H:10])([H:11])[C:5]([H:12])([H:13])[C:6]1)([H:8])[H:14])[H:7]"
O        1.19805424      -1.51136403       0.06234962
C        0.85979348      -0.48174336       0.95556310
C        0.23755654       0.79737475       0.44205562
C       -0.22805071       0.79261192      -1.01375269
C       -1.36949696      -0.15139393      -0.57756131
C       -0.95473293      -0.05023614       0.86576003
H        1.91824357      -1.22044373      -0.49891382
H        1.70416501      -0.22446673       1.59610542
H        0.48702104       1.69795192       0.99744582
H        0.48433851       0.43637632      -1.76088313
H       -0.59813717       1.76966234      -1.32172337
H       -2.39678705       0.13166029      -0.80278737
H       -1.19357447      -1.18674522      -0.89480023
H       -0.14839310      -0.79924440       1.95114232
14
Frame=16 idx=005774 GeodesicLength=1.0281264538066683 rxn_smarts="[O:1]([C@@:2]1([H:8])[C@@:3]2([H:9])[C:4]([H:10])([H:11])[C:5]([H:12])([H:13])[C@@:6]12[H:14])[H:7]>>[O:1]([C:2]([C@@:3]1([H:9])[C:4]([H:10])([H:11])[C:5]([H:12])([H:13])[C:6]1)([H:8])[H:14])[H:7]"
O        1.19181021      -1.51765423       0.06092234
C        0.86511512      -0.48143448       0.95232452
C        0.23821821       0.79472125       0.44108603
C       -0.23030033       0.79739033      -1.01384444
C       -1.37106940      -0.14990852      -0.58215142
C       -0.94636044      -0.06901119       0.85725865
H        1.92533447      -1.24227462      -0.49066330
H        1.71870395      -0.22195417       1.57943168
H        0.47250895       1.69387976       1.00544383
H        0.48236230       0.44534432      -1.76253011
H       -0.60159881       1.77578539      -1.31603081
H       -2.39969377       0.13029123      -0.80409931
H       -1.18850091      -1.18222548      -0.90732871
H       -0.15652955      -0.77294960       1.98018106
