14
Frame=0 idx=007959 GeodesicLength=0.0 rxn_smarts="[C:1]([C:2]([c:3]1[c:4]([H:13])[n:5]([H:14])[n:6][n:7]1)([H:11])[H:12])([H:8])([H:9])[H:10]>>[C:1]([C:2]([C-:3](/[C:4](=[N:5]/[H:14])[H:13])[N+:7]#[N:6])([H:11])[H:12])([H:8])([H:9])[H:10]"
C       -1.94282579       0.71464634       0.13456943
C       -1.06795590      -0.50669443      -0.14380568
C        0.37471786      -0.31222076       0.18561456
C        1.51422742      -0.26538782      -0.66375767
N        2.66463819      -0.06709621      -0.12958745
N        1.88373199       0.05706350       1.86716886
N        0.83838688      -0.11819017       1.42404067
H       -2.98635200       0.51423966      -0.11615496
H       -1.89973447       0.99069351       1.18999874
H       -1.60878098       1.57517365      -0.44799920
H       -1.46529046      -1.37369156       0.39237161
H       -1.12224311      -0.76403604      -1.20473733
H        1.35946847      -0.40295703      -1.73257708
H        3.45801187      -0.04154262      -0.75514453
14
Frame=1 idx=007959 GeodesicLength=0.02691741314333873 rxn_smarts="[C:1]([C:2]([c:3]1[c:4]([H:13])[n:5]([H:14])[n:6][n:7]1)([H:11])[H:12])([H:8])([H:9])[H:10]>>[C:1]([C:2]([C-:3](/[C:4](=[N:5]/[H:14])[H:13])[N+:7]#[N:6])([H:11])[H:12])([H:8])([H:9])[H:10]"
C       -1.94135506       0.71551958       0.13345625
C       -1.06818008      -0.50747609      -0.14285605
C        0.37514106      -0.31235705       0.18401544
C        1.51013275      -0.25520394      -0.66921936
N        2.66014754      -0.07201538      -0.12441405
N        1.88796597       0.05576131       1.86002631
N        0.83746158      -0.12914230       1.42457848
H       -2.98535530       0.51500538      -0.11519494
H       -1.89622072       0.99456732       1.18796956
H       -1.60777700       1.57410342      -0.45226093
H       -1.46355485      -1.37197523       0.39862248
H       -1.12495315      -0.76886560      -1.20265267
H        1.35976428      -0.40318156      -1.73697352
H        3.45678299      -0.03473984      -0.74509700
14
Frame=2 idx=007959 GeodesicLength=0.053892146729931575 rxn_smarts="[C:1]([C:2]([c:3]1[c:4]([H:13])[n:5]([H:14])[n:6][n:7]1)([H:11])[H:12])([H:8])([H:9])[H:10]>>[C:1]([C:2]([C-:3](/[C:4](=[N:5]/[H:14])[H:13])[N+:7]#[N:6])([H:11])[H:12])([H:8])([H:9])[H:10]"
C       -1.93874247       0.71717385       0.13140688
C       -1.06879349      -0.50893133      -0.14116500
C        0.37538884      -0.31459657       0.18305835
C        1.50601068      -0.24971202      -0.67391314
N        2.65557894      -0.08090177      -0.11908061
N        1.89240493       0.05102258       1.85338874
N        0.83649209      -0.14104508       1.42545706
H       -2.98344430       0.51757069      -0.11501500
H       -1.89129824       1.00051922       1.18463129
H       -1.60448760       1.57261883      -0.45852477
H       -1.46335634      -1.36970848       0.40664534
H       -1.12824245      -0.77562680      -1.19947842
H        1.35910445      -0.40272495      -1.74115155
H        3.45338497      -0.01565817      -0.73625916
14
Frame=3 idx=007959 GeodesicLength=0.08094930083697975 rxn_smarts="[C:1]([C:2]([c:3]1[c:4]([H:13])[n:5]([H:14])[n:6][n:7]1)([H:11])[H:12])([H:8])([H:9])[H:10]>>[C:1]([C:2]([C-:3](/[C:4](=[N:5]/[H:14])[H:13])[N+:7]#[N:6])([H:11])[H:12])([H:8])([H:9])[H:10]"
C       -1.93567940       0.71881301       0.12941933
C       -1.06950312      -0.51073954      -0.13950544
C        0.37561645      -0.31788698       0.18213085
C        1.50187955      -0.24557726      -0.67848653
N        2.64998540      -0.08208090      -0.11469804
N        1.89648317       0.04653935       1.84674548
N        0.83556497      -0.15422670       1.42629530
H       -2.98116761       0.52061681      -0.11478404
H       -1.88577033       1.00633744       1.18135507
H       -1.60038177       1.57099911      -0.46464454
H       -1.46363733      -1.36764275       0.41450022
H       -1.13170741      -0.78257513      -1.19633787
H        1.35827104      -0.40173219      -1.74543268
H        3.45004640      -0.00084427      -0.72655711
14
Frame=4 idx=007959 GeodesicLength=0.10807550605255892 rxn_smarts="[C:1]([C:2]([c:3]1[c:4]([H:13])[n:5]([H:14])[n:6][n:7]1)([H:11])[H:12])([H:8])([H:9])[H:10]>>[C:1]([C:2]([C-:3](/[C:4](=[N:5]/[H:14])[H:13])[N+:7]#[N:6])([H:11])[H:12])([H:8])([H:9])[H:10]"
C       -1.93175467       0.72101448       0.12684267
C       -1.07050554      -0.51298516      -0.13739516
C        0.37570798      -0.32275207       0.18160771
C        1.49767899      -0.24446062      -0.68259539
N        2.64401675      -0.08243725      -0.11043195
N        1.90069826       0.03882330       1.84060863
N        0.83456687      -0.16838814       1.42735662
H       -2.97820100       0.52502791      -0.11501770
H       -1.87910849       1.01351441       1.17723088
H       -1.59460403       1.56911628      -0.47202069
H       -1.46504239      -1.36517250       0.42340720
H       -1.13563918      -0.79069563      -1.19250927
H        1.35701332      -0.40159999      -1.74950071
H        3.44517314       0.02099498      -0.71758284
14
Frame=5 idx=007959 GeodesicLength=0.13542030787724593 rxn_smarts="[C:1]([C:2]([c:3]1[c:4]([H:13])[n:5]([H:14])[n:6][n:7]1)([H:11])[H:12])([H:8])([H:9])[H:10]>>[C:1]([C:2]([C-:3](/[C:4](=[N:5]/[H:14])[H:13])[N+:7]#[N:6])([H:11])[H:12])([H:8])([H:9])[H:10]"
C       -1.92615714       0.72428956       0.12433540
C       -1.07209346      -0.51560451      -0.13550398
C        0.37549872      -0.33080186       0.18118073
C        1.49337358      -0.24776893      -0.68638434
N        2.63638364      -0.07394059      -0.10686765
N        1.90406001       0.02914684       1.83478357
N        0.83335706      -0.18697781       1.42855108
H       -2.97388604       0.53252723      -0.11533563
H       -1.87027365       1.02133726       1.17323760
H       -1.58556318       1.56783012      -0.47902929
H       -1.46866132      -1.36250245       0.43169696
H       -1.14051641      -0.79866518      -1.18897355
H        1.35663832      -0.41071759      -1.75265835
H        3.43783987       0.05184789      -0.70903254
14
Frame=6 idx=007959 GeodesicLength=0.1626431558857648 rxn_smarts="[C:1]([C:2]([c:3]1[c:4]([H:13])[n:5]([H:14])[n:6][n:7]1)([H:11])[H:12])([H:8])([H:9])[H:10]>>[C:1]([C:2]([C-:3](/[C:4](=[N:5]/[H:14])[H:13])[N+:7]#[N:6])([H:11])[H:12])([H:8])([H:9])[H:10]"
C       -1.92210042       0.72629652       0.12161150
C       -1.07303591      -0.51803762      -0.13324329
C        0.37565219      -0.33583799       0.18069045
C        1.48917226      -0.24670174      -0.69040751
N        2.63013130      -0.07219250      -0.10286551
N        1.90816129       0.02124248       1.82877603
N        0.83245759      -0.20093507       1.42944113
H       -2.97080803       0.53669174      -0.11546596
H       -1.86321507       1.02864021       1.16879348
H       -1.57981156       1.56548216      -0.48686841
H       -1.46993124      -1.35999605       0.44089508
H       -1.14445526      -0.80715630      -1.18485497
H        1.35506316      -0.40819637      -1.75693619
H        3.43271970       0.07070053      -0.69956582
14
Frame=7 idx=007959 GeodesicLength=0.18984186251185547 rxn_smarts="[C:1]([C:2]([c:3]1[c:4]([H:13])[n:5]([H:14])[n:6][n:7]1)([H:11])[H:12])([H:8])([H:9])[H:10]>>[C:1]([C:2]([C-:3](/[C:4](=[N:5]/[H:14])[H:13])[N+:7]#[N:6])([H:11])[H:12])([H:8])([H:9])[H:10]"
C       -1.91856999       0.72782264       0.11882949
C       -1.07374933      -0.52041856      -0.13087029
C        0.37593944      -0.33986831       0.18017033
C        1.48499336      -0.24402471      -0.69447312
N        2.62433430      -0.07236441      -0.09881335
N        1.91240709       0.01420593       1.82273520
N        0.83167540      -0.21338942       1.43019436
H       -2.96816113       0.53966170      -0.11545746
H       -1.85669396       1.03571715       1.16417834
H       -1.57524272       1.56270420      -0.49498555
H       -1.47037325      -1.35755230       0.45032351
H       -1.14806005      -0.81578259      -1.18053232
H        1.35302009      -0.40146059      -1.76158914
H        3.42848076       0.08474927      -0.68971002
14
Frame=8 idx=007959 GeodesicLength=0.21706771674678083 rxn_smarts="[C:1]([C:2]([c:3]1[c:4]([H:13])[n:5]([H:14])[n:6][n:7]1)([H:11])[H:12])([H:8])([H:9])[H:10]>>[C:1]([C:2]([C-:3](/[C:4](=[N:5]/[H:14])[H:13])[N+:7]#[N:6])([H:11])[H:12])([H:8])([H:9])[H:10]"
C       -1.91538249       0.72897472       0.11593167
C       -1.07430700      -0.52284287      -0.12835094
C        0.37632097      -0.34328998       0.17968377
C        1.48079735      -0.24021166      -0.69850784
N        2.61882821      -0.07361746      -0.09475839
N        1.91674614       0.00772251       1.81671870
N        0.83097964      -0.22480757       1.43088651
H       -2.96580064       0.54176056      -0.11537208
H       -1.85047530       1.04273875       1.15930743
H       -1.57147377       1.55948363      -0.50348750
H       -1.47026492      -1.35514603       0.46004778
H       -1.15142110      -0.82468380      -1.17595463
H        1.35047441      -0.39097295      -1.76651210
H        3.42497849       0.09489216      -0.67963239
14
Frame=9 idx=007959 GeodesicLength=0.24438579941046695 rxn_smarts="[C:1]([C:2]([c:3]1[c:4]([H:13])[n:5]([H:14])[n:6][n:7]1)([H:11])[H:12])([H:8])([H:9])[H:10]>>[C:1]([C:2]([C-:3](/[C:4](=[N:5]/[H:14])[H:13])[N+:7]#[N:6])([H:11])[H:12])([H:8])([H:9])[H:10]"
C       -1.91211220       0.73002123       0.11268282
C       -1.07484888      -0.52549925      -0.12552521
C        0.37673015      -0.34687412       0.17938738
C        1.47655560      -0.23659624      -0.70235672
N        2.61336628      -0.07537048      -0.09075825
N        1.92129530       0.00046881       1.81085457
N        0.83033365      -0.23585989       1.43166046
H       -2.96338535       0.54367149      -0.11539303
H       -1.84399257       1.05027156       1.15383859
H       -1.56768880       1.55572965      -0.51286294
H       -1.47015375      -1.35260641       0.47045045
H       -1.15476466      -0.83431527      -1.17087305
H        1.34726415      -0.37742115      -1.77156140
H        3.42140110       0.10438008      -0.66954367
14
Frame=10 idx=007959 GeodesicLength=0.27183856336162615 rxn_smarts="[C:1]([C:2]([c:3]1[c:4]([H:13])[n:5]([H:14])[n:6][n:7]1)([H:11])[H:12])([H:8])([H:9])[H:10]>>[C:1]([C:2]([C-:3](/[C:4](=[N:5]/[H:14])[H:13])[N+:7]#[N:6])([H:11])[H:12])([H:8])([H:9])[H:10]"
C       -1.90855385       0.73105518       0.10898424
C       -1.07544371      -0.52849538      -0.12232506
C        0.37713510      -0.35101635       0.17934131
C        1.47223355      -0.23372040      -0.70597500
N        2.60781441      -0.07707330      -0.08684371
N        1.92606153      -0.00798473       1.80518818
N        0.82972047      -0.24693279       1.43257696
H       -2.96075074       0.54569499      -0.11558769
H       -1.83694974       1.05853372       1.14761213
H       -1.56350967       1.55135747      -0.52332200
H       -1.47029454      -1.34986870       0.48168803
H       -1.15820862      -0.84488743      -1.16517311
H        1.34327868      -0.36090557      -1.77664657
H        3.41746716       0.11424329      -0.65951771
14
Frame=11 idx=007959 GeodesicLength=0.2994805564951922 rxn_smarts="[C:1]([C:2]([c:3]1[c:4]([H:13])[n:5]([H:14])[n:6][n:7]1)([H:11])[H:12])([H:8])([H:9])[H:10]>>[C:1]([C:2]([C-:3](/[C:4](=[N:5]/[H:14])[H:13])[N+:7]#[N:6])([H:11])[H:12])([H:8])([H:9])[H:10]"
C       -1.90427833       0.73229592       0.10475690
C       -1.07622693      -0.53198202      -0.11872007
C        0.37747396      -0.35650167       0.17958892
C        1.46781342      -0.23276827      -0.70931963
N        2.60190466      -0.07780760      -0.08304237
N        1.93090780      -0.01802892       1.79974884
N        0.82910855      -0.25897131       1.43368845
H       -2.95755054       0.54850693      -0.11600350
H       -1.82874144       1.06779953       1.14049774
H       -1.55815995       1.54635519      -0.53501505
H       -1.47119008      -1.34684774       0.49383522
H       -1.16200979      -0.85657591      -1.15879134
H        1.33848068      -0.34244829      -1.78159533
H        3.41246799       0.12697417      -0.64962879
14
Frame=12 idx=007959 GeodesicLength=0.3274353925049995 rxn_smarts="[C:1]([C:2]([c:3]1[c:4]([H:13])[n:5]([H:14])[n:6][n:7]1)([H:11])[H:12])([H:8])([H:9])[H:10]>>[C:1]([C:2]([C-:3](/[C:4](=[N:5]/[H:14])[H:13])[N+:7]#[N:6])([H:11])[H:12])([H:8])([H:9])[H:10]"
C       -1.89869562       0.73401943       0.09987499
C       -1.07737333      -0.53617566      -0.11464745
C        0.37767128      -0.36438335       0.18018318
C        1.46328214      -0.23537724      -0.71235935
N        2.59523920      -0.07607128      -0.07935956
N        1.93567841      -0.03032523       1.79459340
N        0.82845661      -0.27315918       1.43504979
H       -2.95330012       0.55299449      -0.11673448
H       -1.81854048       1.07843296       1.13229588
H       -1.55058618       1.54067278      -0.54817486
H       -1.47348615      -1.34342189       0.50704851
H       -1.16653667      -0.86967041      -1.15160723
H        1.33276017      -0.32318125      -1.78620315
H        3.40543074       0.14564584      -0.63995967
14
Frame=13 idx=007959 GeodesicLength=0.35571225518516775 rxn_smarts="[C:1]([C:2]([c:3]1[c:4]([H:13])[n:5]([H:14])[n:6][n:7]1)([H:11])[H:12])([H:8])([H:9])[H:10]>>[C:1]([C:2]([C-:3](/[C:4](=[N:5]/[H:14])[H:13])[N+:7]#[N:6])([H:11])[H:12])([H:8])([H:9])[H:10]"
C       -1.89213809       0.73595661       0.09436583
C       -1.07873778      -0.54096249      -0.11013015
C        0.37780560      -0.37397603       0.18105501
C        1.45871653      -0.24071911      -0.71519544
N        2.58801822      -0.07292789      -0.07574841
N        1.94048731      -0.04416259       1.78961630
N        0.82780928      -0.28861948       1.43659741
H       -2.94825430       0.55849651      -0.11774978
H       -1.80677736       1.09011467       1.12302347
H       -1.54148154       1.53418365      -0.56271699
H       -1.47666655      -1.33963207       0.52127307
H       -1.17157743      -0.88403436      -1.14363372
H        1.32593480      -0.30132720      -1.79036101
H        3.39686131       0.16760978      -0.63039558
14
Frame=14 idx=007959 GeodesicLength=0.3844774653360778 rxn_smarts="[C:1]([C:2]([c:3]1[c:4]([H:13])[n:5]([H:14])[n:6][n:7]1)([H:11])[H:12])([H:8])([H:9])[H:10]>>[C:1]([C:2]([C-:3](/[C:4](=[N:5]/[H:14])[H:13])[N+:7]#[N:6])([H:11])[H:12])([H:8])([H:9])[H:10]"
C       -1.88403726       0.73844199       0.08802119
C       -1.08044386      -0.54643161      -0.10506479
C        0.37782557      -0.38608070       0.18224863
C        1.45412081      -0.25012219      -0.71782884
N        2.57974039      -0.06679091      -0.07223994
N        1.94552955      -0.06165880       1.78487755
N        0.82713874      -0.30618946       1.43836628
H       -2.94192509       0.56587118      -0.11918087
H       -1.79261540       1.10336715       1.11233813
H       -1.52992621       1.52683046      -0.57904427
H       -1.48122690      -1.33518512       0.53677113
H       -1.17746835      -0.89992484      -1.13465837
H        1.31796987      -0.27902014      -1.79364382
H        3.38531813       0.19689299      -0.62096201
14
Frame=15 idx=007959 GeodesicLength=0.41340408451631516 rxn_smarts="[C:1]([C:2]([c:3]1[c:4]([H:13])[n:5]([H:14])[n:6][n:7]1)([H:11])[H:12])([H:8])([H:9])[H:10]>>[C:1]([C:2]([C-:3](/[C:4](=[N:5]/[H:14])[H:13])[N+:7]#[N:6])([H:11])[H:12])([H:8])([H:9])[H:10]"
C       -1.87618966       0.74068961       0.08131316
C       -1.08199122      -0.55174403      -0.09977957
C        0.37795430      -0.39740856       0.18343529
C        1.44946458      -0.25812906      -0.72060292
N        2.57156442      -0.06148733      -0.06882561
N        1.95137756      -0.08128962       1.78006722
N        0.82656030      -0.32241174       1.44007404
H       -2.93579531       0.57257393      -0.12064972
H       -1.77847059       1.11688654       1.10091446
H       -1.51917760       1.51885600      -0.59616385
H       -1.48518271      -1.33031451       0.55275366
H       -1.18320666      -0.91606288      -1.12518525
H        1.30952205      -0.25506500      -1.79611185
H        3.37357055       0.22490665      -0.61123907
14
Frame=16 idx=007959 GeodesicLength=0.44230126554308735 rxn_smarts="[C:1]([C:2]([c:3]1[c:4]([H:13])[n:5]([H:14])[n:6][n:7]1)([H:11])[H:12])([H:8])([H:9])[H:10]>>[C:1]([C:2]([C-:3](/[C:4](=[N:5]/[H:14])[H:13])[N+:7]#[N:6])([H:11])[H:12])([H:8])([H:9])[H:10]"
C       -1.86934739       0.74242173       0.07457135
C       -1.08321733      -0.55655493      -0.09449367
C        0.37824862      -0.40673714       0.18446905
C        1.44471142      -0.26283218      -0.72362157
N        2.56406907      -0.05845456      -0.06550681
N        1.95799258      -0.10169185       1.77499299
N        0.82610202      -0.33614216       1.44159611
H       -2.93049354       0.57770188      -0.12196246
H       -1.76544131       1.12997495       1.08924931
H       -1.51048097       1.51054551      -0.61334248
H       -1.48784539      -1.32522393       0.56866558
H       -1.18838907      -0.93174300      -1.11557144
H        1.30104132      -0.22954499      -1.79794695
H        3.36304998       0.24828068      -0.60109900
