12
Frame=0 idx=010749 GeodesicLength=0.0 rxn_smarts="[N:1]([c:2]1[c:3]([H:10])[o:4][n:5][c:6]1[N:7]([H:11])[H:12])([H:8])[H:9]>>[N:1]([C:2]([C:3](=[O:4])[H:10])=[C:6]1[N-:5][N+:7]1([H:11])[H:12])([H:8])[H:9]"
N        0.16966681       1.71986236       0.02621549
C        0.46003316       0.33500518       0.01399268
C        1.70496364      -0.34653580       0.02916969
O        1.73903721      -1.58353277       0.01443938
N       -0.47948440      -1.91722238      -0.03368508
C       -0.50420373      -0.64567955      -0.01769122
N       -1.90787439      -0.79147276      -0.04810882
H        0.48440827       2.19045329       0.86108080
H        0.51484331       2.21145237      -0.78415131
H        2.64249433       0.23454165       0.05330484
H       -2.39431971      -0.69254517      -0.92135425
H       -2.42956447      -0.71432645       0.80678784
12
Frame=1 idx=010749 GeodesicLength=0.03207184136178562 rxn_smarts="[N:1]([c:2]1[c:3]([H:10])[o:4][n:5][c:6]1[N:7]([H:11])[H:12])([H:8])[H:9]>>[N:1]([C:2]([C:3](=[O:4])[H:10])=[C:6]1[N-:5][N+:7]1([H:11])[H:12])([H:8])[H:9]"
N        0.16784829       1.72005280       0.01997720
C        0.46137881       0.33611801       0.02008453
C        1.70486469      -0.34548348       0.01165610
O        1.72910184      -1.58534914       0.00539526
N       -0.47305446      -1.91488684      -0.02140068
C       -0.50589405      -0.64304340       0.02097779
N       -1.90669883      -0.78853468      -0.04716127
H        0.47320767       2.19436103       0.85637903
H        0.52437349       2.20754609      -0.78795492
H        2.64395588       0.23105010       0.05041027
H       -2.37345635      -0.66404828      -0.92806402
H       -2.44562698      -0.74778220       0.79970071
12
Frame=2 idx=010749 GeodesicLength=0.06432452628610474 rxn_smarts="[N:1]([c:2]1[c:3]([H:10])[o:4][n:5][c:6]1[N:7]([H:11])[H:12])([H:8])[H:9]>>[N:1]([C:2]([C:3](=[O:4])[H:10])=[C:6]1[N-:5][N+:7]1([H:11])[H:12])([H:8])[H:9]"
N        0.16567902       1.71973154       0.01061070
C        0.46251240       0.33687138       0.02593199
C        1.70438502      -0.34457146      -0.00016986
O        1.71909646      -1.58715589      -0.00768474
N       -0.46648811      -1.91215578      -0.01502673
C       -0.50714676      -0.64069423       0.05642137
N       -1.90470711      -0.78494293      -0.04422182
H        0.45791809       2.19886480       0.84909762
H        0.53652015       2.20235262      -0.79379605
H        2.64494044       0.22714822       0.05375825
H       -2.35489908      -0.63242432      -0.92943034
H       -2.45781053      -0.78302395       0.79450963
12
Frame=3 idx=010749 GeodesicLength=0.09666034803532869 rxn_smarts="[N:1]([c:2]1[c:3]([H:10])[o:4][n:5][c:6]1[N:7]([H:11])[H:12])([H:8])[H:9]>>[N:1]([C:2]([C:3](=[O:4])[H:10])=[C:6]1[N-:5][N+:7]1([H:11])[H:12])([H:8])[H:9]"
N        0.16325005       1.71884465      -0.00082422
C        0.46360504       0.33727867       0.03034376
C        1.70391638      -0.34374516      -0.00930676
O        1.70931077      -1.58898374      -0.01822216
N       -0.45976360      -1.90919883      -0.01438467
C       -0.50788988      -0.63875144       0.08689219
N       -1.90232814      -0.78074935      -0.03988957
H        0.43928081       2.20273076       0.84056856
H        0.55061679       2.19705542      -0.80005983
H        2.64573333       0.22305959       0.05993765
H       -2.33970462      -0.59849523      -0.92607287
H       -2.46602692      -0.81904534       0.79101791
12
Frame=4 idx=010749 GeodesicLength=0.12876252226078078 rxn_smarts="[N:1]([c:2]1[c:3]([H:10])[o:4][n:5][c:6]1[N:7]([H:11])[H:12])([H:8])[H:9]>>[N:1]([C:2]([C:3](=[O:4])[H:10])=[C:6]1[N-:5][N+:7]1([H:11])[H:12])([H:8])[H:9]"
N        0.16067431       1.71766821      -0.01091102
C        0.46463348       0.33751916       0.03392446
C        1.70328770      -0.34301257      -0.01938271
O        1.69954683      -1.59088024      -0.02535198
N       -0.45311743      -1.90619185      -0.01057589
C       -0.50840375      -0.63685603       0.11465239
N       -1.89957487      -0.77621441      -0.03629882
H        0.42035285       2.20511145       0.83377371
H        0.56413124       2.19290876      -0.80393354
H        2.64640275       0.21891898       0.06157934
H       -2.32464266      -0.56736190      -0.92276457
H       -2.47329045      -0.85160956       0.78528861
12
Frame=5 idx=010749 GeodesicLength=0.16081530204982133 rxn_smarts="[N:1]([c:2]1[c:3]([H:10])[o:4][n:5][c:6]1[N:7]([H:11])[H:12])([H:8])[H:9]>>[N:1]([C:2]([C:3](=[O:4])[H:10])=[C:6]1[N-:5][N+:7]1([H:11])[H:12])([H:8])[H:9]"
N        0.15800561       1.71626070      -0.02060952
C        0.46562560       0.33764806       0.03725862
C        1.70253763      -0.34235262      -0.02894447
O        1.68976717      -1.59277976      -0.03299561
N       -0.44650881      -1.90325117      -0.00435996
C       -0.50872929      -0.63496286       0.14046618
N       -1.89652462      -0.77146253      -0.03289972
H        0.40047766       2.20679009       0.82754121
H        0.57781881       2.18926117      -0.80644938
H        2.64700451       0.21465058       0.06183868
H       -2.30979580      -0.53821687      -0.91904070
H       -2.47967847      -0.88158481       0.77819467
12
Frame=6 idx=010749 GeodesicLength=0.19289820335499847 rxn_smarts="[N:1]([c:2]1[c:3]([H:10])[o:4][n:5][c:6]1[N:7]([H:11])[H:12])([H:8])[H:9]>>[N:1]([C:2]([C:3](=[O:4])[H:10])=[C:6]1[N-:5][N+:7]1([H:11])[H:12])([H:8])[H:9]"
N        0.15530034       1.71461661      -0.03058653
C        0.46663366       0.33767626       0.04031274
C        1.70176534      -0.34176553      -0.03757004
O        1.68002890      -1.59468886      -0.04076764
N       -0.43992441      -1.90031951       0.00197386
C       -0.50886236      -0.63310993       0.16427896
N       -1.89329878      -0.76653233      -0.02925186
H        0.37937274       2.20804637       0.82108008
H        0.59202472       2.18584077      -0.80823694
H        2.64758621       0.21025155       0.06216374
H       -2.29583429      -0.50970146      -0.91399856
H       -2.48479207      -0.91031394       0.77060220
12
Frame=7 idx=010749 GeodesicLength=0.22509831936919034 rxn_smarts="[N:1]([c:2]1[c:3]([H:10])[o:4][n:5][c:6]1[N:7]([H:11])[H:12])([H:8])[H:9]>>[N:1]([C:2]([C:3](=[O:4])[H:10])=[C:6]1[N-:5][N+:7]1([H:11])[H:12])([H:8])[H:9]"
N        0.15258542       1.71268435      -0.04113090
C        0.46770598       0.33758614       0.04325311
C        1.70106255      -0.34125703      -0.04512006
O        1.67044240      -1.59662165      -0.04785528
N       -0.43336609      -1.89732773       0.00680849
C       -0.50879059      -0.63138460       0.18623750
N       -1.88999078      -0.76139384      -0.02512279
H        0.35712619       2.20908697       0.81386079
H        0.60664181       2.18236619      -0.80973892
H        2.64819484       0.20576654       0.06303573
H       -2.28310076      -0.48062723      -0.90702299
H       -2.48851098      -0.93887811       0.76279531
12
Frame=8 idx=010749 GeodesicLength=0.25744710392859005 rxn_smarts="[N:1]([c:2]1[c:3]([H:10])[o:4][n:5][c:6]1[N:7]([H:11])[H:12])([H:8])[H:9]>>[N:1]([C:2]([C:3](=[O:4])[H:10])=[C:6]1[N-:5][N+:7]1([H:11])[H:12])([H:8])[H:9]"
N        0.14986121       1.71046884      -0.05210213
C        0.46885502       0.33740295       0.04627071
C        1.70043197      -0.34081047      -0.05181015
O        1.66095733      -1.59855776      -0.05515833
N       -0.42683030      -1.89433282       0.01111855
C       -0.50852747      -0.62976738       0.20689095
N       -1.88658282      -0.75610180      -0.02062885
H        0.33374740       2.20993712       0.80593454
H        0.62159097       2.17885058      -0.81080159
H        2.64886014       0.20115984       0.06435420
H       -2.27114330      -0.45137981      -0.89853762
H       -2.49122014      -0.96686930       0.75446973
12
Frame=9 idx=010749 GeodesicLength=0.2900504866880779 rxn_smarts="[N:1]([c:2]1[c:3]([H:10])[o:4][n:5][c:6]1[N:7]([H:11])[H:12])([H:8])[H:9]>>[N:1]([C:2]([C:3](=[O:4])[H:10])=[C:6]1[N-:5][N+:7]1([H:11])[H:12])([H:8])[H:9]"
N        0.14713909       1.70791700      -0.06381658
C        0.47011758       0.33713104       0.04947107
C        1.69993743      -0.34041184      -0.05748416
O        1.65156102      -1.60047287      -0.06342380
N       -0.42030906      -1.89132454       0.01466283
C       -0.50803603      -0.62829952       0.22649491
N       -1.88307737      -0.75065710      -0.01559244
H        0.30877498       2.21068723       0.79691128
H        0.63717281       2.17518337      -0.81152984
H        2.64962898       0.19636283       0.06680732
H       -2.25995926      -0.42159959      -0.88823590
H       -2.49295018      -0.99451599       0.74573530
12
Frame=10 idx=010749 GeodesicLength=0.3228204870242032 rxn_smarts="[N:1]([c:2]1[c:3]([H:10])[o:4][n:5][c:6]1[N:7]([H:11])[H:12])([H:8])[H:9]>>[N:1]([C:2]([C:3](=[O:4])[H:10])=[C:6]1[N-:5][N+:7]1([H:11])[H:12])([H:8])[H:9]"
N        0.14444021       1.70508060      -0.07574919
C        0.47147874       0.33679047       0.05281085
C        1.69951924      -0.34007375      -0.06269693
O        1.64226052      -1.60238575      -0.07158335
N       -0.41381347      -1.88833573       0.01804010
C       -0.50737806      -0.62692690       0.24520600
N       -1.87948885      -0.74509564      -0.01032181
H        0.28292863       2.21116563       0.78721288
H        0.65281518       2.17156782      -0.81161990
H        2.65047864       0.19145615       0.06918982
H       -2.24927428      -0.39176684      -0.87670233
H       -2.49396648      -1.02147604       0.73621386
12
Frame=11 idx=010749 GeodesicLength=0.3557278971702982 rxn_smarts="[N:1]([c:2]1[c:3]([H:10])[o:4][n:5][c:6]1[N:7]([H:11])[H:12])([H:8])[H:9]>>[N:1]([C:2]([C:3](=[O:4])[H:10])=[C:6]1[N-:5][N+:7]1([H:11])[H:12])([H:8])[H:9]"
N        0.14178621       1.70195787      -0.08778247
C        0.47293954       0.33636999       0.05623203
C        1.69918550      -0.33980724      -0.06753848
O        1.63315301      -1.60432428      -0.07862332
N       -0.40736565      -1.88532214       0.02067063
C       -0.50658012      -0.62567779       0.26297778
N       -1.87587613      -0.73939768      -0.00483323
H        0.25669768       2.21133175       0.77684800
H        0.66815335       2.16798202      -0.81120403
H        2.65139944       0.18654210       0.07120579
H       -2.23924022      -0.36157274      -0.86378075
H       -2.49425262      -1.04808186       0.72582805
12
Frame=12 idx=010749 GeodesicLength=0.388866742597772 rxn_smarts="[N:1]([c:2]1[c:3]([H:10])[o:4][n:5][c:6]1[N:7]([H:11])[H:12])([H:8])[H:9]>>[N:1]([C:2]([C:3](=[O:4])[H:10])=[C:6]1[N-:5][N+:7]1([H:11])[H:12])([H:8])[H:9]"
N        0.13917460       1.69853853      -0.10006119
C        0.47451199       0.33590014       0.05986142
C        1.69891751      -0.33960616      -0.07202400
O        1.62409019      -1.60625820      -0.08606070
N       -0.40093500      -1.88238007       0.02370652
C       -0.50562416      -0.62450090       0.28023108
N       -1.87215076      -0.73363837       0.00083705
H        0.22923441       2.21115043       0.76574480
H        0.68379112       2.16455227      -0.80986836
H        2.65244212       0.18149570       0.07292533
H       -2.22939844      -0.33155125      -0.84984648
H       -2.49405358      -1.07370211       0.71455453
12
Frame=13 idx=010749 GeodesicLength=0.42219020147965547 rxn_smarts="[N:1]([c:2]1[c:3]([H:10])[o:4][n:5][c:6]1[N:7]([H:11])[H:12])([H:8])[H:9]>>[N:1]([C:2]([C:3](=[O:4])[H:10])=[C:6]1[N-:5][N+:7]1([H:11])[H:12])([H:8])[H:9]"
N        0.13663070       1.69483186      -0.11242845
C        0.47619292       0.33536744       0.06360584
C        1.69871925      -0.33948475      -0.07626563
O        1.61518539      -1.60822631      -0.09272121
N       -0.39454386      -1.87945813       0.02651326
C       -0.50454185      -0.62341792       0.29684633
N       -1.86837977      -0.72778236       0.00666010
H        0.20115258       2.21056543       0.75394848
H        0.69927282       2.16126621      -0.80777291
H        2.65358809       0.17643091       0.07403859
H       -2.21995385      -0.30140293      -0.83474076
H       -2.49332241      -1.09868944       0.70231636
12
Frame=14 idx=010749 GeodesicLength=0.4556324548659724 rxn_smarts="[N:1]([c:2]1[c:3]([H:10])[o:4][n:5][c:6]1[N:7]([H:11])[H:12])([H:8])[H:9]>>[N:1]([C:2]([C:3](=[O:4])[H:10])=[C:6]1[N-:5][N+:7]1([H:11])[H:12])([H:8])[H:9]"
N        0.13416148       1.69087640      -0.12470306
C        0.47796126       0.33477406       0.06736516
C        1.69856726      -0.33943904      -0.08040802
O        1.60647403      -1.61024342      -0.09822288
N       -0.38820175      -1.87655649       0.02911556
C       -0.50336733      -0.62241245       0.31282505
N       -1.86458797      -0.72184759       0.01255069
H        0.17293112       2.20951715       0.74161891
H        0.71426831       2.15816562      -0.80498405
H        2.65479986       0.17141322       0.07439223
H       -2.21090219      -0.27126067      -0.81859278
H       -2.49210407      -1.12298679       0.68904319
12
Frame=15 idx=010749 GeodesicLength=0.4892999860438932 rxn_smarts="[N:1]([c:2]1[c:3]([H:10])[o:4][n:5][c:6]1[N:7]([H:11])[H:12])([H:8])[H:9]>>[N:1]([C:2]([C:3](=[O:4])[H:10])=[C:6]1[N-:5][N+:7]1([H:11])[H:12])([H:8])[H:9]"
N        0.13178275       1.68663781      -0.13712073
C        0.47984216       0.33413498       0.07123331
C        1.69846570      -0.33947765      -0.08439631
O        1.59785545      -1.61229579      -0.10355602
N       -0.38188333      -1.87373567       0.03206337
C       -0.50206879      -0.62146114       0.32840400
N       -1.86070944      -0.71587105       0.01853887
H        0.14369363       2.20796034       0.72852367
H        0.72938191       2.15535194      -0.80111499
H        2.65613537       0.16633373       0.07408969
H       -2.20200522      -0.24133229      -0.80152289
H       -2.49049020      -1.14624522       0.67485802
12
Frame=16 idx=010749 GeodesicLength=0.5231490318593037 rxn_smarts="[N:1]([c:2]1[c:3]([H:10])[o:4][n:5][c:6]1[N:7]([H:11])[H:12])([H:8])[H:9]>>[N:1]([C:2]([C:3](=[O:4])[H:10])=[C:6]1[N-:5][N+:7]1([H:11])[H:12])([H:8])[H:9]"
N        0.12951025       1.68212177      -0.14963686
C        0.48182729       0.33343471       0.07509451
C        1.69844033      -0.33959473      -0.08822664
O        1.58943706      -1.61440043      -0.10808540
N       -0.37560818      -1.87093572       0.03470030
C       -0.50065817      -0.62060111       0.34344441
N       -1.85680947      -0.70981889       0.02467460
H        0.11398398       2.20587851       0.71462762
H        0.74422275       2.15275292      -0.79646705
H        2.65755934       0.16127059       0.07335059
H       -2.19351598      -0.21132369      -0.78323565
H       -2.48838920      -1.16878392       0.65975958
