12
Frame=0 idx=004917 GeodesicLength=0.0 rxn_smarts="[O:1]=[C:2]1[C:3]([H:7])([H:8])[C:4]([H:9])([H:10])[O:5][C:6]1([H:11])[H:12]>>[C:4](=[O:5])([H:9])[H:10].[O:1]1[C:2](=[C:3]([H:7])[H:8])[C:6]1([H:11])[H:12]"
O        1.08787818       1.80631734       0.99195968
C        0.28384390       1.11954042       0.29004382
C       -0.99700444       1.23508678      -0.12953758
C       -0.57929053      -1.64781793      -0.15907884
O        0.40372459      -1.31195797      -0.80162686
C        1.25374145       0.04185620       0.04577899
H       -1.39435329       0.58896809      -0.89949978
H       -1.59396093       2.08142481       0.18016652
H       -0.69736478      -1.38340854       0.89556729
H       -1.35100711      -2.25133824      -0.64609800
H        2.02026176       0.22710958      -0.69538781
H        1.56353115      -0.50578049       0.92771260
12
Frame=1 idx=004917 GeodesicLength=0.07306389273081755 rxn_smarts="[O:1]=[C:2]1[C:3]([H:7])([H:8])[C:4]([H:9])([H:10])[O:5][C:6]1([H:11])[H:12]>>[C:4](=[O:5])([H:9])[H:10].[O:1]1[C:2](=[C:3]([H:7])[H:8])[C:6]1([H:11])[H:12]"
O        1.08309599       1.80074505       0.98694960
C        0.29123554       1.12221406       0.26485791
C       -1.00388406       1.20239754      -0.12787498
C       -0.60205231      -1.61732692      -0.15130442
O        0.40994489      -1.32999800      -0.78183033
C        1.26941191       0.04787654       0.04332387
H       -1.36684267       0.62259755      -0.96499058
H       -1.62291777       2.01494771       0.22656707
H       -0.70192458      -1.37970716       0.91193795
H       -1.37721653      -2.21598702      -0.63886216
H        2.04092330       0.23358312      -0.69308755
H        1.58022630      -0.50134248       0.92431363
12
Frame=2 idx=004917 GeodesicLength=0.14653673689660965 rxn_smarts="[O:1]=[C:2]1[C:3]([H:7])([H:8])[C:4]([H:9])([H:10])[O:5][C:6]1([H:11])[H:12]>>[C:4](=[O:5])([H:9])[H:10].[O:1]1[C:2](=[C:3]([H:7])[H:8])[C:6]1([H:11])[H:12]"
O        1.07726435       1.79416317       0.98359527
C        0.29750782       1.12412739       0.24186027
C       -1.00889358       1.17101859      -0.12934132
C       -0.62271534      -1.58819645      -0.14390659
O        0.41481248      -1.34700801      -0.76216569
C        1.28433710       0.05423572       0.04073778
H       -1.34442492       0.65523095      -1.01855865
H       -1.64656280       1.95064651       0.26454663
H       -0.70782770      -1.37697426       0.92662375
H       -1.40130024      -2.18165615      -0.63249080
H        2.06055641       0.24178361      -0.69081401
H        1.59724643      -0.49737107       0.91991335
12
Frame=3 idx=004917 GeodesicLength=0.22019828392004492 rxn_smarts="[O:1]=[C:2]1[C:3]([H:7])([H:8])[C:4]([H:9])([H:10])[O:5][C:6]1([H:11])[H:12]>>[C:4](=[O:5])([H:9])[H:10].[O:1]1[C:2](=[C:3]([H:7])[H:8])[C:6]1([H:11])[H:12]"
O        1.07069210       1.78664497       0.98146061
C        0.30285363       1.12527443       0.22084550
C       -1.01255407       1.14086093      -0.13286802
C       -0.64152519      -1.56046927      -0.13667257
O        0.41860990      -1.36327859      -0.74244482
C        1.29859608       0.06080640       0.03798981
H       -1.32627512       0.68694972      -1.06320990
H       -1.66575785       1.88896397       0.29577558
H       -0.71511672      -1.37490581       0.93993750
H       -1.42332272      -2.14853969      -0.62678324
H        2.07921331       0.25155498      -0.68859742
H        1.61458666      -0.49386205       0.91456695
12
Frame=4 idx=004917 GeodesicLength=0.29403062424685195 rxn_smarts="[O:1]=[C:2]1[C:3]([H:7])([H:8])[C:4]([H:9])([H:10])[O:5][C:6]1([H:11])[H:12]>>[C:4](=[O:5])([H:9])[H:10].[O:1]1[C:2](=[C:3]([H:7])[H:8])[C:6]1([H:11])[H:12]"
O        1.06367886       1.77829716       0.98036844
C        0.30746791       1.12572994       0.20166878
C       -1.01516929       1.11190682      -0.13806760
C       -0.65875387      -1.53414957      -0.12937582
O        0.42155745      -1.37907252      -0.72246022
C        1.31237316       0.06753258       0.03503465
H       -1.31121398       0.71783021      -1.10129521
H       -1.68174852       1.82936629       0.32183692
H       -0.72390096      -1.37305733       0.95224766
H       -1.44374630      -2.11634053      -0.62161830
H        2.09701587       0.26272302      -0.68661593
H        1.63243967      -0.49076608       0.90827663
12
Frame=5 idx=004917 GeodesicLength=0.3681087650224958 rxn_smarts="[O:1]=[C:2]1[C:3]([H:7])([H:8])[C:4]([H:9])([H:10])[O:5][C:6]1([H:11])[H:12]>>[C:4](=[O:5])([H:9])[H:10].[O:1]1[C:2](=[C:3]([H:7])[H:8])[C:6]1([H:11])[H:12]"
O        1.05632419       1.76912222       0.98019351
C        0.31145839       1.12554646       0.18412322
C       -1.01700305       1.08396734      -0.14455614
C       -0.67468116      -1.50913172      -0.12191222
O        0.42379771      -1.39459574      -0.70198378
C        1.32573172       0.07437592       0.03180891
H       -1.29839230       0.74830586      -1.13436882
H       -1.69518614       1.77159407       0.34367440
H       -0.73412999      -1.37130292       0.96382593
H       -1.46276097      -2.08506888      -0.61685322
H        2.11398330       0.27521095      -0.68497020
H        1.65085829      -0.48802357       0.90101840
12
Frame=6 idx=004917 GeodesicLength=0.4423607102491029 rxn_smarts="[O:1]=[C:2]1[C:3]([H:7])([H:8])[C:4]([H:9])([H:10])[O:5][C:6]1([H:11])[H:12]>>[C:4](=[O:5])([H:9])[H:10].[O:1]1[C:2](=[C:3]([H:7])[H:8])[C:6]1([H:11])[H:12]"
O        1.04874775       1.75928315       0.98046007
C        0.31502007       1.12485696       0.16765123
C       -1.01821425       1.05693701      -0.15203001
C       -0.68943680      -1.48533256      -0.11437023
O        0.42548539      -1.40990693      -0.68103367
C        1.33873675       0.08123845       0.02835402
H       -1.28813556       0.77840633      -1.16296764
H       -1.70624175       1.71573609       0.36209275
H       -0.74570968      -1.36956536       0.97470833
H       -1.48029523      -2.05481481      -0.61264598
H        2.13050651       0.28870991      -0.68328129
H        1.66953680      -0.48554824       0.89306242
12
Frame=7 idx=004917 GeodesicLength=0.5167824575823661 rxn_smarts="[O:1]=[C:2]1[C:3]([H:7])([H:8])[C:4]([H:9])([H:10])[O:5][C:6]1([H:11])[H:12]>>[C:4](=[O:5])([H:9])[H:10].[O:1]1[C:2](=[C:3]([H:7])[H:8])[C:6]1([H:11])[H:12]"
O        1.04081972       1.74837519       0.98173760
C        0.31807351       1.12357772       0.15258329
C       -1.01889519       1.03070084      -0.16045106
C       -0.70322406      -1.46268536      -0.10649639
O        0.42661331      -1.42513936      -0.65928555
C        1.35137387       0.08818124       0.02448189
H       -1.27896620       0.80852482      -1.18818560
H       -1.71556465       1.66147517       0.37716193
H       -0.75860206      -1.36768454       0.98521266
H       -1.49663380      -2.02545978      -0.60858629
H        2.14612878       0.30354347      -0.68208576
H        1.68887677      -0.48340941       0.88391328
12
Frame=8 idx=004917 GeodesicLength=0.5915183191941379 rxn_smarts="[O:1]=[C:2]1[C:3]([H:7])([H:8])[C:4]([H:9])([H:10])[O:5][C:6]1([H:11])[H:12]>>[C:4](=[O:5])([H:9])[H:10].[O:1]1[C:2](=[C:3]([H:7])[H:8])[C:6]1([H:11])[H:12]"
O        1.03273094       1.73660346       0.98365331
C        0.32079004       1.12182529       0.13849655
C       -1.01920383       1.00517116      -0.16966876
C       -0.71618068      -1.44112640      -0.09840958
O        0.42732501      -1.44032485      -0.63680407
C        1.36378705       0.09513206       0.02024657
H       -1.27135736       0.83867744      -1.21028000
H       -1.72334434       1.60886246       0.38947293
H       -0.77279210      -1.36561714       0.99538390
H       -1.51179455      -1.99712665      -0.60488649
H        2.16132579       0.31943085      -0.68107702
H        1.70871404      -0.48150767       0.87387266
12
Frame=9 idx=004917 GeodesicLength=0.6663530949347772 rxn_smarts="[O:1]=[C:2]1[C:3]([H:7])([H:8])[C:4]([H:9])([H:10])[O:5][C:6]1([H:11])[H:12]>>[C:4](=[O:5])([H:9])[H:10].[O:1]1[C:2](=[C:3]([H:7])[H:8])[C:6]1([H:11])[H:12]"
O        1.02454106       1.72409586       0.98582857
C        0.32326209       1.11966622       0.12508162
C       -1.01913805       0.98031062      -0.17955911
C       -0.72835865      -1.42059602      -0.09019028
O        0.42768632      -1.45545574      -0.61355092
C        1.37595265       0.10204184       0.01568685
H       -1.26550029       0.86877811      -1.22930617
H       -1.72955054       1.55792674       0.39944430
H       -0.78822372      -1.36333620       1.00515523
H       -1.52567279      -1.96982854      -0.60168843
H        2.17622531       0.33620426      -0.67997517
H        1.72877660      -0.47980716       0.86307352
12
Frame=10 idx=004917 GeodesicLength=0.7414301006756402 rxn_smarts="[O:1]=[C:2]1[C:3]([H:7])([H:8])[C:4]([H:9])([H:10])[O:5][C:6]1([H:11])[H:12]>>[C:4](=[O:5])([H:9])[H:10].[O:1]1[C:2](=[C:3]([H:7])[H:8])[C:6]1([H:11])[H:12]"
O        1.01608578       1.71038352       0.98885643
C        0.32541253       1.11702730       0.11260557
C       -1.01878377       0.95601315      -0.19020507
C       -0.73989959      -1.40101642      -0.08164567
O        0.42770397      -1.47063171      -0.58923038
C        1.38789457       0.10895501       0.01061263
H       -1.26041886       0.89920851      -1.24588154
H       -1.73466013       1.50852911       0.40690443
H       -0.80487927      -1.36071036       1.01478193
H       -1.53844788      -1.94355693      -0.59865530
H        2.19052539       0.35416119      -0.67921595
H        1.74946727      -0.47836237       0.85107291
12
Frame=11 idx=004917 GeodesicLength=0.8167385550079425 rxn_smarts="[O:1]=[C:2]1[C:3]([H:7])([H:8])[C:4]([H:9])([H:10])[O:5][C:6]1([H:11])[H:12]>>[C:4](=[O:5])([H:9])[H:10].[O:1]1[C:2](=[C:3]([H:7])[H:8])[C:6]1([H:11])[H:12]"
O        1.00750806       1.69566286       0.99232712
C        0.32736329       1.11398233       0.10073327
C       -1.01816422       0.93221216      -0.20152972
C       -0.75086675      -1.38234686      -0.07288789
O        0.42744898      -1.48582098      -0.56386295
C        1.39966436       0.11582619       0.00508281
H       -1.25655134       0.92991594      -1.25995293
H       -1.73863672       1.46067815       0.41225548
H       -0.82276582      -1.35773168       1.02419984
H       -1.55006644      -1.91838036      -0.59598830
H        2.20452269       0.37310289      -0.67847810
H        1.77054391      -0.47710063       0.83810138
12
Frame=12 idx=004917 GeodesicLength=0.8922263569064992 rxn_smarts="[O:1]=[C:2]1[C:3]([H:7])([H:8])[C:4]([H:9])([H:10])[O:5][C:6]1([H:11])[H:12]>>[C:4](=[O:5])([H:9])[H:10].[O:1]1[C:2](=[C:3]([H:7])[H:8])[C:6]1([H:11])[H:12]"
O        0.99875968       1.67968272       0.99646506
C        0.32910005       1.11051562       0.08955173
C       -1.01731164       0.90888643      -0.21354135
C       -0.76133781      -1.36451563      -0.06387049
O        0.42694890      -1.50103904      -0.53724780
C        1.41127010       0.12267171      -0.00100004
H       -1.25353199       0.96082176      -1.27169339
H       -1.74168380       1.41446601       0.41545425
H       -0.84190076      -1.35430296       1.03347390
H       -1.56054914      -1.89430261      -0.59362485
H        2.21808914       0.39316293      -0.67789894
H        1.79214726      -0.47604693       0.82393193
12
Frame=13 idx=004917 GeodesicLength=0.9678871449396869 rxn_smarts="[O:1]=[C:2]1[C:3]([H:7])([H:8])[C:4]([H:9])([H:10])[O:5][C:6]1([H:11])[H:12]>>[C:4](=[O:5])([H:9])[H:10].[O:1]1[C:2](=[C:3]([H:7])[H:8])[C:6]1([H:11])[H:12]"
O        0.98989463       1.66247521       1.00107798
C        0.33066602       1.10665378       0.07890930
C       -1.01624352       0.88596602      -0.22622815
C       -0.77135735      -1.34747297      -0.05463761
O        0.42624495      -1.51625824      -0.50930447
C        1.42272644       0.12946674      -0.00763181
H       -1.25143920       0.99202799      -1.28110884
H       -1.74383896       1.36987573       0.41670099
H       -0.86228124      -1.35039852       1.04257166
H       -1.56983912      -1.87140603      -0.59161724
H        2.23130210       0.41424652      -0.67735034
H        1.81416525      -0.47517621       0.80861852
12
Frame=14 idx=004917 GeodesicLength=1.0437161566682762 rxn_smarts="[O:1]=[C:2]1[C:3]([H:7])([H:8])[C:4]([H:9])([H:10])[O:5][C:6]1([H:11])[H:12]>>[C:4](=[O:5])([H:9])[H:10].[O:1]1[C:2](=[C:3]([H:7])[H:8])[C:6]1([H:11])[H:12]"
O        0.98091380       1.64390120       1.00620773
C        0.33207120       1.10240108       0.06879296
C       -1.01497664       0.86340851      -0.23961407
C       -0.78098086      -1.33115548      -0.04518455
O        0.42535858      -1.53144618      -0.47987563
C        1.43404388       0.13621701      -0.01486816
H       -1.25011349       1.02353616      -1.28825525
H       -1.74521272       1.32692961       0.41604233
H       -0.88393217      -1.34594837       1.05149803
H       -1.57791606      -1.84974547      -0.58994654
H        2.24412545       0.43639105      -0.67684756
H        1.83661903      -0.47448912       0.79205071
12
Frame=15 idx=004917 GeodesicLength=1.1197002715546425 rxn_smarts="[O:1]=[C:2]1[C:3]([H:7])([H:8])[C:4]([H:9])([H:10])[O:5][C:6]1([H:11])[H:12]>>[C:4](=[O:5])([H:9])[H:10].[O:1]1[C:2](=[C:3]([H:7])[H:8])[C:6]1([H:11])[H:12]"
O        0.97185025       1.62389509       1.01178672
C        0.33333993       1.09777586       0.05913811
C       -1.01351655       0.84118072      -0.25371229
C       -0.79024909      -1.31549705      -0.03553493
O        0.42431384      -1.54654896      -0.44881343
C        1.44523119       0.14292085      -0.02273923
H       -1.24951604       1.05530399      -1.29311975
H       -1.74586164       1.28562300       0.41359172
H       -0.90688691      -1.34089388       1.06021479
H       -1.58473205      -1.82935654      -0.58865253
H        2.25656189       0.45957310      -0.67634249
H        1.85946516      -0.47397619       0.77418331
12
Frame=16 idx=004917 GeodesicLength=1.1958381950717607 rxn_smarts="[O:1]=[C:2]1[C:3]([H:7])([H:8])[C:4]([H:9])([H:10])[O:5][C:6]1([H:11])[H:12]>>[C:4](=[O:5])([H:9])[H:10].[O:1]1[C:2](=[C:3]([H:7])[H:8])[C:6]1([H:11])[H:12]"
O        0.96271934       1.60232464       1.01781592
C        0.33448723       1.09279549       0.04991758
C       -1.01186609       0.81926273      -0.26854766
C       -0.79920293      -1.30042202      -0.02569606
O        0.42312158      -1.56149085      -0.41593685
C        1.45629356       0.14958777      -0.03129886
H       -1.24954219       1.08724152      -1.29570640
H       -1.74585353       1.24594917       0.40942487
H       -0.93119525      -1.33515713       1.06868680
H       -1.59024041      -1.81026368      -0.58775215
H        2.26858558       0.48381283      -0.67581630
H        1.88269310      -0.47364049       0.75490912
