13
Frame=0 idx=010130 GeodesicLength=0.0 rxn_smarts="[O:1]=[C:2]1[N:3]([H:8])[C:4]([H:9])([H:10])[C@@:5]2([H:11])[C:6]([H:12])([H:13])[N:7]12>>[O:1]=[C:2]1[N:3]([H:8])[C:4]([H:9])([H:10])[C:5]([H:11])=[N+:7]1[C-:6]([H:12])[H:13]"
O        1.15130165       2.10780475       0.71904333
C        0.79503150       1.07647692       0.22842691
N        1.53330885      -0.04566694      -0.04688564
C        0.72194488      -1.20957712      -0.37847775
C       -0.59258612      -0.53667305      -0.64688301
C       -1.72277187       0.78428439       0.51674572
N       -0.53120341       0.72165997      -0.17462718
H        2.44128469      -0.12168648       0.37366619
H        0.70119028      -1.93069821       0.44868123
H        1.08669769      -1.72361214      -1.27058496
H       -1.28572226      -0.79381196      -1.42765958
H       -2.38513355       1.62951715       0.38413177
H       -1.91334236       0.04198268       1.27442292
13
Frame=1 idx=010130 GeodesicLength=0.035210220040262724 rxn_smarts="[O:1]=[C:2]1[N:3]([H:8])[C:4]([H:9])([H:10])[C@@:5]2([H:11])[C:6]([H:12])([H:13])[N:7]12>>[O:1]=[C:2]1[N:3]([H:8])[C:4]([H:9])([H:10])[C:5]([H:11])=[N+:7]1[C-:6]([H:12])[H:13]"
O        1.14199736       2.10600044       0.72852095
C        0.79176956       1.07819230       0.22627617
N        1.52817649      -0.04635613      -0.03739709
C        0.71893973      -1.20791029      -0.37764291
C       -0.59695008      -0.53742924      -0.64659822
C       -1.71459511       0.77751423       0.50817288
N       -0.53147033       0.73214332      -0.19880560
H        2.43960739      -0.11950453       0.37589718
H        0.69620508      -1.93359435       0.44527897
H        1.08887805      -1.71665650      -1.27093687
H       -1.29062076      -0.80881358      -1.42248570
H       -2.36908402       1.63132720       0.39373399
H       -1.90285335       0.04508713       1.27598625
13
Frame=2 idx=010130 GeodesicLength=0.07036420287370934 rxn_smarts="[O:1]=[C:2]1[N:3]([H:8])[C:4]([H:9])([H:10])[C@@:5]2([H:11])[C:6]([H:12])([H:13])[N:7]12>>[O:1]=[C:2]1[N:3]([H:8])[C:4]([H:9])([H:10])[C:5]([H:11])=[N+:7]1[C-:6]([H:12])[H:13]"
O        1.13271709       2.10464041       0.73660683
C        0.78847495       1.07969798       0.22444166
N        1.52296305      -0.04721519      -0.02743218
C        0.71607090      -1.20633731      -0.37691028
C       -0.60131599      -0.53823594      -0.64576003
C       -1.70635046       0.77105304       0.50010095
N       -0.53160383       0.74177651      -0.22157483
H        2.43801884      -0.11731520       0.37807367
H        0.69170084      -1.93706504       0.44130329
H        1.09107973      -1.70918870      -1.27171631
H       -1.29534446      -0.82308290      -1.41691719
H       -2.35269596       1.63297811       0.40250648
H       -1.89371469       0.04829422       1.27727794
13
Frame=3 idx=010130 GeodesicLength=0.10547469722756568 rxn_smarts="[O:1]=[C:2]1[N:3]([H:8])[C:4]([H:9])([H:10])[C@@:5]2([H:11])[C:6]([H:12])([H:13])[N:7]12>>[O:1]=[C:2]1[N:3]([H:8])[C:4]([H:9])([H:10])[C:5]([H:11])=[N+:7]1[C-:6]([H:12])[H:13]"
O        1.12350086       2.10365935       0.74353413
C        0.78517932       1.08103438       0.22284051
N        1.51766118      -0.04824338      -0.01698973
C        0.71331946      -1.20484901      -0.37625804
C       -0.60567535      -0.53907653      -0.64444820
C       -1.69804185       0.76487819       0.49249426
N       -0.53161290       0.75066906      -0.24311302
H        2.43652827      -0.11510859       0.38012587
H        0.68759884      -1.94104620       0.43681305
H        1.09331311      -1.70125387      -1.27285220
H       -1.29993060      -0.83671618      -1.41099263
H       -2.33607389       1.63446300       0.41049345
H       -1.88576644       0.05158977       1.27835255
13
Frame=4 idx=010130 GeodesicLength=0.140581195363477 rxn_smarts="[O:1]=[C:2]1[N:3]([H:8])[C:4]([H:9])([H:10])[C@@:5]2([H:11])[C:6]([H:12])([H:13])[N:7]12>>[O:1]=[C:2]1[N:3]([H:8])[C:4]([H:9])([H:10])[C:5]([H:11])=[N+:7]1[C-:6]([H:12])[H:13]"
O        1.11435662       2.10299095       0.74950364
C        0.78189238       1.08222670       0.22140479
N        1.51223413      -0.04945203      -0.00605929
C        0.71067702      -1.20343534      -0.37566984
C       -0.61002764      -0.53994944      -0.64272956
C       -1.68967274       0.75897107       0.48529400
N       -0.53151330       0.75890387      -0.26358492
H        2.43513409      -0.11287620       0.38200287
H        0.68385694      -1.94548731       0.43183790
H        1.09560652      -1.69286476      -1.27427731
H       -1.30442162      -0.84982408      -1.40472650
H       -2.31926584       1.63580736       0.41777151
H       -1.87885657       0.05498921       1.27923269
13
Frame=5 idx=010130 GeodesicLength=0.17568092793438334 rxn_smarts="[O:1]=[C:2]1[N:3]([H:8])[C:4]([H:9])([H:10])[C@@:5]2([H:11])[C:6]([H:12])([H:13])[N:7]12>>[O:1]=[C:2]1[N:3]([H:8])[C:4]([H:9])([H:10])[C:5]([H:11])=[N+:7]1[C-:6]([H:12])[H:13]"
O        1.10526672       2.10259046       0.75465167
C        0.77862380       1.08329398       0.22009098
N        1.50669176      -0.05082440       0.00537861
C        0.70813297      -1.20209373      -0.37513070
C       -0.61435124      -0.54085096      -0.64064830
C       -1.68127064       0.75329788       0.47844637
N       -0.53131282       0.76654342      -0.28311271
H        2.43382175      -0.11061224       0.38364081
H        0.68041659      -1.95035687       0.42641166
H        1.09796530      -1.68405307      -1.27595536
H       -1.30880758      -0.86248212      -1.39814516
H       -2.30229429       1.63705921       0.42440915
H       -1.87288232       0.05848844       1.27996298
13
Frame=6 idx=010130 GeodesicLength=0.21079943075954152 rxn_smarts="[O:1]=[C:2]1[N:3]([H:8])[C:4]([H:9])([H:10])[C@@:5]2([H:11])[C:6]([H:12])([H:13])[N:7]12>>[O:1]=[C:2]1[N:3]([H:8])[C:4]([H:9])([H:10])[C:5]([H:11])=[N+:7]1[C-:6]([H:12])[H:13]"
O        1.09623779       2.10240047       0.75915694
C        0.77538623       1.08425195       0.21887128
N        1.50100254      -0.05237452       0.01733476
C        0.70568046      -1.20081918      -0.37461841
C       -0.61865415      -0.54178449      -0.63826168
C       -1.67284847       0.74784573       0.47189569
N       -0.53101770       0.77364354      -0.30181940
H        2.43262157      -0.10828383       0.38494415
H        0.67724957      -1.95561237       0.42057582
H        1.10040978      -1.67483350      -1.27782247
H       -1.31313211      -0.87478001      -1.39126352
H       -2.28518276       1.63825548       0.43046760
H       -1.86775275       0.06209072       1.28053923
13
Frame=7 idx=010130 GeodesicLength=0.24599545604790807 rxn_smarts="[O:1]=[C:2]1[N:3]([H:8])[C:4]([H:9])([H:10])[C@@:5]2([H:11])[C:6]([H:12])([H:13])[N:7]12>>[O:1]=[C:2]1[N:3]([H:8])[C:4]([H:9])([H:10])[C:5]([H:11])=[N+:7]1[C-:6]([H:12])[H:13]"
O        1.08725100       2.10237260       0.76303251
C        0.77217296       1.08508601       0.21776970
N        1.49509572      -0.05416444       0.03008576
C        0.70331516      -1.19961187      -0.37408309
C       -0.62292638      -0.54276528      -0.63557062
C       -1.66442784       0.74259880       0.46558556
N       -0.53065510       0.78022353      -0.31972054
H        2.43155174      -0.10583363       0.38558775
H        0.67427571      -1.96130113       0.41429055
H        1.10303212      -1.66511823      -1.27980188
H       -1.31735154      -0.88677666      -1.38409643
H       -2.26788297       1.63941783       0.43602562
H       -1.86345059       0.06587246       1.28089510
13
Frame=8 idx=010130 GeodesicLength=0.2811870978855763 rxn_smarts="[O:1]=[C:2]1[N:3]([H:8])[C:4]([H:9])([H:10])[C@@:5]2([H:11])[C:6]([H:12])([H:13])[N:7]12>>[O:1]=[C:2]1[N:3]([H:8])[C:4]([H:9])([H:10])[C:5]([H:11])=[N+:7]1[C-:6]([H:12])[H:13]"
O        1.07834870       2.10247196       0.76655841
C        0.76901209       1.08578868       0.21681263
N        1.48902327      -0.05614686       0.04335009
C        0.70102648      -1.19846927      -0.37352286
C       -0.62716585      -0.54377096      -0.63261415
C       -1.65601536       0.73756389       0.45952075
N       -0.53018046       0.78634805      -0.33694475
H        2.43066834      -0.10326822       0.38558628
H        0.67153892      -1.96730567       0.40768066
H        1.10572720      -1.65505465      -1.28185565
H       -1.32150373      -0.89846599      -1.37667063
H       -2.25056556       1.64054848       0.44096774
H       -1.85991406       0.06976058       1.28113147
13
Frame=9 idx=010130 GeodesicLength=0.3164215872351844 rxn_smarts="[O:1]=[C:2]1[N:3]([H:8])[C:4]([H:9])([H:10])[C@@:5]2([H:11])[C:6]([H:12])([H:13])[N:7]12>>[O:1]=[C:2]1[N:3]([H:8])[C:4]([H:9])([H:10])[C:5]([H:11])=[N+:7]1[C-:6]([H:12])[H:13]"
O        1.06951319       2.10267168       0.76973927
C        0.76590261       1.08635649       0.21600741
N        1.48273867      -0.05835342       0.05733404
C        0.69881436      -1.19739089      -0.37290057
C       -0.63136227      -0.54481043      -0.62940294
C       -1.64763101       0.73272285       0.45364638
N       -0.52960325       0.79204100      -0.35351778
H        2.42995513      -0.10055754       0.38471640
H        0.66897545      -1.97366430       0.40072318
H        1.10857123      -1.64458773      -1.28393129
H       -1.32556428      -0.90989831      -1.36899955
H       -2.23318921       1.64168011       0.44537574
H       -1.85712063       0.07379050       1.28120970
13
Frame=10 idx=010130 GeodesicLength=0.3517594780953326 rxn_smarts="[O:1]=[C:2]1[N:3]([H:8])[C:4]([H:9])([H:10])[C@@:5]2([H:11])[C:6]([H:12])([H:13])[N:7]12>>[O:1]=[C:2]1[N:3]([H:8])[C:4]([H:9])([H:10])[C:5]([H:11])=[N+:7]1[C-:6]([H:12])[H:13]"
O        1.06074260       2.10292292       0.77244874
C        0.76284744       1.08675741       0.21542915
N        1.47617646      -0.06086860       0.07238516
C        0.69668427      -1.19636111      -0.37216276
C       -0.63550200      -0.54589655      -0.62590451
C       -1.63927928       0.72806438       0.44794774
N       -0.52891843       0.79731021      -0.36937494
H        2.42935863      -0.09765906       0.38262816
H        0.66652971      -1.98042570       0.39333274
H        1.11164888      -1.63356553      -1.28595237
H       -1.32948854      -0.92110270      -1.36107081
H       -2.21568960       1.64280137       0.44928455
H       -1.85511015       0.07802296       1.28100915
13
Frame=11 idx=010130 GeodesicLength=0.3871523338960792 rxn_smarts="[O:1]=[C:2]1[N:3]([H:8])[C:4]([H:9])([H:10])[C@@:5]2([H:11])[C:6]([H:12])([H:13])[N:7]12>>[O:1]=[C:2]1[N:3]([H:8])[C:4]([H:9])([H:10])[C:5]([H:11])=[N+:7]1[C-:6]([H:12])[H:13]"
O        1.05206486       2.10321729       0.77501718
C        0.75985948       1.08697687       0.21510879
N        1.46936802      -0.06365469       0.08830227
C        0.69463388      -1.19538750      -0.37128356
C       -0.63958212      -0.54701569      -0.62217075
C       -1.63097735       0.72359007       0.44238357
N       -0.52810143       0.80219640      -0.38465552
H        2.42886858      -0.09455153       0.37917840
H        0.66422030      -1.98750796       0.38564945
H        1.11492090      -1.62214031      -1.28785078
H       -1.33328454      -0.93209135      -1.35293641
H       -2.19817157       1.64394886       0.45264888
H       -1.85381903       0.08241954       1.28060847
13
Frame=12 idx=010130 GeodesicLength=0.4225086631137712 rxn_smarts="[O:1]=[C:2]1[N:3]([H:8])[C:4]([H:9])([H:10])[C@@:5]2([H:11])[C:6]([H:12])([H:13])[N:7]12>>[O:1]=[C:2]1[N:3]([H:8])[C:4]([H:9])([H:10])[C:5]([H:11])=[N+:7]1[C-:6]([H:12])[H:13]"
O        1.04350714       2.10353695       0.77744954
C        0.75697852       1.08701378       0.21504718
N        1.46243615      -0.06666545       0.10487761
C        0.69266529      -1.19445525      -0.37028014
C       -0.64357872      -0.54814794      -0.61822953
C       -1.62272575       0.71928144       0.43698443
N       -0.52711093       0.80673723      -0.39938725
H        2.42840774      -0.09128403       0.37452577
H        0.66205442      -1.99481236       0.37772983
H        1.11830822      -1.61039509      -1.28962261
H       -1.33694468      -0.94283221      -1.34463945
H       -2.18075227       1.64509445       0.45546191
H       -1.85324512       0.08692849       1.28008271
13
Frame=13 idx=010130 GeodesicLength=0.4580467039670921 rxn_smarts="[O:1]=[C:2]1[N:3]([H:8])[C:4]([H:9])([H:10])[C@@:5]2([H:11])[C:6]([H:12])([H:13])[N:7]12>>[O:1]=[C:2]1[N:3]([H:8])[C:4]([H:9])([H:10])[C:5]([H:11])=[N+:7]1[C-:6]([H:12])[H:13]"
O        1.03508978       2.10384397       0.77967969
C        0.75415871       1.08684006       0.21527986
N        1.45526659      -0.06987419       0.12217112
C        0.69081333      -1.19351110      -0.36912912
C       -0.64750323      -0.54930336      -0.61407055
C       -1.61446954       0.71511903       0.43172887
N       -0.52600712       0.81093864      -0.41353053
H        2.42760416      -0.08793877       0.36859342
H        0.66009508      -2.00229510       0.36953257
H        1.12191352      -1.59825697      -1.29119156
H       -1.34044376      -0.95337874      -1.33615003
H       -2.16324011       1.64619513       0.45783571
H       -1.85327739       0.09162141       1.27925055
13
Frame=14 idx=010130 GeodesicLength=0.4936320062148841 rxn_smarts="[O:1]=[C:2]1[N:3]([H:8])[C:4]([H:9])([H:10])[C@@:5]2([H:11])[C:6]([H:12])([H:13])[N:7]12>>[O:1]=[C:2]1[N:3]([H:8])[C:4]([H:9])([H:10])[C:5]([H:11])=[N+:7]1[C-:6]([H:12])[H:13]"
O        1.02683530       2.10416309       0.78168956
C        0.75145203       1.08650564       0.21566711
N        1.44808293      -0.07313492       0.13957199
C        0.68908326      -1.19252567      -0.36793500
C       -0.65134058      -0.55044659      -0.60977393
C       -1.60619011       0.71106289       0.42667905
N       -0.52476383       0.81485770      -0.42718772
H        2.42631030      -0.08469399       0.36216615
H        0.65840996      -2.00975150       0.36115215
H        1.12556278      -1.58591975      -1.29264296
H       -1.34383900      -0.96370464      -1.32750820
H       -2.14578853       1.64721233       0.45984100
H       -1.85381450       0.09637541       1.27828079
13
Frame=15 idx=010130 GeodesicLength=0.5292492304983347 rxn_smarts="[O:1]=[C:2]1[N:3]([H:8])[C:4]([H:9])([H:10])[C@@:5]2([H:11])[C:6]([H:12])([H:13])[N:7]12>>[O:1]=[C:2]1[N:3]([H:8])[C:4]([H:9])([H:10])[C:5]([H:11])=[N+:7]1[C-:6]([H:12])[H:13]"
O        1.01877298       2.10451011       0.78339235
C        0.74886296       1.08606691       0.21607034
N        1.44101171      -0.07628994       0.15652945
C        0.68747201      -1.19146039      -0.36680179
C       -0.65510222      -0.55154932      -0.60541018
C       -1.59784575       0.70706577       0.42189950
N       -0.52343610       0.81853954      -0.44040870
H        2.42439932      -0.08173953       0.35604458
H        0.65705658      -2.01698866       0.35265638
H        1.12913452      -1.57353736      -1.29406073
H       -1.34718296      -0.97379825      -1.31874021
H       -2.12843443       1.64805955       0.46160077
H       -1.85470863       0.10112157       1.27722825
13
Frame=16 idx=010130 GeodesicLength=0.5648788232507213 rxn_smarts="[O:1]=[C:2]1[N:3]([H:8])[C:4]([H:9])([H:10])[C@@:5]2([H:11])[C:6]([H:12])([H:13])[N:7]12>>[O:1]=[C:2]1[N:3]([H:8])[C:4]([H:9])([H:10])[C:5]([H:11])=[N+:7]1[C-:6]([H:12])[H:13]"
O        1.01091631       2.10488434       0.78477301
C        0.74639106       1.08556866       0.21640125
N        1.43413492      -0.07924607       0.17269790
C        0.68596439      -1.19030229      -0.36578884
C       -0.65879893      -0.55259016      -0.60103213
C       -1.58942113       0.70309553       0.41742463
N       -0.52206983       0.82202420      -0.45323249
H        2.42190204      -0.07916435       0.35069614
H        0.65604295      -2.02388663       0.34411774
H        1.13254085      -1.56123104      -1.29549405
H       -1.35051081      -0.98364558      -1.30987717
H       -2.11122191       1.64868460       0.46318880
H       -1.85586991       0.10580879       1.27612522
