10
Frame=0 idx=010003 GeodesicLength=0.0 rxn_smarts="[C:1](#[C:2][c:3]1[c:4]([H:9])[n:5][n:6][n:7]1[H:10])[H:8]>>[C+:1]#[C:2][C:3]1=[C:4]([H:9])[N:5]([H:8])[N-:6][N:7]1[H:10]"
C        1.27544925       0.53800469      -0.26135895
C        1.66096597       0.06081921       0.99866071
C        0.18824992       0.14075267       0.94046387
C       -0.18158374       1.03918916      -0.12100965
N       -0.76545626       0.14490982      -1.13696138
N       -0.96045068      -1.04011261      -0.59376519
N       -0.59104542      -1.04121726       0.63182029
H        0.40372208       0.00385260      -1.50016556
H       -0.46197988       2.07992490      -0.07669757
H       -0.56787125      -1.92612317       1.11901344
10
Frame=1 idx=010003 GeodesicLength=0.3999206430021139 rxn_smarts="[C:1](#[C:2][c:3]1[c:4]([H:9])[n:5][n:6][n:7]1[H:10])[H:8]>>[C+:1]#[C:2][C:3]1=[C:4]([H:9])[N:5]([H:8])[N-:6][N:7]1[H:10]"
C        1.34383880       0.51505647      -0.23871111
C        1.64456542       0.03602004       1.03149345
C        0.18046054       0.14413987       0.93797292
C       -0.18530415       1.04233043      -0.11667104
N       -0.81030698       0.15928869      -1.10893381
N       -1.03151401      -1.01680379      -0.56015781
N       -0.58725727      -1.04148965       0.64145620
H        0.45425959       0.02569765      -1.54754824
H       -0.49660284       2.07708367      -0.13399803
H       -0.51213910      -1.94132338       1.09509747
10
Frame=2 idx=010003 GeodesicLength=0.7979531432993401 rxn_smarts="[C:1](#[C:2][c:3]1[c:4]([H:9])[n:5][n:6][n:7]1[H:10])[H:8]>>[C+:1]#[C:2][C:3]1=[C:4]([H:9])[N:5]([H:8])[N-:6][N:7]1[H:10]"
C        1.41487384       0.48977945      -0.21372727
C        1.62716251       0.01412801       1.06381949
C        0.17302361       0.14749652       0.93253867
C       -0.19282045       1.04465149      -0.11491074
N       -0.86376539       0.17222685      -1.07690743
N       -1.10612970      -0.99418876      -0.51910138
N       -0.58224092      -1.04291576       0.65079248
H        0.51598901       0.05219217      -1.59801773
H       -0.52841052       2.07197246      -0.19144290
H       -0.45768200      -1.95534241       1.06695679
10
Frame=3 idx=010003 GeodesicLength=1.192781608822842 rxn_smarts="[C:1](#[C:2][c:3]1[c:4]([H:9])[n:5][n:6][n:7]1[H:10])[H:8]>>[C+:1]#[C:2][C:3]1=[C:4]([H:9])[N:5]([H:8])[N-:6][N:7]1[H:10]"
C        1.48820650       0.46243116      -0.18620254
C        1.60852925      -0.00378399       1.09536205
C        0.16585262       0.14961148       0.92341159
C       -0.20569211       1.04510144      -0.11552465
N       -0.93034074       0.18356439      -1.03834921
N       -1.18419977      -0.97442798      -0.46918026
N       -0.57524675      -1.04703158       0.65922055
H        0.59216296       0.08853904      -1.65195584
H       -0.55316391       2.06539557      -0.25254341
H       -0.40610804      -1.96939953       1.03576171
10
Frame=4 idx=010003 GeodesicLength=1.58270450962374 rxn_smarts="[C:1](#[C:2][c:3]1[c:4]([H:9])[n:5][n:6][n:7]1[H:10])[H:8]>>[C+:1]#[C:2][C:3]1=[C:4]([H:9])[N:5]([H:8])[N-:6][N:7]1[H:10]"
C        1.56438984       0.43555056      -0.15715176
C        1.59020708      -0.02153342       1.12162547
C        0.16045143       0.14877032       0.90838956
C       -0.22494654       1.04236606      -0.11911140
N       -1.01534844       0.19343866      -0.98985532
N       -1.26095816      -0.96240525      -0.41231795
N       -0.56817926      -1.05360099       0.66690992
H        0.68963781       0.14376023      -1.71056200
H       -0.57101688       2.05548310      -0.31792681
H       -0.36423687      -1.98182926       1.01000030
10
Frame=5 idx=010003 GeodesicLength=1.9653994509758899 rxn_smarts="[C:1](#[C:2][c:3]1[c:4]([H:9])[n:5][n:6][n:7]1[H:10])[H:8]>>[C+:1]#[C:2][C:3]1=[C:4]([H:9])[N:5]([H:8])[N-:6][N:7]1[H:10]"
C        1.64458457       0.40997821      -0.12517799
C        1.57088334      -0.03791646       1.14374258
C        0.15591918       0.14486713       0.88501273
C       -0.25021637       1.03462066      -0.13025097
N       -1.12705275       0.20335660      -0.92486842
N       -1.34713853      -0.95465756      -0.34009693
N       -0.56009696      -1.06370753       0.67244847
H        0.81891097       0.21941208      -1.76993929
H       -0.57950168       2.04013793      -0.39390209
H       -0.32629176      -1.99609107       0.98303191
10
Frame=6 idx=010003 GeodesicLength=2.3363978702651624 rxn_smarts="[C:1](#[C:2][c:3]1[c:4]([H:9])[n:5][n:6][n:7]1[H:10])[H:8]>>[C+:1]#[C:2][C:3]1=[C:4]([H:9])[N:5]([H:8])[N-:6][N:7]1[H:10]"
C        1.73102332       0.38708895      -0.08907575
C        1.55018544      -0.05380774       1.16087855
C        0.15275402       0.13663222       0.84868506
C       -0.28018353       1.01738011      -0.15706253
N       -1.27544081       0.21561303      -0.83006962
N       -1.45065544      -0.94757998      -0.24011770
N       -0.55100404      -1.07829526       0.67306372
H        0.99563632       0.32544110      -1.82635400
H       -0.57981542       2.01183728      -0.49001422
H       -0.29249987      -2.01430970       0.95006649
10
Frame=7 idx=010003 GeodesicLength=2.688031666679519 rxn_smarts="[C:1](#[C:2][c:3]1[c:4]([H:9])[n:5][n:6][n:7]1[H:10])[H:8]>>[C+:1]#[C:2][C:3]1=[C:4]([H:9])[N:5]([H:8])[N-:6][N:7]1[H:10]"
C        1.82573978       0.36904291      -0.05033319
C        1.52915414      -0.07744849       1.16420728
C        0.15392560       0.12056941       0.79095317
C       -0.31430824       0.97941799      -0.21422519
N       -1.45903264       0.23336732      -0.68206340
N       -1.56959877      -0.93471323      -0.10293012
N       -0.54687911      -1.09595401       0.66791097
H        1.23996266       0.48699973      -1.87474961
H       -0.58360748       1.95391399      -0.61672455
H       -0.27535594      -2.03519562       0.91795465
10
Frame=8 idx=010003 GeodesicLength=3.000889184823162 rxn_smarts="[C:1](#[C:2][c:3]1[c:4]([H:9])[n:5][n:6][n:7]1[H:10])[H:8]>>[C+:1]#[C:2][C:3]1=[C:4]([H:9])[N:5]([H:8])[N-:6][N:7]1[H:10]"
C        1.92615400       0.35477560      -0.01875491
C        1.51273287      -0.12360599       1.13564450
C        0.16438766       0.08940623       0.70464651
C       -0.35688521       0.91438139      -0.30057561
N       -1.62279222       0.25205144      -0.50632150
N       -1.69259353      -0.90491557       0.07570026
N       -0.56018736      -1.11281144       0.66727012
H        1.53150257       0.73002052      -1.89392888
H       -0.60893712       1.85542054      -0.77302714
H       -0.29338165      -2.05472273       0.90934666
10
Frame=9 idx=010003 GeodesicLength=3.264365038309946 rxn_smarts="[C:1](#[C:2][c:3]1[c:4]([H:9])[n:5][n:6][n:7]1[H:10])[H:8]>>[C+:1]#[C:2][C:3]1=[C:4]([H:9])[N:5]([H:8])[N-:6][N:7]1[H:10]"
C        2.02725173       0.34684194       0.00046346
C        1.50480989      -0.19110020       1.06794060
C        0.18264809       0.03499549       0.58806093
C       -0.40947498       0.83377089      -0.39522702
N       -1.72805108       0.27680794      -0.35528446
N       -1.79188353      -0.85897445       0.26514950
N       -0.58751317      -1.13065219       0.66988286
H        1.79648145       1.01389581      -1.85409045
H       -0.65098161       1.74202393      -0.93605685
H       -0.34328678      -2.06760918       0.94916143
10
Frame=10 idx=010003 GeodesicLength=3.493234531061472 rxn_smarts="[C:1](#[C:2][c:3]1[c:4]([H:9])[n:5][n:6][n:7]1[H:10])[H:8]>>[C+:1]#[C:2][C:3]1=[C:4]([H:9])[N:5]([H:8])[N-:6][N:7]1[H:10]"
C        2.12906423       0.33095502       0.01001803
C        1.50388424      -0.28217595       0.95917664
C        0.20635329      -0.05793536       0.43047967
C       -0.45788891       0.72744844      -0.51130083
N       -1.78176706       0.31924485      -0.22270935
N       -1.85833057      -0.79234331       0.44122587
N       -0.62654716      -1.14892091       0.67872245
H        1.98958513       1.35416797      -1.73605824
H       -0.68635563       1.60725134      -1.10965980
H       -0.41799756      -2.05769210       1.06010556
10
Frame=11 idx=010003 GeodesicLength=3.6810145212284344 rxn_smarts="[C:1](#[C:2][c:3]1[c:4]([H:9])[n:5][n:6][n:7]1[H:10])[H:8]>>[C+:1]#[C:2][C:3]1=[C:4]([H:9])[N:5]([H:8])[N-:6][N:7]1[H:10]"
C        2.22234491       0.29746022      -0.00129875
C        1.51202452      -0.40363118       0.79965984
C        0.22827759      -0.19968403       0.24025138
C       -0.49019706       0.58009241      -0.65855228
N       -1.78388456       0.41487647      -0.09907272
N       -1.88170690      -0.68054870       0.61655923
N       -0.66951816      -1.15711636       0.69806623
H        2.04388715       1.74177276      -1.47089936
H       -0.68873619       1.41381116      -1.33389414
H       -0.49249130      -2.00703275       1.20918057
10
Frame=12 idx=010003 GeodesicLength=3.8576164049489723 rxn_smarts="[C:1](#[C:2][c:3]1[c:4]([H:9])[n:5][n:6][n:7]1[H:10])[H:8]>>[C+:1]#[C:2][C:3]1=[C:4]([H:9])[N:5]([H:8])[N-:6][N:7]1[H:10]"
C        2.29934005       0.24145959      -0.04212823
C        1.53791038      -0.55643826       0.58506347
C        0.23820843      -0.34836284       0.07074242
C       -0.51081135       0.46505998      -0.76454738
N       -1.70252492       0.52373720      -0.04149202
N       -1.85328996      -0.51539405       0.75424421
N       -0.69816911      -1.12904918       0.73126660
H        1.91003626       2.05974687      -1.05923603
H       -0.68225090       1.16617365      -1.58605233
H       -0.53844887      -1.90693298       1.35213927
10
Frame=13 idx=010003 GeodesicLength=4.056651872403621 rxn_smarts="[C:1](#[C:2][c:3]1[c:4]([H:9])[n:5][n:6][n:7]1[H:10])[H:8]>>[C+:1]#[C:2][C:3]1=[C:4]([H:9])[N:5]([H:8])[N-:6][N:7]1[H:10]"
C        2.35131479       0.19751684      -0.07982340
C        1.56053650      -0.68494017       0.34278266
C        0.22993585      -0.50080797      -0.09146355
C       -0.53487517       0.33216985      -0.89313572
N       -1.55922793       0.66308950      -0.01324055
N       -1.77181862      -0.31841664       0.83868013
N       -0.70041340      -1.06972933       0.76042697
H        1.63046559       2.20576570      -0.55473484
H       -0.67455175       0.93239010      -1.78831858
H       -0.53136587      -1.75703789       1.47882687
10
Frame=14 idx=010003 GeodesicLength=4.30624600724651 rxn_smarts="[C:1](#[C:2][c:3]1[c:4]([H:9])[n:5][n:6][n:7]1[H:10])[H:8]>>[C+:1]#[C:2][C:3]1=[C:4]([H:9])[N:5]([H:8])[N-:6][N:7]1[H:10]"
C        2.37917842       0.17704150      -0.08626084
C        1.56731172      -0.74802047       0.11642369
C        0.20029097      -0.62619432      -0.21480373
C       -0.57532785       0.23313218      -0.98308177
N       -1.39586847       0.78059919      -0.01469459
N       -1.67364411      -0.13804200       0.87779189
N       -0.68308729      -0.99817536       0.78053732
H        1.32525779       2.17368818      -0.10789524
H       -0.66146608       0.74911483      -1.93035197
H       -0.48264510      -1.60314372       1.56233525
10
Frame=15 idx=010003 GeodesicLength=4.579354733874718 rxn_smarts="[C:1](#[C:2][c:3]1[c:4]([H:9])[n:5][n:6][n:7]1[H:10])[H:8]>>[C+:1]#[C:2][C:3]1=[C:4]([H:9])[N:5]([H:8])[N-:6][N:7]1[H:10]"
C        2.39803389       0.16589995      -0.04095026
C        1.55743092      -0.74166562      -0.07639769
C        0.16008968      -0.71156600      -0.29357959
C       -0.62852735       0.17508308      -1.02757207
N       -1.24840983       0.86908168      -0.01640916
N       -1.58983578      -0.00274445       0.89671938
N       -0.66410955      -0.93930784       0.78990202
H        1.08291932       2.07189944       0.18444751
H       -0.63722441       0.60805228      -2.01426377
H       -0.43036689      -1.49473252       1.59810363
10
Frame=16 idx=010003 GeodesicLength=4.856585831866554 rxn_smarts="[C:1](#[C:2][c:3]1[c:4]([H:9])[n:5][n:6][n:7]1[H:10])[H:8]>>[C+:1]#[C:2][C:3]1=[C:4]([H:9])[N:5]([H:8])[N-:6][N:7]1[H:10]"
C        2.41636562       0.14083113       0.03868499
C        1.53755848      -0.67487040      -0.24024382
C        0.12355774      -0.76451941      -0.34463359
C       -0.68546784       0.14424822      -1.04443127
N       -1.12308591       0.93443551      -0.01686932
N       -1.51837711       0.10029095       0.91121604
N       -0.64785122      -0.89438406       0.79120153
H        0.90981392       1.96740075       0.36564002
H       -0.62045097       0.48045959      -2.06339425
H       -0.39206271      -1.43389227       1.60282968
