15
Frame=0 idx=011070 GeodesicLength=0.0 rxn_smarts="[C:1]([c:2]1[c:3]([H:11])[c:4]([N:5]([H:12])[H:13])[c:6]([H:14])[n:7]1[H:15])([H:8])([H:9])[H:10]>>[C:1]([C:2]1=[N:7][C:6]([H:14])([H:15])[C:4]([N:5]([H:12])[H:13])=[C:3]1[H:11])([H:8])([H:9])[H:10]"
C        2.38027759      -0.55890436       0.00528681
C        0.95607583      -0.13310410       0.15225277
C       -0.16458357      -0.70513074      -0.44266236
C       -1.26975562       0.08811700      -0.13505096
N       -2.57566228      -0.08192588      -0.57621598
C       -0.79304112       1.13665262       0.65908039
N        0.63744920       0.95169792       0.88361963
H        2.96007777      -0.24721028       0.87329705
H        2.45356712      -1.64288080      -0.09394365
H        2.83616843      -0.11420312      -0.88322319
H       -0.16930402      -1.59025662      -1.06450929
H       -3.28157553       0.30096902       0.02978423
H       -2.80051871      -1.02028308      -0.86059035
H       -1.33991493       1.79559033       1.31699868
H        0.17073989       1.82087203       0.13587621
15
Frame=1 idx=011070 GeodesicLength=0.03965890488509406 rxn_smarts="[C:1]([c:2]1[c:3]([H:11])[c:4]([N:5]([H:12])[H:13])[c:6]([H:14])[n:7]1[H:15])([H:8])([H:9])[H:10]>>[C:1]([C:2]1=[N:7][C:6]([H:14])([H:15])[C:4]([N:5]([H:12])[H:13])=[C:3]1[H:11])([H:8])([H:9])[H:10]"
C        2.38108611      -0.55643230       0.00221997
C        0.95603285      -0.13629489       0.15513011
C       -0.16586771      -0.71303737      -0.43642826
C       -1.26915459       0.08419170      -0.13505303
N       -2.57299512      -0.07989396      -0.58392006
C       -0.79229620       1.13554842       0.65869857
N        0.63501898       0.94946606       0.88097695
H        2.96462901      -0.24080695       0.86640287
H        2.45758447      -1.64050800      -0.09347064
H        2.83052319      -0.11310224      -0.89022136
H       -0.17111495      -1.60406977      -1.04962362
H       -3.28027253       0.31855398       0.01031693
H       -2.80472076      -1.01986553      -0.85735363
H       -1.34196077       1.77837284       1.33041964
H        0.17350801       1.83787799       0.14190556
15
Frame=2 idx=011070 GeodesicLength=0.07932275738255287 rxn_smarts="[C:1]([c:2]1[c:3]([H:11])[c:4]([N:5]([H:12])[H:13])[c:6]([H:14])[n:7]1[H:15])([H:8])([H:9])[H:10]>>[C:1]([C:2]1=[N:7][C:6]([H:14])([H:15])[C:4]([N:5]([H:12])[H:13])=[C:3]1[H:11])([H:8])([H:9])[H:10]"
C        2.38181738      -0.55390247      -0.00102233
C        0.95595346      -0.13958260       0.15818432
C       -0.16723388      -0.72119788      -0.42973227
C       -1.26851786       0.08031505      -0.13516842
N       -2.57018220      -0.07784703      -0.59181865
C       -0.79159624       1.13441242       0.65838816
N        0.63256705       0.94721403       0.87836523
H        2.96924190      -0.23418953       0.85912923
H        2.46165068      -1.63805264      -0.09311131
H        2.82451337      -0.11201447      -0.89750610
H       -0.17303919      -1.61813757      -1.03409144
H       -3.27853844       0.33618221      -0.00967250
H       -2.80896908      -1.01922890      -0.85422407
H       -1.34394664       1.76091324       1.34354284
H        0.17627970       1.85511614       0.14873730
15
Frame=3 idx=011070 GeodesicLength=0.11899520711158684 rxn_smarts="[C:1]([c:2]1[c:3]([H:11])[c:4]([N:5]([H:12])[H:13])[c:6]([H:14])[n:7]1[H:15])([H:8])([H:9])[H:10]>>[C:1]([C:2]1=[N:7][C:6]([H:14])([H:15])[C:4]([N:5]([H:12])[H:13])=[C:3]1[H:11])([H:8])([H:9])[H:10]"
C        2.38247921      -0.55124710      -0.00455556
C        0.95584159      -0.14300138       0.16146432
C       -0.16868747      -0.72967008      -0.42247571
C       -1.26783116       0.07646500      -0.13538347
N       -2.56715210      -0.07570143      -0.60008619
C       -0.79094850       1.13317709       0.65823743
N        0.63008471       0.94487263       0.87587856
H        2.97398410      -0.22726977       0.85130442
H        2.46584281      -1.63543613      -0.09302093
H        2.81802341      -0.11081895      -0.90521810
H       -0.17518077      -1.63284354      -1.01730843
H       -3.27633023       0.35406799      -0.03051610
H       -2.81326220      -1.01827737      -0.85132634
H       -1.34591225       1.74313052       1.35644929
H        0.17904885       1.87255251       0.15655681
15
Frame=4 idx=011070 GeodesicLength=0.15867194095969545 rxn_smarts="[C:1]([c:2]1[c:3]([H:11])[c:4]([N:5]([H:12])[H:13])[c:6]([H:14])[n:7]1[H:15])([H:8])([H:9])[H:10]>>[C:1]([C:2]1=[N:7][C:6]([H:14])([H:15])[C:4]([N:5]([H:12])[H:13])=[C:3]1[H:11])([H:8])([H:9])[H:10]"
C        2.38303822      -0.54855689      -0.00825746
C        0.95569007      -0.14652223       0.16494586
C       -0.17022830      -0.73838682      -0.41472658
C       -1.26708896       0.07268815      -0.13575145
N       -2.56396968      -0.07357045      -0.60851193
C       -0.79033851       1.13193903       0.65812280
N        0.62758317       0.94253209       0.87340586
H        2.97875441      -0.22018052       0.84310507
H        2.47004844      -1.63275481      -0.09306588
H        2.81114239      -0.10965794      -0.91319069
H       -0.17742783      -1.64770976      -0.99993954
H       -3.27364391       0.37184983      -0.05175895
H       -2.81756359      -1.01710909      -0.84857845
H       -1.34783689       1.72520419       1.36895650
H        0.18184096       1.89023523       0.16524483
15
Frame=5 idx=011070 GeodesicLength=0.19835444155012166 rxn_smarts="[C:1]([c:2]1[c:3]([H:11])[c:4]([N:5]([H:12])[H:13])[c:6]([H:14])[n:7]1[H:15])([H:8])([H:9])[H:10]>>[C:1]([C:2]1=[N:7][C:6]([H:14])([H:15])[C:4]([N:5]([H:12])[H:13])=[C:3]1[H:11])([H:8])([H:9])[H:10]"
C        2.38348930      -0.54581570      -0.01216666
C        0.95550109      -0.15015492       0.16865018
C       -0.17185814      -0.74735839      -0.40644693
C       -1.26627933       0.06897875      -0.13627273
N       -2.56060620      -0.07143534      -0.61714822
C       -0.78976605       1.13068367       0.65806352
N        0.62506221       0.94017913       0.87096876
H        2.98356607      -0.21290356       0.83447128
H        2.47428072      -1.62998782      -0.09330337
H        2.80382369      -0.10850095      -0.92146594
H       -0.17981394      -1.66284169      -0.98179212
H       -3.27045692       0.38956594      -0.07348758
H       -2.82185836      -1.01569771      -0.84603240
H       -1.34974008       1.70713146       1.38107216
H        0.18465595       1.90815712       0.17489005
15
Frame=6 idx=011070 GeodesicLength=0.23803831949687287 rxn_smarts="[C:1]([c:2]1[c:3]([H:11])[c:4]([N:5]([H:12])[H:13])[c:6]([H:14])[n:7]1[H:15])([H:8])([H:9])[H:10]>>[C:1]([C:2]1=[N:7][C:6]([H:14])([H:15])[C:4]([N:5]([H:12])[H:13])=[C:3]1[H:11])([H:8])([H:9])[H:10]"
C        2.38380896      -0.54310277      -0.01617311
C        0.95527145      -0.15386877       0.17254981
C       -0.17357351      -0.75651389      -0.39771041
C       -1.26540012       0.06536272      -0.13697150
N       -2.55712385      -0.06939026      -0.62581261
C       -0.78921698       1.12949371       0.65795295
N        0.62253671       0.93790093       0.86845544
H        2.98833563      -0.20555321       0.82556187
H        2.47844375      -1.62722085      -0.09360431
H        2.79615744      -0.10747844      -0.92989687
H       -0.18223809      -1.67783951      -0.96346392
H       -3.26680050       0.40691416      -0.09530364
H       -2.82611234      -1.01413435      -0.84362090
H       -1.35159558       1.68907069       1.39265454
H        0.18750702       1.92635983       0.18538266
15
Frame=7 idx=011070 GeodesicLength=0.27772529913425564 rxn_smarts="[C:1]([c:2]1[c:3]([H:11])[c:4]([N:5]([H:12])[H:13])[c:6]([H:14])[n:7]1[H:15])([H:8])([H:9])[H:10]>>[C:1]([C:2]1=[N:7][C:6]([H:14])([H:15])[C:4]([N:5]([H:12])[H:13])=[C:3]1[H:11])([H:8])([H:9])[H:10]"
C        2.38399420      -0.54040415      -0.02031116
C        0.95500500      -0.15766821       0.17666004
C       -0.17537421      -0.76585347      -0.38849132
C       -1.26444247       0.06182605      -0.13783342
N       -2.55349767      -0.06741359      -0.63455362
C       -0.78869022       1.12835713       0.65780800
N        0.62000982       0.93569297       0.86587423
H        2.99307696      -0.19811127       0.81632211
H        2.48254842      -1.62443681      -0.09401294
H        2.78810621      -0.10656963      -0.93852264
H       -0.18473094      -1.69280967      -0.94477667
H       -3.26267113       0.42392685      -0.11727572
H       -2.83030601      -1.01239363      -0.84141213
H       -1.35341536       1.67102043       1.40372234
H        0.19038740       1.94483699       0.19680289
15
Frame=8 idx=011070 GeodesicLength=0.31741182057467787 rxn_smarts="[C:1]([c:2]1[c:3]([H:11])[c:4]([N:5]([H:12])[H:13])[c:6]([H:14])[n:7]1[H:15])([H:8])([H:9])[H:10]>>[C:1]([C:2]1=[N:7][C:6]([H:14])([H:15])[C:4]([N:5]([H:12])[H:13])=[C:3]1[H:11])([H:8])([H:9])[H:10]"
C        2.38403097      -0.53778359      -0.02449132
C        0.95470177      -0.16152261       0.18095264
C       -0.17725563      -0.77531056      -0.37885833
C       -1.26340949       0.05837540      -0.13885323
N       -2.54978133      -0.06557043      -0.64322778
C       -0.78817316       1.12733956       0.65754563
N        0.61749872       0.93363499       0.86311848
H        2.99772946      -0.19066254       0.80687748
H        2.48652020      -1.62170632      -0.09440903
H        2.77975084      -0.10589115      -0.94722968
H       -0.18721063      -1.70745313      -0.92620906
H       -3.25812557       0.44036228      -0.13906999
H       -2.83440465      -1.01054386      -0.83938690
H       -1.35516816       1.65311005       1.41418076
H        0.19329666       1.96362191       0.20906034
15
Frame=9 idx=011070 GeodesicLength=0.3570886666803015 rxn_smarts="[C:1]([c:2]1[c:3]([H:11])[c:4]([N:5]([H:12])[H:13])[c:6]([H:14])[n:7]1[H:15])([H:8])([H:9])[H:10]>>[C:1]([C:2]1=[N:7][C:6]([H:14])([H:15])[C:4]([N:5]([H:12])[H:13])=[C:3]1[H:11])([H:8])([H:9])[H:10]"
C        2.38390845      -0.53538343      -0.02848544
C        0.95436127      -0.16535352       0.18532167
C       -0.17919627      -0.78471706      -0.36905308
C       -1.26231796       0.05504630      -0.14006093
N       -2.54612971      -0.06403170      -0.65148887
C       -0.78764370       1.12657850       0.65697456
N        0.61503352       0.93188826       0.85994989
H        3.00214955      -0.18342476       0.79758177
H        2.49020331      -1.61918906      -0.09450829
H        2.77134786      -0.10568114      -0.95571650
H       -0.18947212      -1.72108084      -0.90895373
H       -3.25331264       0.45577021      -0.15998840
H       -2.83839147      -1.00879772      -0.83729818
H       -1.35677481       1.63557812       1.42383655
H        0.19623472       1.98279782       0.22188898
15
Frame=10 idx=011070 GeodesicLength=0.39675978181408134 rxn_smarts="[C:1]([c:2]1[c:3]([H:11])[c:4]([N:5]([H:12])[H:13])[c:6]([H:14])[n:7]1[H:15])([H:8])([H:9])[H:10]>>[C:1]([C:2]1=[N:7][C:6]([H:14])([H:15])[C:4]([N:5]([H:12])[H:13])=[C:3]1[H:11])([H:8])([H:9])[H:10]"
C        2.38364040      -0.53315979      -0.03236687
C        0.95399104      -0.16916911       0.18977752
C       -0.18119244      -0.79408401      -0.35905426
C       -1.26116222       0.05181348      -0.14143728
N       -2.54250378      -0.06273996      -0.65945757
C       -0.78710660       1.12602820       0.65614735
N        0.61261370       0.93041941       0.85639893
H        3.00638631      -0.17633668       0.78832762
H        2.49364977      -1.61683669      -0.09439091
H        2.76284700      -0.10587583      -0.96407517
H       -0.19158091      -1.73397005      -0.89260710
H       -3.24824545       0.47032443      -0.18026073
H       -2.84226693      -1.00711188      -0.83521207
H       -1.35824997       1.61835480       1.43277911
H        0.19918008       2.00234368       0.23543143
15
Frame=11 idx=011070 GeodesicLength=0.43642530864217877 rxn_smarts="[C:1]([c:2]1[c:3]([H:11])[c:4]([N:5]([H:12])[H:13])[c:6]([H:14])[n:7]1[H:15])([H:8])([H:9])[H:10]>>[C:1]([C:2]1=[N:7][C:6]([H:14])([H:15])[C:4]([N:5]([H:12])[H:13])=[C:3]1[H:11])([H:8])([H:9])[H:10]"
C        2.38323665      -0.53113454      -0.03610076
C        0.95359734      -0.17293772       0.19426985
C       -0.18322881      -0.80334638      -0.34896854
C       -1.25994650       0.04867963      -0.14299197
N       -2.53894037      -0.06171484      -0.66708851
C       -0.78655815       1.12570711       0.65502756
N        0.61025061       0.92926821       0.85238600
H        3.01041771      -0.16944203       0.77918306
H        2.49683753      -1.61467550      -0.09400554
H        2.75432836      -0.10651719      -0.97225198
H       -0.19351420      -1.74607447      -0.87729634
H       -3.24299194       0.48397713      -0.19977906
H       -2.84603053      -1.00553028      -0.83308251
H       -1.35956867       1.60146113       1.44100953
H        0.20211097       2.02227972       0.24968920
15
Frame=12 idx=011070 GeodesicLength=0.47609431491555776 rxn_smarts="[C:1]([c:2]1[c:3]([H:11])[c:4]([N:5]([H:12])[H:13])[c:6]([H:14])[n:7]1[H:15])([H:8])([H:9])[H:10]>>[C:1]([C:2]1=[N:7][C:6]([H:14])([H:15])[C:4]([N:5]([H:12])[H:13])=[C:3]1[H:11])([H:8])([H:9])[H:10]"
C        2.38270932      -0.52928569      -0.03972679
C        0.95318759      -0.17665049       0.19878271
C       -0.18529754      -0.81249039      -0.33882491
C       -1.25866920       0.04563303      -0.14472268
N       -2.53542524      -0.06092328      -0.67444996
C       -0.78600071       1.12559283       0.65363780
N        0.60794849       0.92842992       0.84789870
H        3.01426969      -0.16270821       0.77009539
H        2.49979191      -1.61268394      -0.09338281
H        2.74578557      -0.10758293      -0.98029675
H       -0.19531537      -1.75756486      -0.86276467
H       -3.23757441       0.49682187      -0.21865902
H       -2.84968338      -1.00403365      -0.83095176
H       -1.36072889       1.58484612       1.44859323
H        0.20500216       2.04259968       0.26477151
15
Frame=13 idx=011070 GeodesicLength=0.5157514282601458 rxn_smarts="[C:1]([c:2]1[c:3]([H:11])[c:4]([N:5]([H:12])[H:13])[c:6]([H:14])[n:7]1[H:15])([H:8])([H:9])[H:10]>>[C:1]([C:2]1=[N:7][C:6]([H:14])([H:15])[C:4]([N:5]([H:12])[H:13])=[C:3]1[H:11])([H:8])([H:9])[H:10]"
C        2.38206717      -0.52757546      -0.04331435
C        0.95276880      -0.18030747       0.20331650
C       -0.18739244      -0.82152320      -0.32859959
C       -1.25732400       0.04265722      -0.14662119
N       -2.53191508      -0.06031327      -0.68165222
C       -0.78544292       1.12564014       0.65202309
N        0.60570478       0.92787849       0.84294515
H        3.01798424      -0.15606059       0.76094500
H        2.50255500      -1.61081610      -0.09256850
H        2.73716651      -0.10904893      -0.98830314
H       -0.19704425      -1.76866102      -0.84862646
H       -3.23197931       0.50901336      -0.23711823
H       -2.85322335      -1.00257240      -0.82887647
H       -1.36174441       1.56841977       1.45561150
H        0.20781928       2.06326946       0.28083892
15
Frame=14 idx=011070 GeodesicLength=0.555429614740502 rxn_smarts="[C:1]([c:2]1[c:3]([H:11])[c:4]([N:5]([H:12])[H:13])[c:6]([H:14])[n:7]1[H:15])([H:8])([H:9])[H:10]>>[C:1]([C:2]1=[N:7][C:6]([H:14])([H:15])[C:4]([N:5]([H:12])[H:13])=[C:3]1[H:11])([H:8])([H:9])[H:10]"
C        2.38130318      -0.52587864      -0.04709162
C        0.95234628      -0.18397285       0.20798619
C       -0.18953309      -0.83058526      -0.31804967
C       -1.25588169       0.03970537      -0.14865375
N       -2.52824225      -0.05974780      -0.68903728
C       -0.78490109       1.12574298       0.65033548
N        0.60349881       0.92749883       0.83770508
H        3.02168992      -0.14927805       0.75135279
H        2.50525410      -1.60893309      -0.09181843
H        2.72819069      -0.11073599      -0.99657900
H       -0.19889178      -1.77999415      -0.83374028
H       -3.22605414       0.52097360      -0.25584909
H       -2.85664147      -1.00098129      -0.82708990
H       -1.36268856       1.55197821       1.46224232
H        0.21055108       2.08420815       0.29828714
15
Frame=15 idx=011070 GeodesicLength=0.5951120528256706 rxn_smarts="[C:1]([c:2]1[c:3]([H:11])[c:4]([N:5]([H:12])[H:13])[c:6]([H:14])[n:7]1[H:15])([H:8])([H:9])[H:10]>>[C:1]([C:2]1=[N:7][C:6]([H:14])([H:15])[C:4]([N:5]([H:12])[H:13])=[C:3]1[H:11])([H:8])([H:9])[H:10]"
C        2.38043362      -0.52430705      -0.05087158
C        0.95192858      -0.18754564       0.21263219
C       -0.19168377      -0.83949273      -0.30748401
C       -1.25436818       0.03681540      -0.15086314
N       -2.52455835      -0.05934707      -0.69633045
C       -0.78436321       1.12599756       0.64842696
N        0.60136238       0.92743988       0.83191756
H        3.02527417      -0.14254076       0.74163174
H        2.50777115      -1.60716224      -0.09086909
H        2.71914645      -0.11285300      -1.00487131
H       -0.20071465      -1.79107977      -0.81896897
H       -3.21995918       0.53237223      -0.27429181
H       -2.85994926      -0.99942373      -0.82537309
H       -1.36347128       1.53565119       1.46838075
H        0.21315152       2.10547572       0.31693424
15
Frame=16 idx=011070 GeodesicLength=0.6348052606990615 rxn_smarts="[C:1]([c:2]1[c:3]([H:11])[c:4]([N:5]([H:12])[H:13])[c:6]([H:14])[n:7]1[H:15])([H:8])([H:9])[H:10]>>[C:1]([C:2]1=[N:7][C:6]([H:14])([H:15])[C:4]([N:5]([H:12])[H:13])=[C:3]1[H:11])([H:8])([H:9])[H:10]"
C        2.37946332      -0.52284486      -0.05469056
C        0.95152140      -0.19101357       0.21724353
C       -0.19383931      -0.84824386      -0.29690063
C       -1.25278087       0.03397910      -0.15325050
N       -2.52084260      -0.05909219      -0.70359082
C       -0.78383515       1.12638872       0.64631338
N        0.59929684       0.92771019       0.82555009
H        3.02875856      -0.13579469       0.73170918
H        2.51012516      -1.60548608      -0.08971370
H        2.71001101      -0.11541960      -1.01323909
H       -0.20254253      -1.80202041      -0.80411814
H       -3.21368344       0.54329559      -0.29257517
H       -2.86315156      -0.99788463      -0.82373778
H       -1.36408859       1.51938335       1.47407647
H        0.21558778       2.12704293       0.33692376
