15
Frame=0 idx=002542 GeodesicLength=0.0 rxn_smarts="[C:1]([C:2]([N:3]([C:4](=[O:5])[C:6]([H:13])([H:14])[H:15])[H:12])([H:10])[H:11])([H:7])([H:8])[H:9]>>[C:1]([C:2]([N:3]([C-:4]=[O+:5][C:6]([H:13])([H:14])[H:15])[H:12])([H:10])[H:11])([H:7])([H:8])[H:9]"
C       -1.80054739       0.52254228       0.35187996
C       -1.25232076      -0.43290175      -0.69840382
N        0.07200481      -0.05166740      -1.17385683
C        1.23723737      -0.48425454      -0.66278734
O        1.14064101      -1.29003847       0.34986387
C        2.20606178       0.06792640       0.80568818
H       -2.80336895       0.22114208       0.66173526
H       -1.85669322       1.54266794      -0.03408567
H       -1.15995311       0.52548472       1.23511374
H       -1.17885265      -1.43896135      -0.28485675
H       -1.91869593      -0.48079540      -1.56196330
H        0.13509379       0.55706621      -1.96974122
H        2.02652646       1.12256697       0.59736448
H        3.20590077      -0.23950497       0.53897535
H        1.94696602      -0.14127267       1.84507403
15
Frame=1 idx=002542 GeodesicLength=0.03913319738206918 rxn_smarts="[C:1]([C:2]([N:3]([C:4](=[O:5])[C:6]([H:13])([H:14])[H:15])[H:12])([H:10])[H:11])([H:7])([H:8])[H:9]>>[C:1]([C:2]([N:3]([C-:4]=[O+:5][C:6]([H:13])([H:14])[H:15])[H:12])([H:10])[H:11])([H:7])([H:8])[H:9]"
C       -1.82059076       0.51084180       0.35087167
C       -1.25869824      -0.43139573      -0.70401063
N        0.07020293      -0.04231558      -1.15930213
C        1.22879455      -0.49019442      -0.64749542
O        1.12283772      -1.27200381       0.38041706
C        2.22891228       0.06725520       0.79582294
H       -2.82556722       0.20257346       0.64678854
H       -1.87737374       1.53474052      -0.02488956
H       -1.18991453       0.50706933       1.24108483
H       -1.18904819      -1.44205113      -0.30106745
H       -1.91467757      -0.46970627      -1.57599400
H        0.14314703       0.57979759      -1.94384921
H        2.09482716       1.12171158       0.55458449
H        3.21887546      -0.28390463       0.54352577
H        1.96827313      -0.09241790       1.84351311
15
Frame=2 idx=002542 GeodesicLength=0.07630060310595903 rxn_smarts="[C:1]([C:2]([N:3]([C:4](=[O:5])[C:6]([H:13])([H:14])[H:15])[H:12])([H:10])[H:11])([H:7])([H:8])[H:9]>>[C:1]([C:2]([N:3]([C-:4]=[O+:5][C:6]([H:13])([H:14])[H:15])[H:12])([H:10])[H:11])([H:7])([H:8])[H:9]"
C       -1.84034180       0.49938330       0.34972591
C       -1.26460069      -0.42975939      -0.70926497
N        0.06835262      -0.03266232      -1.14479871
C        1.22046751      -0.49500612      -0.63231798
O        1.10593520      -1.25304292       0.41006407
C        2.25091407       0.06605652       0.78608294
H       -2.84709468       0.18406262       0.63200582
H       -1.89838838       1.52679679      -0.01622107
H       -1.21936321       0.48935591       1.24657511
H       -1.19803870      -1.44471900      -0.31657574
H       -1.91031128      -0.45899549      -1.58926509
H        0.15064134       0.60245781      -1.91787064
H        2.16157957       1.11730541       0.51168104
H        3.22987905      -0.32720672       0.55000381
H        1.99036937      -0.04402640       1.84017551
15
Frame=3 idx=002542 GeodesicLength=0.11124888044065478 rxn_smarts="[C:1]([C:2]([N:3]([C:4](=[O:5])[C:6]([H:13])([H:14])[H:15])[H:12])([H:10])[H:11])([H:7])([H:8])[H:9]>>[C:1]([C:2]([N:3]([C-:4]=[O+:5][C:6]([H:13])([H:14])[H:15])[H:12])([H:10])[H:11])([H:7])([H:8])[H:9]"
C       -1.85939845       0.48825173       0.34849771
C       -1.27000036      -0.42801916      -0.71415667
N        0.06643382      -0.02290715      -1.13062794
C        1.21231904      -0.49865734      -0.61747076
O        1.09009073      -1.23346347       0.43831588
C        2.27169397       0.06442121       0.77661874
H       -2.86752395       0.16582071       0.61765604
H       -1.91925972       1.51887823      -0.00808092
H       -1.24767750       0.47241765       1.25150431
H       -1.20585312      -1.44695554      -0.33132431
H       -1.90577953      -0.44869422      -1.60163855
H        0.15743918       0.62470949      -1.89220554
H        2.22590836       1.10949868       0.46930475
H        3.23880889      -0.36872468       0.55851832
H        2.01279864       0.00342385       1.83508896
15
Frame=4 idx=002542 GeodesicLength=0.1437301568354048 rxn_smarts="[C:1]([C:2]([N:3]([C:4](=[O:5])[C:6]([H:13])([H:14])[H:15])[H:12])([H:10])[H:11])([H:7])([H:8])[H:9]>>[C:1]([C:2]([N:3]([C-:4]=[O+:5][C:6]([H:13])([H:14])[H:15])[H:12])([H:10])[H:11])([H:7])([H:8])[H:9]"
C       -1.87733007       0.47754521       0.34728062
C       -1.27487894      -0.42621819      -0.71869349
N        0.06446056      -0.01332231      -1.11714197
C        1.20444286      -0.50121793      -0.60322969
O        1.07543587      -1.21373189       0.46467720
C        2.29084718       0.06248456       0.76758249
H       -2.88643037       0.14810583       0.60408459
H       -1.93943586       1.51107390      -0.00041687
H       -1.27419502       0.45631015       1.25583332
H       -1.21257956      -1.44880280      -0.34528957
H       -1.90128703      -0.43880844      -1.61299676
H        0.16347588       0.64622359      -1.86729771
H        2.28690931       1.09862658       0.42811753
H        3.24562728      -0.40773470       0.56912908
H        2.03493791       0.04946644       1.82836123
15
Frame=5 idx=002542 GeodesicLength=0.17355647566787638 rxn_smarts="[C:1]([C:2]([N:3]([C:4](=[O:5])[C:6]([H:13])([H:14])[H:15])[H:12])([H:10])[H:11])([H:7])([H:8])[H:9]>>[C:1]([C:2]([N:3]([C-:4]=[O+:5][C:6]([H:13])([H:14])[H:15])[H:12])([H:10])[H:11])([H:7])([H:8])[H:9]"
C       -1.89379048       0.46739576       0.34622266
C       -1.27922652      -0.42441814      -0.72290364
N        0.06250778      -0.00421081      -1.10474965
C        1.19700112      -0.50286214      -0.58992443
O        1.06207708      -1.19451917       0.48869716
C        2.30801037       0.06040828       0.75911056
H       -2.90352282       0.13121959       0.59171972
H       -1.95843087       1.50357552       0.00687000
H       -1.29836892       0.44109087       1.25961932
H       -1.21833996      -1.45038904      -0.35846192
H       -1.89701628      -0.42932692      -1.62328359
H        0.16879762       0.66666916      -1.84370667
H        2.34378539       1.08534630       0.38877314
H        3.25047475      -0.44362305       0.58174052
H        2.05604174       0.09364379       1.82027681
15
Frame=6 idx=002542 GeodesicLength=0.2004675139748684 rxn_smarts="[C:1]([C:2]([N:3]([C:4](=[O:5])[C:6]([H:13])([H:14])[H:15])[H:12])([H:10])[H:11])([H:7])([H:8])[H:9]>>[C:1]([C:2]([N:3]([C-:4]=[O+:5][C:6]([H:13])([H:14])[H:15])[H:12])([H:10])[H:11])([H:7])([H:8])[H:9]"
C       -1.90813758       0.45800738       0.34524474
C       -1.28306927      -0.42268188      -0.72673424
N        0.06052242       0.00392485      -1.09379115
C        1.18999779      -0.50375267      -0.57776889
O        1.05015844      -1.17635728       0.50981017
C        2.32279252       0.05831859       0.75143898
H       -2.91815984       0.11568044       0.58077429
H       -1.97539889       1.49636597       0.01352770
H       -1.31920183       0.42707220       1.26254591
H       -1.22335474      -1.45156426      -0.37064711
H       -1.89332057      -0.42040290      -1.63222714
H        0.17324842       0.68540405      -1.82176465
H        2.39491274       1.07046599       0.35283249
H        3.25353558      -0.47514922       0.59552324
H        2.07547480       0.13466872       1.81123566
15
Frame=7 idx=002542 GeodesicLength=0.2257632099151709 rxn_smarts="[C:1]([C:2]([N:3]([C:4](=[O:5])[C:6]([H:13])([H:14])[H:15])[H:12])([H:10])[H:11])([H:7])([H:8])[H:9]>>[C:1]([C:2]([N:3]([C-:4]=[O+:5][C:6]([H:13])([H:14])[H:15])[H:12])([H:10])[H:11])([H:7])([H:8])[H:9]"
C       -1.92154847       0.44892697       0.34452177
C       -1.28654710      -0.42091359      -0.73043025
N        0.05859484       0.01184268      -1.08364290
C        1.18335231      -0.50408976      -0.56637572
O        1.03905384      -1.15880934       0.52936963
C        2.33621872       0.05623168       0.74415136
H       -2.93165119       0.10059146       0.57077481
H       -1.99164436       1.48944122       0.02021557
H       -1.33854125       0.41341617       1.26533688
H       -1.22769355      -1.45268643      -0.38252720
H       -1.88975773      -0.41155055      -1.64059478
H        0.17723903       0.70351110      -1.80087181
H        2.44366946       1.05385165       0.31774418
H        3.25520961      -0.50471294       0.61117999
H        2.09404585       0.17494969       1.80114848
15
Frame=8 idx=002542 GeodesicLength=0.2489658386323312 rxn_smarts="[C:1]([C:2]([N:3]([C:4](=[O:5])[C:6]([H:13])([H:14])[H:15])[H:12])([H:10])[H:11])([H:7])([H:8])[H:9]>>[C:1]([C:2]([N:3]([C-:4]=[O+:5][C:6]([H:13])([H:14])[H:15])[H:12])([H:10])[H:11])([H:7])([H:8])[H:9]"
C       -1.93318444       0.44041934       0.34408461
C       -1.28964477      -0.41920486      -0.73393579
N        0.05669808       0.01898690      -1.07484501
C        1.17712782      -0.50394029      -0.55612842
O        1.02902499      -1.14259245       0.54643491
C        2.34765951       0.05426053       0.73757758
H       -2.94314814       0.08654069       0.56220951
H       -2.00610469       1.48287511       0.02676112
H       -1.35507884       0.40052918       1.26772620
H       -1.23155424      -1.45365383      -0.39388199
H       -1.88673149      -0.40299317      -1.64805971
H        0.18062124       0.72019159      -1.78171077
H        2.48817939       1.03632447       0.28518695
H        3.25546914      -0.53095109       0.62814529
H        2.11066647       0.21320787       1.79043554
15
Frame=9 idx=002542 GeodesicLength=0.2710158680350299 rxn_smarts="[C:1]([C:2]([N:3]([C:4](=[O:5])[C:6]([H:13])([H:14])[H:15])[H:12])([H:10])[H:11])([H:7])([H:8])[H:9]>>[C:1]([C:2]([N:3]([C-:4]=[O+:5][C:6]([H:13])([H:14])[H:15])[H:12])([H:10])[H:11])([H:7])([H:8])[H:9]"
C       -1.94401905       0.43225298       0.34375155
C       -1.29248536      -0.41748845      -0.73729443
N        0.05486954       0.02578622      -1.06672866
C        1.17121469      -0.50347393      -0.54645589
O        1.01964769      -1.12697708       0.56221695
C        2.35800026       0.05230778       0.73134118
H       -2.95372771       0.07305760       0.55433491
H       -2.01985250       1.47653110       0.03313034
H       -1.37032332       0.38810509       1.26985390
H       -1.23499133      -1.45449804      -0.40486262
H       -1.88389122      -0.39457734      -1.65497180
H        0.18367091       0.73622923      -1.76332149
H        2.53008914       1.01749583       0.25409303
H        3.25489971      -0.55487938       0.64609438
H        2.12689855       0.25012837       1.77881864
15
Frame=10 idx=002542 GeodesicLength=0.29147839175759643 rxn_smarts="[C:1]([C:2]([N:3]([C:4](=[O:5])[C:6]([H:13])([H:14])[H:15])[H:12])([H:10])[H:11])([H:7])([H:8])[H:9]>>[C:1]([C:2]([N:3]([C-:4]=[O+:5][C:6]([H:13])([H:14])[H:15])[H:12])([H:10])[H:11])([H:7])([H:8])[H:9]"
C       -1.95313178       0.42461824       0.34370738
C       -1.29503075      -0.41584403      -0.74051236
N        0.05307019       0.03178100      -1.05991413
C        1.16566633      -0.50270369      -0.53790021
O        1.01117037      -1.11283669       0.57562987
C        2.36653025       0.05055099       0.72578749
H       -2.96242045       0.06059056       0.54783606
H       -2.03177502       1.47051402       0.03943879
H       -1.38285534       0.37637866       1.27161836
H       -1.23815627      -1.45521184      -0.41545607
H       -1.88164062      -0.38640691      -1.66107907
H        0.18619885       0.75083165      -1.74661877
H        2.56811659       0.99834395       0.22559243
H        3.25315699      -0.57572554       0.66501153
H        2.14110067       0.28511965       1.76685869
15
Frame=11 idx=002542 GeodesicLength=0.3109235003129709 rxn_smarts="[C:1]([C:2]([N:3]([C:4](=[O:5])[C:6]([H:13])([H:14])[H:15])[H:12])([H:10])[H:11])([H:7])([H:8])[H:9]>>[C:1]([C:2]([N:3]([C-:4]=[O+:5][C:6]([H:13])([H:14])[H:15])[H:12])([H:10])[H:11])([H:7])([H:8])[H:9]"
C       -1.96129463       0.41734831       0.34383463
C       -1.29738737      -0.41422777      -0.74364008
N        0.05132427       0.03732481      -1.05391907
C        1.16041408      -0.50174069      -0.53004686
O        1.00329066      -1.09966773       0.58762879
C        2.37395193       0.04890307       0.72066767
H       -2.97008416       0.04876595       0.54218302
H       -2.04273362       1.46477140       0.04565620
H       -1.39384749       0.36512097       1.27318578
H       -1.24109601      -1.45586605      -0.42576619
H       -1.87973241      -0.37837541      -1.66670224
H        0.18841235       0.76460057      -1.73098435
H        2.60359271       0.97857446       0.19887285
H        3.25072902      -0.59426461       0.68464248
H        2.15446065       0.31873273       1.75438737
15
Frame=12 idx=002542 GeodesicLength=0.3296960270913498 rxn_smarts="[C:1]([C:2]([N:3]([C:4](=[O:5])[C:6]([H:13])([H:14])[H:15])[H:12])([H:10])[H:11])([H:7])([H:8])[H:9]>>[C:1]([C:2]([N:3]([C-:4]=[O+:5][C:6]([H:13])([H:14])[H:15])[H:12])([H:10])[H:11])([H:7])([H:8])[H:9]"
C       -1.96888936       0.41032834       0.34406353
C       -1.29958304      -0.41261392      -0.74669345
N        0.04965809       0.04259059      -1.04843153
C        1.15538841      -0.50068264      -0.52264115
O        0.99576881      -1.08712435       0.59876754
C        2.38064377       0.04731655       0.71579009
H       -2.97713513       0.03737706       0.53703752
H       -2.05312274       1.45922088       0.05180317
H       -1.40394032       0.35417480       1.27462818
H       -1.24383026      -1.45646310      -0.43586831
H       -1.87796761      -0.37041180      -1.67198897
H        0.19045811       0.77786744      -1.71594457
H        2.63720759       0.95812750       0.17338509
H        3.24786762      -0.61102080       0.70477672
H        2.16747606       0.35131345       1.74131613
15
Frame=13 idx=002542 GeodesicLength=0.34760415642415016 rxn_smarts="[C:1]([C:2]([N:3]([C:4](=[O:5])[C:6]([H:13])([H:14])[H:15])[H:12])([H:10])[H:11])([H:7])([H:8])[H:9]>>[C:1]([C:2]([N:3]([C-:4]=[O+:5][C:6]([H:13])([H:14])[H:15])[H:12])([H:10])[H:11])([H:7])([H:8])[H:9]"
C       -1.97518418       0.40370845       0.34451868
C       -1.30159681      -0.41103976      -0.74966721
N        0.04800688       0.04724507      -1.04391928
C        1.15060995      -0.49946551      -0.51609570
O        0.98888948      -1.07584337       0.60809211
C        2.38600141       0.04591738       0.71146318
H       -2.98277373       0.02675002       0.53293901
H       -2.06211552       1.45390271       0.05793630
H       -1.41197791       0.34376189       1.27581699
H       -1.24645707      -1.45693629      -0.44575014
H       -1.87669124      -0.36260152      -1.67671030
H        0.19213129       0.78998929      -1.70222205
H        2.66797475       0.93754057       0.15008235
H        3.24417188      -0.62531383       0.72552080
H        2.17901084       0.38238488       1.72799527
15
Frame=14 idx=002542 GeodesicLength=0.364746890716111 rxn_smarts="[C:1]([C:2]([N:3]([C:4](=[O:5])[C:6]([H:13])([H:14])[H:15])[H:12])([H:10])[H:11])([H:7])([H:8])[H:9]>>[C:1]([C:2]([N:3]([C-:4]=[O+:5][C:6]([H:13])([H:14])[H:15])[H:12])([H:10])[H:11])([H:7])([H:8])[H:9]"
C       -1.98056223       0.39746992       0.34516971
C       -1.30347213      -0.40951385      -0.75257296
N        0.04645553       0.05136435      -1.04021926
C        1.14614618      -0.49827272      -0.51026827
O        0.98249453      -1.06579524       0.61606989
C        2.39034354       0.04468029       0.70753938
H       -2.98747895       0.01682356       0.52970893
H       -2.07009240       1.44890373       0.06402410
H       -1.41853510       0.33380830       1.27685628
H       -1.24902770      -1.45739865      -0.45540237
H       -1.87577739      -0.35489333      -1.68100756
H        0.19363374       0.80122311      -1.68960115
H        2.69634718       0.91705808       0.12861820
H        3.24010047      -0.63748829       0.74657854
H        2.18942474       0.41203073       1.71450652
15
Frame=15 idx=002542 GeodesicLength=0.38146930662398554 rxn_smarts="[C:1]([C:2]([N:3]([C:4](=[O:5])[C:6]([H:13])([H:14])[H:15])[H:12])([H:10])[H:11])([H:7])([H:8])[H:9]>>[C:1]([C:2]([N:3]([C-:4]=[O+:5][C:6]([H:13])([H:14])[H:15])[H:12])([H:10])[H:11])([H:7])([H:8])[H:9]"
C       -1.98535896       0.39144500       0.34593385
C       -1.30524938      -0.40799003      -0.75543543
N        0.04494653       0.05521514      -1.03699875
C        1.14184951      -0.49702661      -0.50488938
O        0.97641035      -1.05646479       0.62317695
C        2.39404788       0.04353755       0.70388331
H       -2.99156372       0.00727453       0.52699123
H       -2.07746262       1.44405265       0.07009415
H       -1.42415445       0.32414105       1.27778493
H       -1.25152550      -1.45779747      -0.46493972
H       -1.87508076      -0.34723403      -1.68502072
H        0.19497564       0.81190900      -1.67762607
H        2.72319876       0.89624617       0.10843374
H        3.23562661      -0.64810188       0.76798617
H        2.19934011       0.44079372       1.70062575
15
Frame=16 idx=002542 GeodesicLength=0.39797648936426094 rxn_smarts="[C:1]([C:2]([N:3]([C:4](=[O:5])[C:6]([H:13])([H:14])[H:15])[H:12])([H:10])[H:11])([H:7])([H:8])[H:9]>>[C:1]([C:2]([N:3]([C-:4]=[O+:5][C:6]([H:13])([H:14])[H:15])[H:12])([H:10])[H:11])([H:7])([H:8])[H:9]"
C       -1.98985409       0.38551334       0.34675271
C       -1.30695296      -0.40643394      -0.75826768
N        0.04346366       0.05898809      -1.03401345
C        1.13764951      -0.49569026      -0.49974923
O        0.97051954      -1.04747951       0.62979060
C        2.39740085       0.04243492       0.70038009
H       -2.99530893      -0.00212436       0.52452078
H       -2.08455454       1.43924403       0.07616712
H       -1.42928190       0.31461118       1.27864273
H       -1.25392519      -1.45811145      -0.47443520
H       -1.87448172      -0.33956656      -1.68885202
H        0.19619431       0.82233830      -1.66593167
H        2.74913973       0.87476351       0.08906499
H        3.23078287      -0.65755498       0.78979316
H        2.20920884       0.46906767       1.68613708
