19
Frame=0 idx=011862 GeodesicLength=0.0 rxn_smarts="[C:1]([C:2]([C@@:3]1([H:13])[C:4]([H:14])([H:15])[C@:5]1([C:6]([H:16])([H:17])[H:18])[O:7][H:19])([H:11])[H:12])([H:8])([H:9])[H:10]>>[C:1]1([H:9])([H:10])[C:2]([H:11])([H:12])[C:3]1([C:4]([C@:5]([C:6]([H:16])([H:17])[H:18])([O:7][H:19])[H:8])([H:14])[H:15])[H:13]"
C        1.85426765       0.12835719       0.83831497
C        1.64772418      -0.42219186      -0.57434033
C        0.62738896       0.35742576      -1.23414343
C       -0.76699319      -0.08650673      -1.32224066
C       -0.90674007       0.26833375       0.16174558
C       -1.64113375      -0.80249977       0.95761319
O       -1.49796502       1.54203715       0.26399237
H        0.16171385       0.24542032       0.75422985
H        1.83371529       1.22438946       0.86101147
H        2.77367914      -0.22666049       1.31589427
H        1.44152719      -1.49605639      -0.58355846
H        2.58352215      -0.24807892      -1.13317889
H        0.83486372       1.41075798      -1.39502811
H       -0.88819023      -1.15355795      -1.50317687
H       -1.42035022       0.50574364      -1.95804526
H       -2.66240578      -0.91930034       0.58659294
H       -1.66996036      -0.52608946       2.01401275
H       -1.11891248      -1.75713282       0.87892787
H       -1.18575100       1.95560956       1.07137676
19
Frame=1 idx=011862 GeodesicLength=0.12341301901456829 rxn_smarts="[C:1]([C:2]([C@@:3]1([H:13])[C:4]([H:14])([H:15])[C@:5]1([C:6]([H:16])([H:17])[H:18])[O:7][H:19])([H:11])[H:12])([H:8])([H:9])[H:10]>>[C:1]1([H:9])([H:10])[C:2]([H:11])([H:12])[C:3]1([C:4]([C@:5]([C:6]([H:16])([H:17])[H:18])([O:7][H:19])[H:8])([H:14])[H:15])[H:13]"
C        1.87037245       0.13708989       0.81744233
C        1.66076376      -0.43375742      -0.58346565
C        0.62961150       0.36559421      -1.20571157
C       -0.76095262      -0.09103392      -1.31218150
C       -0.90671585       0.26043822       0.17115599
C       -1.66767917      -0.80290748       0.95161955
O       -1.49838318       1.53563250       0.27100449
H        0.17562110       0.21724870       0.79968004
H        1.80511361       1.22785660       0.89111156
H        2.82544339      -0.16629920       1.25964278
H        1.44338406      -1.50489245      -0.58101945
H        2.58593857      -0.26714528      -1.15974381
H        0.83359371       1.41741932      -1.37679737
H       -0.87120742      -1.15825168      -1.49877453
H       -1.41094169       0.49755134      -1.95457308
H       -2.68554947      -0.90642632       0.56759489
H       -1.71269825      -0.52899633       2.00812794
H       -1.15734711      -1.76426113       0.87652700
H       -1.15836738       1.96514043       1.05836041
19
Frame=2 idx=011862 GeodesicLength=0.24598517867978975 rxn_smarts="[C:1]([C:2]([C@@:3]1([H:13])[C:4]([H:14])([H:15])[C@:5]1([C:6]([H:16])([H:17])[H:18])[O:7][H:19])([H:11])[H:12])([H:8])([H:9])[H:10]>>[C:1]1([H:9])([H:10])[C:2]([H:11])([H:12])[C:3]1([C:4]([C@:5]([C:6]([H:16])([H:17])[H:18])([O:7][H:19])[H:8])([H:14])[H:15])[H:13]"
C        1.88494470       0.14620058       0.79653525
C        1.67350348      -0.44475523      -0.59283901
C        0.63189400       0.37289436      -1.17752568
C       -0.75487018      -0.09568313      -1.30215292
C       -0.90652034       0.25264184       0.18049476
C       -1.69320316      -0.80279444       0.94570674
O       -1.49799127       1.52958179       0.27820167
H        0.19043156       0.18781101       0.84514364
H        1.77679873       1.22744987       0.92406258
H        2.87133161      -0.10414615       1.20216467
H        1.44633601      -1.51326809      -0.57867266
H        2.58765595      -0.28487424      -1.18618878
H        0.83217111       1.42309774      -1.35944744
H       -0.85450737      -1.16297665      -1.49400425
H       -1.40125823       0.48947353      -1.95105387
H       -2.70759274      -0.89298043       0.54934488
H       -1.75348766      -0.53113988       2.00208140
H       -1.19491209      -1.77071403       0.87371491
H       -1.13072411       1.97418155       1.04443411
19
Frame=3 idx=011862 GeodesicLength=0.36788789047687404 rxn_smarts="[C:1]([C:2]([C@@:3]1([H:13])[C:4]([H:14])([H:15])[C@:5]1([C:6]([H:16])([H:17])[H:18])[O:7][H:19])([H:11])[H:12])([H:8])([H:9])[H:10]>>[C:1]1([H:9])([H:10])[C:2]([H:11])([H:12])[C:3]1([C:4]([C@:5]([C:6]([H:16])([H:17])[H:18])([O:7][H:19])[H:8])([H:14])[H:15])[H:13]"
C        1.89785557       0.15557979       0.77577253
C        1.68590838      -0.45513907      -0.60238781
C        0.63420639       0.37937010      -1.14968090
C       -0.74878824      -0.10044894      -1.29223131
C       -0.90624146       0.24498940       0.18965063
C       -1.71767973      -0.80214357       0.93989919
O       -1.49684432       1.52392282       0.28552225
H        0.20621579       0.15717771       0.89055881
H        1.74917482       1.22284222       0.95965082
H        2.91120054      -0.04013457       1.14367174
H        1.45033707      -1.52116977      -0.57660438
H        2.58874305      -0.30121749      -1.21231193
H        0.83056427       1.42784035      -1.34294920
H       -0.83811058      -1.16774673      -1.48891895
H       -1.39136302       0.48148358      -1.94756428
H       -2.72854053      -0.87899997       0.53190772
H       -1.79227137      -0.53248467       1.99592921
H       -1.23150866      -1.77643469       0.87053346
H       -1.10285798       1.98271349       1.02955240
19
Frame=4 idx=011862 GeodesicLength=0.489336916060187 rxn_smarts="[C:1]([C:2]([C@@:3]1([H:13])[C:4]([H:14])([H:15])[C@:5]1([C:6]([H:16])([H:17])[H:18])[O:7][H:19])([H:11])[H:12])([H:8])([H:9])[H:10]>>[C:1]1([H:9])([H:10])[C:2]([H:11])([H:12])[C:3]1([C:4]([C@:5]([C:6]([H:16])([H:17])[H:18])([O:7][H:19])[H:8])([H:14])[H:15])[H:13]"
C        1.90899464       0.16509439       0.75535034
C        1.69795878      -0.46488642      -0.61202327
C        0.63651415       0.38505498      -1.12224832
C       -0.74274928      -0.10532431      -1.28249058
C       -0.90596671       0.23752949       0.19851864
C       -1.74112020      -0.80094115       0.93420659
O       -1.49494711       1.51871600       0.29293071
H        0.22304048       0.12530949       0.93590875
H        1.72269041       1.21366864       0.99759730
H        2.94487533       0.02608867       1.08431450
H        1.45532074      -1.52861664      -0.57489310
H        2.58930775      -0.31617553      -1.23790697
H        0.82874681       1.43167756      -1.32727015
H       -0.82204198      -1.17256880      -1.48357482
H       -1.38130889       0.47357080      -1.94418098
H       -2.74843406      -0.86449133       0.51531749
H       -1.82903213      -0.53302224       1.98971095
H       -1.26709589      -1.78139590       0.86701090
H       -1.07475281       1.99071229       1.01372203
19
Frame=5 idx=011862 GeodesicLength=0.6104561956268427 rxn_smarts="[C:1]([C:2]([C@@:3]1([H:13])[C:4]([H:14])([H:15])[C@:5]1([C:6]([H:16])([H:17])[H:18])[O:7][H:19])([H:11])[H:12])([H:8])([H:9])[H:10]>>[C:1]1([H:9])([H:10])[C:2]([H:11])([H:12])[C:3]1([C:4]([C@:5]([C:6]([H:16])([H:17])[H:18])([O:7][H:19])[H:8])([H:14])[H:15])[H:13]"
C        1.91864438       0.17497534       0.73527241
C        1.70970279      -0.47380261      -0.62164824
C        0.63878147       0.39007840      -1.09520683
C       -0.73673929      -0.11035704      -1.27294469
C       -0.90581122       0.23031312       0.20701104
C       -1.76357750      -0.79914516       0.92863445
O       -1.49242378       1.51400150       0.30030170
H        0.24088156       0.09214248       0.98126689
H        1.69743598       1.20005288       1.03742960
H        2.97254955       0.09352178       1.02431959
H        1.46136187      -1.53539793      -0.57337176
H        2.58934130      -0.32962749      -1.26295170
H        0.82662229       1.43472060      -1.31243572
H       -0.80617252      -1.17751388      -1.47792284
H       -1.37112581       0.46557213      -1.94097596
H       -2.76733306      -0.84948282       0.49956415
H       -1.86386733      -0.53267517       1.98343734
H       -1.30170660      -1.78555010       0.86321224
H       -1.04656409       1.99817398       0.99700834
19
Frame=6 idx=011862 GeodesicLength=0.73139776167536 rxn_smarts="[C:1]([C:2]([C@@:3]1([H:13])[C:4]([H:14])([H:15])[C@:5]1([C:6]([H:16])([H:17])[H:18])[O:7][H:19])([H:11])[H:12])([H:8])([H:9])[H:10]>>[C:1]1([H:9])([H:10])[C:2]([H:11])([H:12])[C:3]1([C:4]([C@:5]([C:6]([H:16])([H:17])[H:18])([O:7][H:19])[H:8])([H:14])[H:15])[H:13]"
C        1.92650135       0.18480983       0.71583113
C        1.72113729      -0.48196855      -0.63121702
C        0.64098160       0.39440003      -1.06869138
C       -0.73082187      -0.11553608      -1.26367989
C       -0.90581746       0.22337001       0.21504712
C       -1.78510210      -0.79674708       0.92321191
O       -1.48917186       1.50984755       0.30769665
H        0.25990355       0.05745204       1.02655802
H        1.67399985       1.18165865       1.07873307
H        2.99375972       0.16318432       0.96398162
H        1.46839541      -1.54163705      -0.57235664
H        2.58908906      -0.34154344      -1.28713335
H        0.82422089       1.43693917      -1.29844430
H       -0.79059531      -1.18259346      -1.47204015
H       -1.36087993       0.45754520      -1.93799340
H       -2.78533392      -0.83390793       0.48470960
H       -1.89675797      -0.53144701       1.97719595
H       -1.33538703      -1.78888215       0.85915661
H       -1.01812127       2.00505595       0.97943445
19
Frame=7 idx=011862 GeodesicLength=0.8522442696302855 rxn_smarts="[C:1]([C:2]([C@@:3]1([H:13])[C:4]([H:14])([H:15])[C@:5]1([C:6]([H:16])([H:17])[H:18])[O:7][H:19])([H:11])[H:12])([H:8])([H:9])[H:10]>>[C:1]1([H:9])([H:10])[C:2]([H:11])([H:12])[C:3]1([C:4]([C@:5]([C:6]([H:16])([H:17])[H:18])([O:7][H:19])[H:8])([H:14])[H:15])[H:13]"
C        1.93250265       0.19443410       0.69721741
C        1.73231265      -0.48934209      -0.64068822
C        0.64307943       0.39804668      -1.04277289
C       -0.72503207      -0.12087455      -1.25474425
C       -0.90603883       0.21676493       0.22255362
C       -1.80572264      -0.79370902       0.91797126
O       -1.48516427       1.50633211       0.31510154
H        0.28023782       0.02096344       1.07173474
H        1.65267632       1.15854230       1.12088355
H        3.00815267       0.23509558       0.90377849
H        1.47640944      -1.54732886      -0.57202714
H        2.58876041      -0.35183247      -1.31029554
H        0.82152374       1.43834562      -1.28533262
H       -0.77531573      -1.18784304      -1.46592840
H       -1.35063118       0.44945108      -1.93528834
H       -2.80249312      -0.81772199       0.47081353
H       -1.92768383      -0.52930730       1.97106060
H       -1.36816511      -1.79137026       0.85489691
H       -0.98940838       2.01135373       0.96106575
19
Frame=8 idx=011862 GeodesicLength=0.9731229897722112 rxn_smarts="[C:1]([C:2]([C@@:3]1([H:13])[C:4]([H:14])([H:15])[C@:5]1([C:6]([H:16])([H:17])[H:18])[O:7][H:19])([H:11])[H:12])([H:8])([H:9])[H:10]>>[C:1]1([H:9])([H:10])[C:2]([H:11])([H:12])[C:3]1([C:4]([C@:5]([C:6]([H:16])([H:17])[H:18])([O:7][H:19])[H:8])([H:14])[H:15])[H:13]"
C        1.93662173       0.20367739       0.67954868
C        1.74330150      -0.49588991      -0.65006836
C        0.64504937       0.40103616      -1.01751227
C       -0.71939480      -0.12640006      -1.24617385
C       -0.90650641       0.21056382       0.22945170
C       -1.82546775      -0.78997880       0.91295404
O       -1.48034164       1.50352316       0.32248068
H        0.30198193      -0.01759285       1.11680172
H        1.63376629       1.13081377       1.16326377
H        3.01516836       0.30925684       0.84425527
H        1.48542825      -1.55250529      -0.57260539
H        2.58859147      -0.36037194      -1.33233007
H        0.81852069       1.43894170      -1.27313190
H       -0.76033769      -1.19330613      -1.45956874
H       -1.34042319       0.44121757      -1.93290494
H       -2.81888283      -0.80084555       0.45794023
H       -1.95661293      -0.52620591       1.96509935
H       -1.40006547      -1.79297940       0.85050619
H       -0.96039685       2.01704544       0.94199390
19
Frame=9 idx=011862 GeodesicLength=1.0941490380279735 rxn_smarts="[C:1]([C:2]([C@@:3]1([H:13])[C:4]([H:14])([H:15])[C@:5]1([C:6]([H:16])([H:17])[H:18])[O:7][H:19])([H:11])[H:12])([H:8])([H:9])[H:10]>>[C:1]1([H:9])([H:10])[C:2]([H:11])([H:12])[C:3]1([C:4]([C@:5]([C:6]([H:16])([H:17])[H:18])([O:7][H:19])[H:8])([H:14])[H:15])[H:13]"
C        1.93918849       0.21295823       0.66265397
C        1.75412356      -0.50127624      -0.65935519
C        0.64680411       0.40358401      -0.99296060
C       -0.71390263      -0.13216743      -1.23799556
C       -0.90734412       0.20483317       0.23562732
C       -1.84427051      -0.78550508       0.90824239
O       -1.47500993       1.50141632       0.32964238
H        0.32538476      -0.05838476       1.16171647
H        1.61691359       1.09931215       1.20517537
H        3.01514328       0.38307662       0.78640188
H        1.49559750      -1.55671270      -0.57395100
H        2.58846635      -0.36682078      -1.35327885
H        0.81503342       1.43893418      -1.26199115
H       -0.74547512      -1.19907059      -1.45287928
H       -1.33033698       0.43261916      -1.93093695
H       -2.83445133      -0.78342762       0.44620968
H       -1.98347837      -0.52196644       1.95937784
H       -1.43096694      -1.79358522       0.84613322
H       -0.93141913       2.02218303       0.92216808
19
Frame=10 idx=011862 GeodesicLength=1.2153196778606035 rxn_smarts="[C:1]([C:2]([C@@:3]1([H:13])[C:4]([H:14])([H:15])[C@:5]1([C:6]([H:16])([H:17])[H:18])[O:7][H:19])([H:11])[H:12])([H:8])([H:9])[H:10]>>[C:1]1([H:9])([H:10])[C:2]([H:11])([H:12])[C:3]1([C:4]([C@:5]([C:6]([H:16])([H:17])[H:18])([O:7][H:19])[H:8])([H:14])[H:15])[H:13]"
C        1.93977246       0.22153156       0.64688232
C        1.76486783      -0.50570456      -0.66859833
C        0.64834295       0.40556781      -0.96920692
C       -0.70862361      -0.13817661      -1.23026291
C       -0.90853849       0.19967715       0.24103723
C       -1.86218136      -0.78024458       0.90387599
O       -1.46896748       1.50014135       0.33660950
H        0.35052269      -0.10158486       1.20641490
H        1.60281341       1.06393896       1.24598791
H        3.00712759       0.45790655       0.73070188
H        1.50680312      -1.56031732      -0.57668073
H        2.58891908      -0.37114079      -1.37287447
H        0.81117228       1.43818837      -1.25182642
H       -0.73088964      -1.20514857      -1.44587097
H       -1.32039878       0.42369892      -1.92943637
H       -2.84929360      -0.76534069       0.43568197
H       -2.00822979      -0.51660654       1.95401637
H       -1.46086395      -1.79318945       0.84187114
H       -0.90235470       2.02680329       0.90167793
19
Frame=11 idx=011862 GeodesicLength=1.336687080476392 rxn_smarts="[C:1]([C:2]([C@@:3]1([H:13])[C:4]([H:14])([H:15])[C@:5]1([C:6]([H:16])([H:17])[H:18])[O:7][H:19])([H:11])[H:12])([H:8])([H:9])[H:10]>>[C:1]1([H:9])([H:10])[C:2]([H:11])([H:12])[C:3]1([C:4]([C@:5]([C:6]([H:16])([H:17])[H:18])([O:7][H:19])[H:8])([H:14])[H:15])[H:13]"
C        1.93832888       0.22924179       0.63228698
C        1.77556751      -0.50906561      -0.67790311
C        0.64960766       0.40706352      -0.94634747
C       -0.70359486      -0.14445009      -1.22302845
C       -0.91014950       0.19518786       0.24557329
C       -1.87914769      -0.77417105       0.89994705
O       -1.46237258       1.49972594       0.34322127
H        0.37761760      -0.14712519       1.25090054
H        1.59144461       1.02544689       1.28503968
H        2.99108326       0.53238939       0.67820040
H        1.51904239      -1.56325463      -0.58111711
H        2.59012292      -0.37306364      -1.39110013
H        0.80689158       1.43678859      -1.24265722
H       -0.71657114      -1.21158080      -1.43851422
H       -1.31067148       0.41434534      -1.92849342
H       -2.86341194      -0.74669985       0.42647392
H       -2.03079030      -0.51003741       1.94913313
H       -1.48956817      -1.79171165       0.83792066
H       -0.87342871       2.03097057       0.88046419
19
Frame=12 idx=011862 GeodesicLength=1.4582465004192322 rxn_smarts="[C:1]([C:2]([C@@:3]1([H:13])[C:4]([H:14])([H:15])[C@:5]1([C:6]([H:16])([H:17])[H:18])[O:7][H:19])([H:11])[H:12])([H:8])([H:9])[H:10]>>[C:1]1([H:9])([H:10])[C:2]([H:11])([H:12])[C:3]1([C:4]([C@:5]([C:6]([H:16])([H:17])[H:18])([O:7][H:19])[H:8])([H:14])[H:15])[H:13]"
C        1.93490232       0.23597200       0.61887896
C        1.78624047      -0.51129184      -0.68736107
C        0.65053349       0.40814012      -0.92443354
C       -0.69886797      -0.15100354      -1.21632768
C       -0.91226877       0.19148189       0.24915827
C       -1.89512662      -0.76725221       0.89652815
O       -1.45542376       1.50022877       0.34930182
H        0.40695052      -0.19505922       1.29509621
H        1.58263555       0.98454789       1.32175423
H        2.96730779       0.60534816       0.62993295
H        1.53224152      -1.56547527      -0.58750092
H        2.59220974      -0.37243366      -1.40800410
H        0.80216988       1.43480810      -1.23447787
H       -0.70253059      -1.21840487      -1.43075968
H       -1.30121678       0.40446543      -1.92820877
H       -2.87678520      -0.72761999       0.41869044
H       -2.05108705      -0.50216353       1.94478977
H       -1.51691829      -1.78909734       0.83444450
H       -0.84496625       2.03480911       0.85849833
19
Frame=13 idx=011862 GeodesicLength=1.5799812878482482 rxn_smarts="[C:1]([C:2]([C@@:3]1([H:13])[C:4]([H:14])([H:15])[C@:5]1([C:6]([H:16])([H:17])[H:18])[O:7][H:19])([H:11])[H:12])([H:8])([H:9])[H:10]>>[C:1]1([H:9])([H:10])[C:2]([H:11])([H:12])[C:3]1([C:4]([C@:5]([C:6]([H:16])([H:17])[H:18])([O:7][H:19])[H:8])([H:14])[H:15])[H:13]"
C        1.92966148       0.24206125       0.60648010
C        1.79679910      -0.51213614      -0.69692539
C        0.65102667       0.40902392      -0.90346736
C       -0.69444641      -0.15779998      -1.21020792
C       -0.91503967       0.18868143       0.25167140
C       -1.91003967      -0.75950670       0.89368780
O       -1.44854493       1.50164671       0.35459427
H        0.43886238      -0.24548881       1.33890746
H        1.57557386       0.94208446       1.35589671
H        2.93715389       0.67435535       0.58648063
H        1.54637371      -1.56658577      -0.59557409
H        2.59494674      -0.36910220      -1.42361295
H        0.79688083       1.43247129      -1.22728248
H       -0.68865551      -1.22558582      -1.42259151
H       -1.29204049       0.39396558      -1.92871407
H       -2.88938747      -0.70840133       0.41240886
H       -2.06902937      -0.49292102       1.94106885
H       -1.54266518      -1.78527941       0.83163804
H       -0.81742998       2.03851721       0.83554166
19
Frame=14 idx=011862 GeodesicLength=1.70172363835058 rxn_smarts="[C:1]([C:2]([C@@:3]1([H:13])[C:4]([H:14])([H:15])[C@:5]1([C:6]([H:16])([H:17])[H:18])[O:7][H:19])([H:11])[H:12])([H:8])([H:9])[H:10]>>[C:1]1([H:9])([H:10])[C:2]([H:11])([H:12])[C:3]1([C:4]([C@:5]([C:6]([H:16])([H:17])[H:18])([O:7][H:19])[H:8])([H:14])[H:15])[H:13]"
C        1.92239711       0.24679555       0.59533790
C        1.80724373      -0.51178212      -0.70677618
C        0.65106002       0.40961532      -0.88349243
C       -0.69041055      -0.16483728      -1.20471196
C       -0.91851045       0.18688839       0.25305322
C       -1.92388982      -0.75092805       0.89148094
O       -1.44179778       1.50404871       0.35896461
H        0.47369166      -0.29814967       1.38231142
H        1.57038847       0.89861128       1.38706270
H        2.90061590       0.73965146       0.54878337
H        1.56119704      -1.56688943      -0.60599021
H        2.59861220      -0.36304192      -1.43794389
H        0.79116948       1.42970527      -1.22089718
H       -0.67511387      -1.23312792      -1.41401119
H       -1.28316191       0.38286079      -1.93008583
H       -2.90124544      -0.68912894       0.40767517
H       -2.08459951      -0.48225696       1.93801844
H       -1.56663509      -1.78024754       0.82968735
H       -0.79101119       2.04221305       0.81153374
19
Frame=15 idx=011862 GeodesicLength=1.8233455177733713 rxn_smarts="[C:1]([C:2]([C@@:3]1([H:13])[C:4]([H:14])([H:15])[C@:5]1([C:6]([H:16])([H:17])[H:18])[O:7][H:19])([H:11])[H:12])([H:8])([H:9])[H:10]>>[C:1]1([H:9])([H:10])[C:2]([H:11])([H:12])[C:3]1([C:4]([C@:5]([C:6]([H:16])([H:17])[H:18])([O:7][H:19])[H:8])([H:14])[H:15])[H:13]"
C        1.91315728       0.25018115       0.58541608
C        1.81750992      -0.51021090      -0.71689237
C        0.65059642       0.41001372      -0.86446312
C       -0.68677368      -0.17205673      -1.19987074
C       -0.92277277       0.18620593       0.25321670
C       -1.93668685      -0.74156431       0.88991923
O       -1.43544306       1.50746186       0.36221513
H        0.51172159      -0.35299187       1.42536272
H        1.56648649       0.85471627       1.41526960
H        2.85888400       0.80029814       0.51695766
H        1.57654142      -1.56636014      -0.61866719
H        2.60312438      -0.35434577      -1.45105590
H        0.78507018       1.42663682      -1.21517818
H       -0.66190915      -1.24096223      -1.40503519
H       -1.27453700       0.37116285      -1.93241390
H       -2.91242625      -0.67001451       0.40447520
H       -2.09782904      -0.47020085       1.93565141
H       -1.58866071      -1.77404220       0.82873590
H       -0.76605316       2.04607277       0.78635696
19
Frame=16 idx=011862 GeodesicLength=1.9447218593796525 rxn_smarts="[C:1]([C:2]([C@@:3]1([H:13])[C:4]([H:14])([H:15])[C@:5]1([C:6]([H:16])([H:17])[H:18])[O:7][H:19])([H:11])[H:12])([H:8])([H:9])[H:10]>>[C:1]1([H:9])([H:10])[C:2]([H:11])([H:12])[C:3]1([C:4]([C@:5]([C:6]([H:16])([H:17])[H:18])([O:7][H:19])[H:8])([H:14])[H:15])[H:13]"
C        1.90198489       0.25226362       0.57668284
C        1.82751547      -0.50742028      -0.72723144
C        0.64959659       0.41031850      -0.84633612
C       -0.68355583      -0.17938081      -1.19572752
C       -0.92792683       0.18673470       0.25206473
C       -1.94844044      -0.73147227       0.88901020
O       -1.42973022       1.51192746       0.36415507
H        0.55333242      -0.41003927       1.46807481
H        1.56324370       0.81082281       1.44064381
H        2.81307389       0.85556780       0.49103683
H        1.59222623      -1.56496667      -0.63343576
H        2.60837123      -0.34317898      -1.46298962
H        0.77862426       1.42339151      -1.21000138
H       -0.64906267      -1.24899760      -1.39570435
H       -1.26612244       0.35891969      -1.93579077
H       -2.92300451      -0.65127110       0.40279920
H       -2.10871497      -0.45679237       1.93397846
H       -1.60856668      -1.76670911       0.82890991
H       -0.74284409       2.05028238       0.75986111
