7
Frame=0 idx=000903 GeodesicLength=0.0 rxn_smarts="[C:1]1([H:4])([H:5])[C:2]([H:6])([H:7])[O:3]1>>[C:1]1([H:4])([H:5])[C-:2]=[O+:3]1.[H:6][H:7]"
C       -0.78549648       0.02868312      -0.04754868
C        0.55308029       0.59995206       0.15996639
O       -0.08933080       0.02094558       1.20427196
H       -0.93849817      -0.95806580      -0.47020499
H       -1.62328652       0.71439533      -0.11160642
H        1.26253758      -0.62098883      -0.50504290
H        1.62099413       0.21507851      -0.22983536
7
Frame=1 idx=000903 GeodesicLength=0.06102245586824738 rxn_smarts="[C:1]1([H:4])([H:5])[C:2]([H:6])([H:7])[O:3]1>>[C:1]1([H:4])([H:5])[C-:2]=[O+:3]1.[H:6][H:7]"
C       -0.79252629       0.02819647      -0.04521657
C        0.55075000       0.58596476       0.16707228
O       -0.10164639       0.01893157       1.20990669
H       -0.95078957      -0.95803043      -0.46711229
H       -1.62416710       0.72082595      -0.11450371
H        1.28307671      -0.62381313      -0.50141678
H        1.63530264       0.22792480      -0.24872961
7
Frame=2 idx=000903 GeodesicLength=0.12204065745621662 rxn_smarts="[C:1]1([H:4])([H:5])[C:2]([H:6])([H:7])[O:3]1>>[C:1]1([H:4])([H:5])[C-:2]=[O+:3]1.[H:6][H:7]"
C       -0.79958857       0.02767973      -0.04279628
C        0.54860696       0.57087345       0.17479276
O       -0.11451598       0.01656891       1.21587161
H       -0.96353236      -0.95789524      -0.46400963
H       -1.62444695       0.72776775      -0.11770092
H        1.30486799      -0.62664474      -0.49673534
H        1.64860891       0.24165014      -0.26942219
7
Frame=3 idx=000903 GeodesicLength=0.18302579902738036 rxn_smarts="[C:1]1([H:4])([H:5])[C:2]([H:6])([H:7])[O:3]1>>[C:1]1([H:4])([H:5])[C-:2]=[O+:3]1.[H:6][H:7]"
C       -0.80666552       0.02713375      -0.04029004
C        0.54666791       0.55459142       0.18312956
O       -0.12794284       0.01388508       1.22216598
H       -0.97675498      -0.95765282      -0.46086608
H       -1.62405434       0.73523818      -0.12122385
H        1.32805045      -0.62933954      -0.49103199
H        1.66069931       0.25614392      -0.29188356
7
Frame=4 idx=000903 GeodesicLength=0.24400978683183397 rxn_smarts="[C:1]1([H:4])([H:5])[C:2]([H:6])([H:7])[O:3]1>>[C:1]1([H:4])([H:5])[C-:2]=[O+:3]1.[H:6][H:7]"
C       -0.81374651       0.02655521      -0.03770209
C        0.54493106       0.53705522       0.19202670
O       -0.14191003       0.01094966       1.22876620
H       -0.99049360      -0.95732308      -0.45763273
H       -1.62293068       0.74323711      -0.12508035
H        1.35271605      -0.63171621      -0.48444959
H        1.67143370       0.27124209      -0.31592813
7
Frame=5 idx=000903 GeodesicLength=0.3049886233310708 rxn_smarts="[C:1]1([H:4])([H:5])[C:2]([H:6])([H:7])[O:3]1>>[C:1]1([H:4])([H:5])[C-:2]=[O+:3]1.[H:6][H:7]"
C       -0.82083601       0.02593723      -0.03503875
C        0.54338189       0.51820453       0.20138497
O       -0.15636444       0.00785703       1.23562827
H       -1.00480138      -0.95692877      -0.45424512
H       -1.62104782       0.75174883      -0.12927424
H        1.37893532      -0.63356214      -0.47719224
H        1.68073244       0.28674328      -0.34126290
7
Frame=6 idx=000903 GeodesicLength=0.36588730515799556 rxn_smarts="[C:1]1([H:4])([H:5])[C:2]([H:6])([H:7])[O:3]1>>[C:1]1([H:4])([H:5])[C-:2]=[O+:3]1.[H:6][H:7]"
C       -0.82792692       0.02526768      -0.03230662
C        0.54197301       0.49796074       0.21105990
O       -0.17125279       0.00472329       1.24269323
H       -1.01971542      -0.95647133      -0.45061916
H       -1.61834339       0.76072397      -0.13380066
H        1.40670339      -0.63466305      -0.46950627
H        1.68856211       0.30245870      -0.36752042
7
Frame=7 idx=000903 GeodesicLength=0.42666090832157655 rxn_smarts="[C:1]1([H:4])([H:5])[C:2]([H:6])([H:7])[O:3]1>>[C:1]1([H:4])([H:5])[C-:2]=[O+:3]1.[H:6][H:7]"
C       -0.83505826       0.02452437      -0.02951793
C        0.54066833       0.47626673       0.22087997
O       -0.18645158       0.00166509       1.24988525
H       -1.03536345      -0.95599837      -0.44666053
H       -1.61482783       0.77012095      -0.13866930
H        1.43599586      -0.63477156      -0.46166526
H        1.69503692       0.31819280      -0.39425220
7
Frame=8 idx=000903 GeodesicLength=0.48790865815702117 rxn_smarts="[C:1]1([H:4])([H:5])[C:2]([H:6])([H:7])[O:3]1>>[C:1]1([H:4])([H:5])[C-:2]=[O+:3]1.[H:6][H:7]"
C       -0.84231892       0.02367972      -0.02665798
C        0.53948628       0.45309752       0.23075317
O       -0.20210009      -0.00120484       1.25733967
H       -1.05196113      -0.95573283      -0.44238932
H       -1.61049881       0.78004826      -0.14384019
H        1.46700587      -0.63381682      -0.45389805
H        1.70038680       0.33392899      -0.42130729
7
Frame=9 idx=000903 GeodesicLength=0.5481284216303896 rxn_smarts="[C:1]1([H:4])([H:5])[C:2]([H:6])([H:7])[O:3]1>>[C:1]1([H:4])([H:5])[C-:2]=[O+:3]1.[H:6][H:7]"
C       -0.84961305       0.02273137      -0.02379104
C        0.53817355       0.42808589       0.24034270
O       -0.21754575      -0.00386663       1.26443536
H       -1.06940478      -0.95516879      -0.43738154
H       -1.60529455       0.79014862      -0.14945156
H        1.49919583      -0.63138085      -0.44629901
H        1.70448875       0.34945040      -0.44785490
7
Frame=10 idx=000903 GeodesicLength=0.6086753452605024 rxn_smarts="[C:1]1([H:4])([H:5])[C:2]([H:6])([H:7])[O:3]1>>[C:1]1([H:4])([H:5])[C-:2]=[O+:3]1.[H:6][H:7]"
C       -0.85711739       0.02161808      -0.02087711
C        0.53685684       0.40125673       0.24960956
O       -0.23320871      -0.00611880       1.27153121
H       -1.08812821      -0.95478660      -0.43177163
H       -1.59921535       0.80062944      -0.15539603
H        1.53290491      -0.62753916      -0.43917667
H        1.70790791       0.36494031      -0.47391934
7
Frame=11 idx=000903 GeodesicLength=0.6692748665305724 rxn_smarts="[C:1]1([H:4])([H:5])[C:2]([H:6])([H:7])[O:3]1>>[C:1]1([H:4])([H:5])[C-:2]=[O+:3]1.[H:6][H:7]"
C       -0.86482802       0.02030795      -0.01794092
C        0.53544379       0.37227100       0.25846833
O       -0.24889680      -0.00796565       1.27856429
H       -1.10831656      -0.95451686      -0.42540444
H       -1.59209449       0.81149383      -0.16182755
H        1.56808810      -0.62204774      -0.43250116
H        1.71060398       0.38045746      -0.49935855
7
Frame=12 idx=000903 GeodesicLength=0.7296611315079587 rxn_smarts="[C:1]1([H:4])([H:5])[C:2]([H:6])([H:7])[O:3]1>>[C:1]1([H:4])([H:5])[C-:2]=[O+:3]1.[H:6][H:7]"
C       -0.87274992       0.01875140      -0.01498441
C        0.53388504       0.34066663       0.26680321
O       -0.26451964      -0.00935956       1.28544186
H       -1.13021432      -0.95431274      -0.41806490
H       -1.58367728       0.82278193      -0.16890176
H        1.60481249      -0.61471533      -0.42630559
H        1.71246364       0.39618766      -0.52398841
7
Frame=13 idx=000903 GeodesicLength=0.7901510563985145 rxn_smarts="[C:1]1([H:4])([H:5])[C:2]([H:6])([H:7])[O:3]1>>[C:1]1([H:4])([H:5])[C-:2]=[O+:3]1.[H:6][H:7]"
C       -0.88091990       0.01687537      -0.01203666
C        0.53214672       0.30595558       0.27448770
O       -0.27996272      -0.01023785       1.29204535
H       -1.15432497      -0.95414984      -0.40953906
H       -1.57368552       0.83442787      -0.17674180
H        1.64304026      -0.60520383      -0.42053283
H        1.71370613       0.41233270      -0.54768269
7
Frame=14 idx=000903 GeodesicLength=0.8504228194844793 rxn_smarts="[C:1]1([H:4])([H:5])[C:2]([H:6])([H:7])[O:3]1>>[C:1]1([H:4])([H:5])[C-:2]=[O+:3]1.[H:6][H:7]"
C       -0.88937369       0.01459887      -0.00910177
C        0.53015111       0.26743603       0.28129980
O       -0.29502713      -0.01039504       1.29832981
H       -1.18099255      -0.95403084      -0.39951537
H       -1.56179129       0.84649976      -0.18562687
H        1.68285984      -0.59328442      -0.41544227
H        1.71417371       0.42917564      -0.56994332
7
Frame=15 idx=000903 GeodesicLength=0.9106034060396871 rxn_smarts="[C:1]1([H:4])([H:5])[C:2]([H:6])([H:7])[O:3]1>>[C:1]1([H:4])([H:5])[C-:2]=[O+:3]1.[H:6][H:7]"
C       -0.89805333       0.01183848      -0.00627376
C        0.52775890       0.22431181       0.28688375
O       -0.30935278      -0.00973763       1.30394482
H       -1.21080350      -0.95383365      -0.38757525
H       -1.54756278       0.85890140      -0.19571925
H        1.72412070      -0.57858461      -0.41085823
H        1.71389279       0.44710420      -0.59040208
7
Frame=16 idx=000903 GeodesicLength=0.970633538866811 rxn_smarts="[C:1]1([H:4])([H:5])[C:2]([H:6])([H:7])[O:3]1>>[C:1]1([H:4])([H:5])[C-:2]=[O+:3]1.[H:6][H:7]"
C       -0.90707450       0.00842264      -0.00356848
C        0.52485807       0.17547057       0.29071838
O       -0.32237150      -0.00801074       1.30868919
H       -1.24460468      -0.95346678      -0.37317491
H       -1.53041782       0.87156781      -0.20748909
H        1.76679827      -0.56062803      -0.40690574
H        1.71281217       0.46664454      -0.60826936
