14
Frame=0 idx=004865 GeodesicLength=0.0 rxn_smarts="[C:1]([C@@:2]([C:3]([O:4][H:13])([H:11])[H:12])([C:5](=[O:6])[H:14])[H:10])([H:7])([H:8])[H:9]>>[C:1]([C:2]([C:3](=[O:4])[H:12])([H:10])[H:11])([H:7])([H:8])[H:9].[C:5](=[O:6])([H:13])[H:14]"
C       -1.11713275      -1.19607811       0.32843360
C        0.04309152      -0.30411277       0.53150744
C        1.30381062      -0.44043581      -0.18604511
O        2.05274543       0.64023944      -0.21021158
C       -0.28592138       1.81380636      -0.51441816
O       -0.94221346       1.62389996      -1.50222573
H       -1.93798408      -0.58968668      -0.06975801
H       -1.47006009      -1.64563955       1.25755678
H       -0.90381147      -1.96713972      -0.41182699
H        0.09750215       0.26893031       1.45515638
H        1.65251397      -1.18864744       0.60584087
H        1.20290118      -1.02818499      -1.11592162
H        0.87049994       1.38069548      -0.35962374
H       -0.56594164       2.63235348       0.19153586
14
Frame=1 idx=004865 GeodesicLength=0.10650636978842881 rxn_smarts="[C:1]([C@@:2]([C:3]([O:4][H:13])([H:11])[H:12])([C:5](=[O:6])[H:14])[H:10])([H:7])([H:8])[H:9]>>[C:1]([C:2]([C:3](=[O:4])[H:12])([H:10])[H:11])([H:7])([H:8])[H:9].[C:5](=[O:6])([H:13])[H:14]"
C       -1.11549562      -1.19754688       0.32674631
C        0.04307050      -0.30053541       0.53170907
C        1.30462134      -0.43745443      -0.18923796
O        2.06172317       0.63677372      -0.19784268
C       -0.28879012       1.80816410      -0.51830906
O       -0.95666553       1.60126346      -1.49483426
H       -1.94756444      -0.59104599      -0.04599805
H       -1.44763440      -1.66954480       1.25243162
H       -0.91124454      -1.95463793      -0.43043467
H        0.09782944       0.26863701       1.45773866
H        1.61301202      -1.19684526       0.62887755
H        1.20092915      -1.01416208      -1.12543403
H        0.90631687       1.40847950      -0.37168786
H       -0.56010782       2.63845500       0.17627537
14
Frame=2 idx=004865 GeodesicLength=0.21291042808086802 rxn_smarts="[C:1]([C@@:2]([C:3]([O:4][H:13])([H:11])[H:12])([C:5](=[O:6])[H:14])[H:10])([H:7])([H:8])[H:9]>>[C:1]([C:2]([C:3](=[O:4])[H:12])([H:10])[H:11])([H:7])([H:8])[H:9].[C:5](=[O:6])([H:13])[H:14]"
C       -1.11404435      -1.19931502       0.32487123
C        0.04279442      -0.29734992       0.53237102
C        1.30554897      -0.43458948      -0.19148457
O        2.06955644       0.63385052      -0.18572607
C       -0.29129590       1.80237012      -0.52182804
O       -0.97217197       1.57945467      -1.48575786
H       -1.95662757      -0.59333987      -0.02304830
H       -1.42599012      -1.69316423       1.24621586
H       -0.91847937      -1.94244574      -0.44840212
H        0.09748023       0.26820777       1.46062345
H        1.57421519      -1.20392080       0.65163976
H        1.19916896      -0.99998816      -1.13404245
H        0.94205313       1.43535152      -0.38651949
H       -0.55220805       2.64487863       0.16108759
14
Frame=3 idx=004865 GeodesicLength=0.3192696621383374 rxn_smarts="[C:1]([C@@:2]([C:3]([O:4][H:13])([H:11])[H:12])([C:5](=[O:6])[H:14])[H:10])([H:7])([H:8])[H:9]>>[C:1]([C:2]([C:3](=[O:4])[H:12])([H:10])[H:11])([H:7])([H:8])[H:9].[C:5](=[O:6])([H:13])[H:14]"
C       -1.11277395      -1.20139697       0.32280851
C        0.04224938      -0.29454202       0.53344718
C        1.30654983      -0.43181808      -0.19288187
O        2.07624839       0.63153875      -0.17392876
C       -0.29346853       1.79650369      -0.52492245
O       -0.98863325       1.55858242      -1.47497670
H       -1.96521643      -0.59657009      -0.00096738
H       -1.40512868      -1.71647284       1.23899992
H       -0.92547284      -1.93063034      -0.46574019
H        0.09646491       0.26760437       1.46379980
H        1.53612410      -1.20992879       0.67426505
H        1.19762186      -0.98574531      -1.14177274
H        0.97782819       1.46132779      -0.40409650
H       -0.54239298       2.65154744       0.14596613
14
Frame=4 idx=004865 GeodesicLength=0.4255766802158697 rxn_smarts="[C:1]([C@@:2]([C:3]([O:4][H:13])([H:11])[H:12])([C:5](=[O:6])[H:14])[H:10])([H:7])([H:8])[H:9]>>[C:1]([C:2]([C:3](=[O:4])[H:12])([H:10])[H:11])([H:7])([H:8])[H:9].[C:5](=[O:6])([H:13])[H:14]"
C       -1.11167701      -1.20381362       0.32056144
C        0.04142341      -0.29210567       0.53490544
C        1.30758386      -0.42911233      -0.19351221
O        2.08179277       0.62990758      -0.16252070
C       -0.29533795       1.79063079      -0.52754391
O       -1.00593928       1.53874199      -1.46247958
H       -1.97335669      -0.60075558       0.02016829
H       -1.38506355      -1.73943978       1.23087030
H       -0.93217194      -1.91927942      -0.48243085
H        0.09478762       0.26679243       1.46726196
H        1.49873116      -1.21492457       0.69683399
H        1.19627462      -0.97148693      -1.14865666
H        1.01373280       1.48640733      -0.42435006
H       -0.53077982       2.65843779       0.13089255
14
Frame=5 idx=004865 GeodesicLength=0.5319119969845866 rxn_smarts="[C:1]([C@@:2]([C:3]([O:4][H:13])([H:11])[H:12])([C:5](=[O:6])[H:14])[H:10])([H:7])([H:8])[H:9]>>[C:1]([C:2]([C:3](=[O:4])[H:12])([H:10])[H:11])([H:7])([H:8])[H:9].[C:5](=[O:6])([H:13])[H:14]"
C       -1.11074380      -1.20657763       0.31814291
C        0.04030918      -0.29002858       0.53671739
C        1.30861419      -0.42643758      -0.19345937
O        2.08619977       0.62901422      -0.15155664
C       -0.29694979       1.78480946      -0.52964552
O       -1.02394936       1.51999531      -1.44828010
H       -1.98109801      -0.60588680       0.04032933
H       -1.36576596      -1.76206096       1.22193289
H       -0.93854496      -1.90845020      -0.49849782
H        0.09246041       0.26574974       1.47100406
H        1.46201336      -1.21899410       0.71939637
H        1.19510042      -0.95724087      -1.15474273
H        1.04987618       1.51059888      -0.44711976
H       -0.51752162       2.66550912       0.11577900
14
Frame=6 idx=004865 GeodesicLength=0.638195589068026 rxn_smarts="[C:1]([C@@:2]([C:3]([O:4][H:13])([H:11])[H:12])([C:5](=[O:6])[H:14])[H:10])([H:7])([H:8])[H:9]>>[C:1]([C:2]([C:3](=[O:4])[H:12])([H:10])[H:11])([H:7])([H:8])[H:9].[C:5](=[O:6])([H:13])[H:14]"
C       -1.10995883      -1.20971040       0.31556464
C        0.03890523      -0.28831510       0.53886360
C        1.30960717      -0.42376797      -0.19279965
O        2.08945898       0.62892052      -0.14112540
C       -0.29832359       1.77908578      -0.53119205
O       -1.04253247       1.50239869      -1.43241002
H       -1.98844811      -0.61197082       0.05946297
H       -1.34724314      -1.78431168       1.21226590
H       -0.94455202      -1.89821586      -0.51391759
H        0.08949502       0.26444800       1.47502014
H        1.42595452      -1.22218812       0.74197780
H        1.19406295      -0.94303845      -1.16007686
H        1.08632316       1.53388032      -0.47220872
H       -0.50274889       2.67278509       0.10057522
14
Frame=7 idx=004865 GeodesicLength=0.7444774476819429 rxn_smarts="[C:1]([C@@:2]([C:3]([O:4][H:13])([H:11])[H:12])([C:5](=[O:6])[H:14])[H:10])([H:7])([H:8])[H:9]>>[C:1]([C:2]([C:3](=[O:4])[H:12])([H:10])[H:11])([H:7])([H:8])[H:9].[C:5](=[O:6])([H:13])[H:14]"
C       -1.10931128      -1.21321453       0.31285198
C        0.03721688      -0.28695571       0.54132700
C        1.31052935      -0.42106822      -0.19162170
O        2.09159767       0.62966429      -0.13128531
C       -0.29951211       1.77349439      -0.53215445
O       -1.06150826       1.48596102      -1.41493615
H       -1.99545391      -0.61898041       0.07755982
H       -1.32944911      -1.80618873       1.20198659
H       -0.95018106      -1.88862480      -0.52869681
H        0.08592303       0.26287860       1.47930373
H        1.39051670      -1.22461164       0.76455481
H        1.19309902      -0.92886321      -1.16473779
H        1.12318509       1.55627216      -0.49929931
H       -0.48665201       2.68023677       0.08514758
14
Frame=8 idx=004865 GeodesicLength=0.8506761677318608 rxn_smarts="[C:1]([C@@:2]([C:3]([O:4][H:13])([H:11])[H:12])([C:5](=[O:6])[H:14])[H:10])([H:7])([H:8])[H:9]>>[C:1]([C:2]([C:3](=[O:4])[H:12])([H:10])[H:11])([H:7])([H:8])[H:9].[C:5](=[O:6])([H:13])[H:14]"
C       -1.10878753      -1.21708579       0.31003062
C        0.03526177      -0.28594901       0.54409729
C        1.31135550      -0.41831137      -0.19000979
O        2.09264981       0.63126482      -0.12210684
C       -0.30056099       1.76805076      -0.53251683
O       -1.08070420       1.47066027      -1.39596100
H       -2.00213170      -0.62687989       0.09461708
H       -1.31236916      -1.82765480       1.19119126
H       -0.95542400      -1.87972180      -0.54281727
H        0.08179276       0.26103120       1.48385067
H        1.35567823      -1.22636822       0.78706999
H        1.19213876      -0.91469217      -1.16880728
H        1.16054439       1.57779409      -0.52802085
H       -0.46944364       2.68786191       0.06938295
14
Frame=9 idx=004865 GeodesicLength=0.9566462213715123 rxn_smarts="[C:1]([C@@:2]([C:3]([O:4][H:13])([H:11])[H:12])([C:5](=[O:6])[H:14])[H:10])([H:7])([H:8])[H:9]>>[C:1]([C:2]([C:3](=[O:4])[H:12])([H:10])[H:11])([H:7])([H:8])[H:9].[C:5](=[O:6])([H:13])[H:14]"
C       -1.10836280      -1.22125777       0.30711434
C        0.03310164      -0.28531353       0.54722718
C        1.31208419      -0.41544904      -0.18799241
O        2.09270303       0.63362305      -0.11351470
C       -0.30158270       1.76273805      -0.53220190
O       -1.09994017       1.45633550      -1.37558147
H       -2.00845456      -0.63550946       0.11078397
H       -1.29591335      -1.84883428       1.17985801
H       -0.96032215      -1.87134027      -0.55636406
H        0.07717226       0.25887274       1.48870810
H        1.32135825      -1.22753163       0.80943868
H        1.19113253      -0.90045407      -1.17232437
H        1.19839915       1.59840004      -0.55821714
H       -0.45137532       2.69572065       0.05306577
14
Frame=10 idx=004865 GeodesicLength=1.0626176879977438 rxn_smarts="[C:1]([C@@:2]([C:3]([O:4][H:13])([H:11])[H:12])([C:5](=[O:6])[H:14])[H:10])([H:7])([H:8])[H:9]>>[C:1]([C:2]([C:3](=[O:4])[H:12])([H:10])[H:11])([H:7])([H:8])[H:9].[C:5](=[O:6])([H:13])[H:14]"
C       -1.10803678      -1.22575846       0.30416347
C        0.03072393      -0.28501218       0.55063983
C        1.31266351      -0.41247587      -0.18573224
O        2.09178720       0.63681300      -0.10566480
C       -0.30261985       1.75757755      -0.53127225
O       -1.11910024       1.44299066      -1.35399197
H       -2.01451530      -0.64491437       0.12603243
H       -1.28005303      -1.86960204       1.16820497
H       -0.96487837      -1.86362891      -0.56928557
H        0.07212319       0.25643702       1.49380991
H        1.28754961      -1.22827709       0.83164457
H        1.18994964      -0.88610011      -1.17546256
H        1.23703708       1.61825812      -0.58916585
H       -0.43263058       2.70369267       0.03608004
14
Frame=11 idx=004865 GeodesicLength=1.1686011364019906 rxn_smarts="[C:1]([C@@:2]([C:3]([O:4][H:13])([H:11])[H:12])([C:5](=[O:6])[H:14])[H:10])([H:7])([H:8])[H:9]>>[C:1]([C:2]([C:3](=[O:4])[H:12])([H:10])[H:11])([H:7])([H:8])[H:9].[C:5](=[O:6])([H:13])[H:14]"
C       -1.10779349      -1.23056679       0.30120726
C        0.02815630      -0.28503793       0.55432688
C        1.31307448      -0.40936299      -0.18330977
O        2.08997320       0.64078775      -0.09855292
C       -0.30377151       1.75255762      -0.52971745
O       -1.13810809       1.43052241      -1.33131938
H       -2.02034366      -0.65503270       0.14045888
H       -1.26471565      -1.88998682       1.15630805
H       -0.96912739      -1.85654623      -0.58161583
H        0.06670680       0.25372395       1.49914662
H        1.25419264      -1.22871883       0.85363886
H        1.18850564      -0.87154904      -1.17831980
H        1.27663481       1.63744560      -0.62048007
H       -0.41338407       2.71176401       0.01822866
14
Frame=12 idx=004865 GeodesicLength=1.274605469282623 rxn_smarts="[C:1]([C@@:2]([C:3]([O:4][H:13])([H:11])[H:12])([C:5](=[O:6])[H:14])[H:10])([H:7])([H:8])[H:9]>>[C:1]([C:2]([C:3](=[O:4])[H:12])([H:10])[H:11])([H:7])([H:8])[H:9].[C:5](=[O:6])([H:13])[H:14]"
C       -1.10762179      -1.23565982       0.29827507
C        0.02542866      -0.28538360       0.55827756
C        1.31329505      -0.40608270      -0.18081367
O        2.08734266       0.64548487      -0.09215106
C       -0.30514539       1.74765059      -0.52752693
O       -1.15691401       1.41880985      -1.30769517
H       -2.02596702      -0.66580919       0.15415330
H       -1.24984552      -1.90999119       1.14424563
H       -0.97310483      -1.85006867      -0.59337144
H        0.06099313       0.25073490       1.50470825
H        1.22123717      -1.22897979       0.87536492
H        1.18670612      -0.85669796      -1.18100576
H        1.31740301       1.65606959      -0.65178369
H       -0.39380724       2.71992312      -0.00067701
14
Frame=13 idx=004865 GeodesicLength=1.3805766337151313 rxn_smarts="[C:1]([C@@:2]([C:3]([O:4][H:13])([H:11])[H:12])([C:5](=[O:6])[H:14])[H:10])([H:7])([H:8])[H:9]>>[C:1]([C:2]([C:3](=[O:4])[H:12])([H:10])[H:11])([H:7])([H:8])[H:9].[C:5](=[O:6])([H:13])[H:14]"
C       -1.10751128      -1.24101076       0.29539063
C        0.02257091      -0.28605000       0.56249657
C        1.31331328      -0.40261140      -0.17830488
O        2.08394774       0.65086581      -0.08643377
C       -0.30683417       1.74284146      -0.52468023
O       -1.17550844       1.40774730      -1.28319008
H       -2.03141328      -0.67718161       0.16725445
H       -1.23536668      -1.92968042       1.13203617
H       -0.97686579      -1.84410764      -0.60461500
H        0.05503903       0.24746217       1.51049971
H        1.18863403      -1.22914332       0.89680411
H        1.18447779      -0.84145637      -1.18359696
H        1.35955067       1.67419151      -0.68277492
H       -0.37403380       2.72813327      -0.02088578
14
Frame=14 idx=004865 GeodesicLength=1.4865575009957774 rxn_smarts="[C:1]([C@@:2]([C:3]([O:4][H:13])([H:11])[H:12])([C:5](=[O:6])[H:14])[H:10])([H:7])([H:8])[H:9]>>[C:1]([C:2]([C:3](=[O:4])[H:12])([H:10])[H:11])([H:7])([H:8])[H:9].[C:5](=[O:6])([H:13])[H:14]"
C       -1.10746057      -1.24660469       0.29257483
C        0.01960103      -0.28703392       0.56698460
C        1.31310276      -0.39890801      -0.17585010
O        2.07984684       0.65688805      -0.08131489
C       -0.30897436       1.73810514      -0.52111309
O       -1.19392940       1.39722986      -1.25784946
H       -2.03671488      -0.68912631       0.17986316
H       -1.22121866      -1.94908545       1.11972235
H       -0.98045141      -1.83862793      -0.61537999
H        0.04889585       0.24389337       1.51653050
H        1.15634314      -1.22932252       0.91790344
H        1.18173146      -0.82569081      -1.18618146
H        1.40337005       1.69190598      -0.71320664
H       -0.35414184       2.73637724      -0.04268323
14
Frame=15 idx=004865 GeodesicLength=1.5924994402200738 rxn_smarts="[C:1]([C@@:2]([C:3]([O:4][H:13])([H:11])[H:12])([C:5](=[O:6])[H:14])[H:10])([H:7])([H:8])[H:9]>>[C:1]([C:2]([C:3](=[O:4])[H:12])([H:10])[H:11])([H:7])([H:8])[H:9].[C:5](=[O:6])([H:13])[H:14]"
C       -1.10746305      -1.25242651       0.28984782
C        0.01654259      -0.28834107       0.57174684
C        1.31264158      -0.39494016      -0.17350997
O        2.07507503       0.66352172      -0.07674027
C       -0.31167796       1.73342267      -0.51676708
O       -1.21222943       1.38715966      -1.23170374
H       -2.04188529      -0.70161699       0.19208767
H       -1.20735491      -1.96824315       1.10731021
H       -0.98390720      -1.83356807      -0.62569856
H        0.04261420       0.24000928       1.52281144
H        1.12433147      -1.22959288       0.93863874
H        1.17838098      -0.80928419      -1.18883256
H        1.44914362       1.70928167      -0.74284874
H       -0.33421162       2.74461802      -0.06634180
14
Frame=16 idx=004865 GeodesicLength=1.6983972965891787 rxn_smarts="[C:1]([C@@:2]([C:3]([O:4][H:13])([H:11])[H:12])([C:5](=[O:6])[H:14])[H:10])([H:7])([H:8])[H:9]>>[C:1]([C:2]([C:3](=[O:4])[H:12])([H:10])[H:11])([H:7])([H:8])[H:9].[C:5](=[O:6])([H:13])[H:14]"
C       -1.10751578      -1.25848069       0.28722175
C        0.01340491      -0.28998106       0.57679119
C        1.31189621      -0.39065407      -0.17134333
O        2.06963969       0.67077214      -0.07263686
C       -0.31507971       1.72880251      -0.51152887
O       -1.23049690       1.37748250      -1.20470588
H       -2.04694986      -0.71466166       0.20402007
H       -1.19372004      -1.98720789       1.09480380
H       -0.98726788      -1.82889377      -0.63560630
H        0.03622352       0.23577610       1.52936319
H        1.09256767      -1.23001975       0.95899152
H        1.17433891      -0.79209333      -1.19161833
H        1.49720585       1.72634737      -0.77152172
H       -0.31424660       2.75281160      -0.09223025
