14
Frame=0 idx=011462 GeodesicLength=0.0 rxn_smarts="[O:1]([C:2]1([H:9])[C:3]([H:10])([H:11])[N:4]([C:6](=[O:7])[H:14])[C:5]1([H:12])[H:13])[H:8]>>[C:6](=[O:7])([H:9])[H:14].[O:1]([C:2]12[C:3]([H:10])([H:11])[N:4]1[C:5]2([H:12])[H:13])[H:8]"
O       -2.07980922      -0.40822995       0.23355905
C       -0.96812454      -0.16241041      -0.37101191
C        0.07659529      -1.07599406      -0.85648617
N        0.96814563       0.08239194      -0.51887438
C       -0.16671218       1.04760961      -0.60727445
C        1.19186620       0.05080825       1.03878023
O        1.50489139       1.19414741       1.48889770
H       -2.46100651       0.40240761       0.60034455
H        0.16286506      -0.35224378       1.40895777
H        0.23972524      -1.99756245      -0.29381978
H        0.04738119      -1.27121207      -1.92984181
H       -0.10384655       1.78751821       0.20736922
H       -0.29495752       1.51272944      -1.58619520
H        1.88298656      -0.80995973       1.18559516
14
Frame=1 idx=011462 GeodesicLength=0.13569197037542083 rxn_smarts="[O:1]([C:2]1([H:9])[C:3]([H:10])([H:11])[N:4]([C:6](=[O:7])[H:14])[C:5]1([H:12])[H:13])[H:8]>>[C:6](=[O:7])([H:9])[H:14].[O:1]([C:2]12[C:3]([H:10])([H:11])[N:4]1[C:5]2([H:12])[H:13])[H:8]"
O       -2.08759542      -0.40227770       0.22561185
C       -0.95962746      -0.16526976      -0.35926695
C        0.07467144      -1.07881865      -0.86783366
N        0.95991157       0.07794269      -0.51620574
C       -0.16727030       1.04809547      -0.61804921
C        1.20631787       0.05253982       1.05968823
O        1.50030065       1.19597236       1.51223627
H       -2.44219673       0.40411089       0.62708777
H        0.14118326      -0.36325347       1.40425719
H        0.23725775      -2.00668561      -0.31607336
H        0.03495036      -1.26335752      -1.94255510
H       -0.10634897       1.80022185       0.18415588
H       -0.29840565       1.50031002      -1.60242806
H        1.90685163      -0.79953038       1.20937488
14
Frame=2 idx=011462 GeodesicLength=0.2711275780606468 rxn_smarts="[O:1]([C:2]1([H:9])[C:3]([H:10])([H:11])[N:4]([C:6](=[O:7])[H:14])[C:5]1([H:12])[H:13])[H:8]>>[C:6](=[O:7])([H:9])[H:14].[O:1]([C:2]12[C:3]([H:10])([H:11])[N:4]1[C:5]2([H:12])[H:13])[H:8]"
O       -2.09518071      -0.39510185       0.21750415
C       -0.95116560      -0.16801953      -0.34761715
C        0.07228525      -1.08151394      -0.87923101
N        0.95156196       0.07323801      -0.51341607
C       -0.16780712       1.04833962      -0.62886599
C        1.22126470       0.05432879       1.08100087
O        1.49557378       1.19780444       1.53596429
H       -2.42369018       0.40473084       0.65319262
H        0.11992944      -0.37481905       1.39964589
H        0.23389327      -2.01571482      -0.33860201
H        0.02201481      -1.25544299      -1.95509753
H       -0.10900761       1.81263700       0.16056870
H       -0.30163549       1.48778032      -1.61847135
H        1.93196350      -0.78824684       1.23342458
14
Frame=3 idx=011462 GeodesicLength=0.40641161711840146 rxn_smarts="[O:1]([C:2]1([H:9])[C:3]([H:10])([H:11])[N:4]([C:6](=[O:7])[H:14])[C:5]1([H:12])[H:13])[H:8]>>[C:6](=[O:7])([H:9])[H:14].[O:1]([C:2]12[C:3]([H:10])([H:11])[N:4]1[C:5]2([H:12])[H:13])[H:8]"
O       -2.10248303      -0.38676378       0.20939086
C       -0.94275203      -0.17067259      -0.33605892
C        0.06943190      -1.08408383      -0.89065785
N        0.94309909       0.06827691      -0.51052181
C       -0.16832092       1.04833309      -0.63969109
C        1.23682035       0.05617755       1.10268417
O        1.49072378       1.19959096       1.56012908
H       -2.40567039       0.40440672       0.67838570
H        0.09902998      -0.38697547       1.39514799
H        0.22962485      -2.02464676      -0.36139294
H        0.00856492      -1.24748385      -1.96744927
H       -0.11184424       1.82473716       0.13664452
H       -0.30466632       1.47516142      -1.63428603
H        1.95844208      -0.77605755       1.25767559
14
Frame=4 idx=011462 GeodesicLength=0.5416717868940766 rxn_smarts="[O:1]([C:2]1([H:9])[C:3]([H:10])([H:11])[N:4]([C:6](=[O:7])[H:14])[C:5]1([H:12])[H:13])[H:8]>>[C:6](=[O:7])([H:9])[H:14].[O:1]([C:2]12[C:3]([H:10])([H:11])[N:4]1[C:5]2([H:12])[H:13])[H:8]"
O       -2.10944993      -0.37733477       0.20136527
C       -0.93440178      -0.17323752      -0.32460973
C        0.06611031      -1.08653479      -0.90209716
N        0.93452529       0.06305499      -0.50753520
C       -0.16880467       1.04806882      -0.65050534
C        1.25308919       0.05809470       1.12470277
O        1.48572530       1.20125470       1.58480301
H       -2.38824686       0.40328834       0.70252721
H        0.07836866      -0.39976771       1.39077133
H        0.22443876      -2.03347817      -0.38442503
H       -0.00538815      -1.23950105      -1.97959430
H       -0.11488044       1.83650113       0.11240087
H       -0.30749661       1.46246876      -1.64985485
H        1.98641093      -0.76287741       1.28205116
14
Frame=5 idx=011462 GeodesicLength=0.6768748642809099 rxn_smarts="[O:1]([C:2]1([H:9])[C:3]([H:10])([H:11])[N:4]([C:6](=[O:7])[H:14])[C:5]1([H:12])[H:13])[H:8]>>[C:6](=[O:7])([H:9])[H:14].[O:1]([C:2]12[C:3]([H:10])([H:11])[N:4]1[C:5]2([H:12])[H:13])[H:8]"
O       -2.11602757      -0.36691601       0.19353540
C       -0.92612860      -0.17572524      -0.31328232
C        0.06232126      -1.08886941      -0.91353961
N        0.92584462       0.05757233      -0.50446719
C       -0.16925114       1.04754288      -0.66129032
C        1.27015806       0.06008263       1.14703249
O        1.48057505       1.20274968       1.61003863
H       -2.37151575       0.40152918       0.72546513
H        0.05787020      -0.41322617       1.38652002
H        0.21832767      -2.04220420      -0.40769208
H       -0.01983746      -1.23150442      -1.99152543
H       -0.11814125       1.84791196       0.08785505
H       -0.31013445       1.44971913      -1.66516127
H        2.01593935      -0.74866234       1.30651151
14
Frame=6 idx=011462 GeodesicLength=0.8121921808323547 rxn_smarts="[O:1]([C:2]1([H:9])[C:3]([H:10])([H:11])[N:4]([C:6](=[O:7])[H:14])[C:5]1([H:12])[H:13])[H:8]>>[C:6](=[O:7])([H:9])[H:14].[O:1]([C:2]12[C:3]([H:10])([H:11])[N:4]1[C:5]2([H:12])[H:13])[H:8]"
O       -2.12219724      -0.35559912       0.18595471
C       -0.91794821      -0.17814037      -0.30209719
C        0.05806227      -1.09109878      -0.92496604
N        0.91705885       0.05181911      -0.50132979
C       -0.16965003       1.04675066      -0.67202875
C        1.28815537       0.06216923       1.16962697
O        1.47522675       1.20395929       1.63593258
H       -2.35555479       0.39930090       0.74709928
H        0.03738222      -0.42741050       1.38238798
H        0.21127528      -2.05081916      -0.43116275
H       -0.03477113      -1.22351734      -2.00322596
H       -0.12163529       1.85894804       0.06302453
H       -0.31257404       1.43692561      -1.68019308
H        2.04717002      -0.73328758       1.33097751
14
Frame=7 idx=011462 GeodesicLength=0.947619008666552 rxn_smarts="[O:1]([C:2]1([H:9])[C:3]([H:10])([H:11])[N:4]([C:6](=[O:7])[H:14])[C:5]1([H:12])[H:13])[H:8]>>[C:6](=[O:7])([H:9])[H:14].[O:1]([C:2]12[C:3]([H:10])([H:11])[N:4]1[C:5]2([H:12])[H:13])[H:8]"
O       -2.12795341      -0.34347130       0.17864979
C       -0.90987888      -0.18048974      -0.29108171
C        0.05333236      -1.09323141      -0.93636502
N        0.90816981       0.04578929      -0.49812908
C       -0.16998794       1.04569165      -0.68271200
C        1.30718008       0.06436486       1.19245709
O        1.46964450       1.20480279       1.66256452
H       -2.34039583       0.39674288       0.76739196
H        0.01677811      -0.44236071       1.37836104
H        0.20326345      -2.05931770      -0.45481520
H       -0.05016974      -1.21555715      -2.01468838
H       -0.12537832       1.86959422       0.03791783
H       -0.31480244       1.42410050      -1.69494835
H        2.08019825      -0.71665819       1.35539750
14
Frame=8 idx=011462 GeodesicLength=1.0832581623059925 rxn_smarts="[O:1]([C:2]1([H:9])[C:3]([H:10])([H:11])[N:4]([C:6](=[O:7])[H:14])[C:5]1([H:12])[H:13])[H:8]>>[C:6](=[O:7])([H:9])[H:14].[O:1]([C:2]12[C:3]([H:10])([H:11])[N:4]1[C:5]2([H:12])[H:13])[H:8]"
O       -2.13331188      -0.33059974       0.17161120
C       -0.90194037      -0.18277239      -0.28026309
C        0.04812768      -1.09528019      -0.94771880
N        0.89917646       0.03946997      -0.49487111
C       -0.17024973       1.04436461      -0.69333354
C        1.32735847       0.06671588       1.21547053
O        1.46376134       1.20512541       1.69004132
H       -2.32605035       0.39399054       0.78634460
H       -0.00411647      -0.45814369       1.37441011
H        0.19426743      -2.06769292      -0.47860928
H       -0.06601172      -1.20764854      -2.02590083
H       -0.12936962       1.87983541       0.01254084
H       -0.31679799       1.41125117      -1.70943152
H        2.11515674      -0.69861553       1.37970957
14
Frame=9 idx=011462 GeodesicLength=1.2192904992313618 rxn_smarts="[O:1]([C:2]1([H:9])[C:3]([H:10])([H:11])[N:4]([C:6](=[O:7])[H:14])[C:5]1([H:12])[H:13])[H:8]>>[C:6](=[O:7])([H:9])[H:14].[O:1]([C:2]12[C:3]([H:10])([H:11])[N:4]1[C:5]2([H:12])[H:13])[H:8]"
O       -2.13831407      -0.31706022       0.16484998
C       -0.89417928      -0.18500398      -0.26965082
C        0.04240787      -1.09728003      -0.95900534
N        0.89005016       0.03279015      -0.49151458
C       -0.17040858       1.04274841      -0.70384014
C        1.34889646       0.06923628       1.23859700
O        1.45752335       1.20473241       1.71852936
H       -2.31260854       0.39123639       0.80375139
H       -0.02551729      -0.47485536       1.37052445
H        0.18421371      -2.07595497      -0.50251962
H       -0.08231327      -1.19980852      -2.03684880
H       -0.13357096       1.88962499      -0.01303539
H       -0.31850229       1.39837094      -1.72359682
H        2.15232273      -0.67877649       1.40375931
14
Frame=10 idx=011462 GeodesicLength=1.3555232645267867 rxn_smarts="[O:1]([C:2]1([H:9])[C:3]([H:10])([H:11])[N:4]([C:6](=[O:7])[H:14])[C:5]1([H:12])[H:13])[H:8]>>[C:6](=[O:7])([H:9])[H:14].[O:1]([C:2]12[C:3]([H:10])([H:11])[N:4]1[C:5]2([H:12])[H:13])[H:8]"
O       -2.14298822      -0.30286862       0.15826850
C       -0.88659555      -0.18717069      -0.25929059
C        0.03620059      -1.09922941      -0.97022089
N        0.88081210       0.02577984      -0.48809541
C       -0.17044498       1.04085975      -0.71428030
C        1.37182650       0.07201104       1.26181568
O        1.45084347       1.20349609       1.74808346
H       -2.29994266       0.38850897       0.81993854
H       -0.04755436      -0.49254418       1.36663019
H        0.17310688      -2.08409078      -0.52650509
H       -0.09900903      -1.19206196      -2.04753881
H       -0.13800440       1.89898177      -0.03888231
H       -0.31989573       1.38546902      -1.73751148
H        2.19164539      -0.65714085       1.42758852
14
Frame=11 idx=011462 GeodesicLength=1.4918784500901217 rxn_smarts="[O:1]([C:2]1([H:9])[C:3]([H:10])([H:11])[N:4]([C:6](=[O:7])[H:14])[C:5]1([H:12])[H:13])[H:8]>>[C:6](=[O:7])([H:9])[H:14].[O:1]([C:2]12[C:3]([H:10])([H:11])[N:4]1[C:5]2([H:12])[H:13])[H:8]"
O       -2.14736184      -0.28806448       0.15182744
C       -0.87921096      -0.18927455      -0.24919191
C        0.02949669      -1.10114262      -0.98135002
N        0.87145755       0.01841947      -0.48460702
C       -0.17033595       1.03869667      -0.72464436
C        1.39628772       0.07509544       1.28507849
O        1.44365445       1.20126351       1.77881968
H       -2.28804778       0.38590785       0.83491143
H       -0.07038836      -0.51127793       1.36268855
H        0.16091448      -2.09209764      -0.55053073
H       -0.11608909      -1.18442439      -2.05796207
H       -0.14265622       1.90789273      -0.06499629
H       -0.32094885       1.37254402      -1.75117806
H        2.23322814      -0.63353808       1.45113486
14
Frame=12 idx=011462 GeodesicLength=1.6283570718733522 rxn_smarts="[O:1]([C:2]1([H:9])[C:3]([H:10])([H:11])[N:4]([C:6](=[O:7])[H:14])[C:5]1([H:12])[H:13])[H:8]>>[C:6](=[O:7])([H:9])[H:14].[O:1]([C:2]12[C:3]([H:10])([H:11])[N:4]1[C:5]2([H:12])[H:13])[H:8]"
O       -2.15148213      -0.27265366       0.14545709
C       -0.87205500      -0.19131509      -0.23936141
C        0.02227769      -1.10304523      -0.99236880
N        0.86197784       0.01067392      -0.48103251
C       -0.17005003       1.03625372      -0.73491822
C        1.42244686       0.07858698       1.30832160
O        1.43588226       1.19778318       1.81087698
H       -2.27693459       0.38352768       0.84869493
H       -0.09422574      -0.53115727       1.35864210
H        0.14758838      -2.09998293      -0.57454898
H       -0.13353756      -1.17691585      -2.06810833
H       -0.14749291       1.91633992      -0.09136801
H       -0.32160961       1.35959091      -1.76459678
H        2.27721453      -0.60768630       1.47431033
14
Frame=13 idx=011462 GeodesicLength=1.764834716356558 rxn_smarts="[O:1]([C:2]1([H:9])[C:3]([H:10])([H:11])[N:4]([C:6](=[O:7])[H:14])[C:5]1([H:12])[H:13])[H:8]>>[C:6](=[O:7])([H:9])[H:14].[O:1]([C:2]12[C:3]([H:10])([H:11])[N:4]1[C:5]2([H:12])[H:13])[H:8]"
O       -2.15538750      -0.25664943       0.13909688
C       -0.86515090      -0.19329148      -0.22980284
C        0.01452981      -1.10495001      -1.00325902
N        0.85236164       0.00251935      -0.47735611
C       -0.16956343       1.03352690      -0.74508749
C        1.45048652       0.08256052       1.33147135
O        1.42746610       1.19288176       1.84437258
H       -2.26661009       0.38143486       0.86129976
H       -0.11925942      -0.55224491       1.35443529
H        0.13309039      -2.10773959      -0.59852231
H       -0.15134509      -1.16954557      -2.07796861
H       -0.15249350       1.92430717      -0.11799129
H       -0.32184077       1.34659861      -1.77776579
H        2.32371625      -0.57940817       1.49707760
14
Frame=14 idx=011462 GeodesicLength=1.9012499757070005 rxn_smarts="[O:1]([C:2]1([H:9])[C:3]([H:10])([H:11])[N:4]([C:6](=[O:7])[H:14])[C:5]1([H:12])[H:13])[H:8]>>[C:6](=[O:7])([H:9])[H:14].[O:1]([C:2]12[C:3]([H:10])([H:11])[N:4]1[C:5]2([H:12])[H:13])[H:8]"
O       -2.15914612      -0.24002320       0.13264629
C       -0.85854014      -0.19520650      -0.22051255
C        0.00621830      -1.10689252      -1.01399115
N        0.84258867      -0.00610772      -0.47353972
C       -0.16883112       1.03049818      -0.75512531
C        1.48058184       0.08711352       1.35446626
O        1.41835571       1.18619899       1.87947594
H       -2.25711575       0.37972621       0.87272005
H       -0.14574596      -0.57465765       1.35000300
H        0.11734611      -2.11538629      -0.62240226
H       -0.16949977      -1.16232929      -2.08753303
H       -0.15759420       1.93175934      -0.14483691
H       -0.32156041       1.33355354      -1.79067404
H        2.37294283      -0.54824661       1.51930342
14
Frame=15 idx=011462 GeodesicLength=2.0375000644286536 rxn_smarts="[O:1]([C:2]1([H:9])[C:3]([H:10])([H:11])[N:4]([C:6](=[O:7])[H:14])[C:5]1([H:12])[H:13])[H:8]>>[C:6](=[O:7])([H:9])[H:14].[O:1]([C:2]12[C:3]([H:10])([H:11])[N:4]1[C:5]2([H:12])[H:13])[H:8]"
O       -2.16281069      -0.22274581       0.12601548
C       -0.85226016      -0.19706311      -0.21148239
C       -0.00269066      -1.10889932      -1.02453800
N        0.83263351      -0.01526008      -0.46954308
C       -0.16781487       1.02715151      -0.76500311
C        1.51295935       0.09238550       1.37720606
O        1.40851187       1.17737387       1.91634387
H       -2.24848989       0.37847257       0.88293869
H       -0.17393921      -0.59849301       1.34526445
H        0.10028977      -2.12292895      -0.64614253
H       -0.18799730      -1.15527790      -2.09678899
H       -0.16273724       1.93866421      -0.17188090
H       -0.32069797       1.32043581      -1.80330735
H        2.42504347      -0.51381527       1.54091781
14
Frame=16 idx=011462 GeodesicLength=2.173480366361518 rxn_smarts="[O:1]([C:2]1([H:9])[C:3]([H:10])([H:11])[N:4]([C:6](=[O:7])[H:14])[C:5]1([H:12])[H:13])[H:8]>>[C:6](=[O:7])([H:9])[H:14].[O:1]([C:2]12[C:3]([H:10])([H:11])[N:4]1[C:5]2([H:12])[H:13])[H:8]"
O       -2.16646392      -0.20474531       0.11908938
C       -0.84636974      -0.19887217      -0.20270057
C       -0.01225540      -1.11101902      -1.03486745
N        0.82246451      -0.02503245      -0.46530167
C       -0.16644852       1.02345937      -0.77468030
C        1.54783502       0.09851621       1.39961240
O        1.39790669       1.16591006       1.95517372
H       -2.24080559       0.37775773       0.89192646
H       -0.20414164      -0.62389744       1.34012248
H        0.08180526      -2.13040291      -0.66969996
H       -0.20683318      -1.14840342      -2.10572814
H       -0.16781863       1.94497768      -0.19908189
H       -0.31912866       1.30722808      -1.81564174
H        2.48025380      -0.47547641       1.56177728
