12
Frame=0 idx=006270 GeodesicLength=0.0 rxn_smarts="[O:1]=[C:2]([O:3][C:4]1([H:8])[C:5]([H:9])([H:10])[C:6]1([H:11])[H:12])[H:7]>>[O:1]([C:2]([O:3][C:4]1([H:8])[C:5]([H:10])=[C:6]1[H:12])([H:7])[H:9])[H:11]"
O        1.21501429       1.43034719      -0.00491172
C        1.38106564       0.20376022      -0.43021786
O        1.16570669      -0.76871021       0.47133663
C       -0.28260946      -0.82225658       0.67823066
C       -0.96296471      -0.33686134      -0.54581760
C       -1.04773379       0.42081854       0.60711317
H        2.15269974       0.04070643      -1.17559711
H       -0.52398865      -1.70269536       1.25509907
H        0.17350279      -0.03205360      -1.16410457
H       -1.67228854      -0.71703075      -1.26858482
H        0.23890271       1.39418546       0.40834945
H       -1.83730667       0.88978996       1.16910466
12
Frame=1 idx=006270 GeodesicLength=0.09914969400853003 rxn_smarts="[O:1]=[C:2]([O:3][C:4]1([H:8])[C:5]([H:9])([H:10])[C:6]1([H:11])[H:12])[H:7]>>[O:1]([C:2]([O:3][C:4]1([H:8])[C:5]([H:10])=[C:6]1[H:12])([H:7])[H:9])[H:11]"
O        1.22777336       1.42722877       0.00616042
C        1.39263241       0.20618932      -0.43340045
O        1.16163952      -0.77683717       0.45515210
C       -0.28287176      -0.82145013       0.67061346
C       -0.97386625      -0.33777889      -0.54864974
C       -1.04983527       0.42281642       0.60441093
H        2.18013515       0.04294634      -1.16220951
H       -0.52139429      -1.69188578       1.26341076
H        0.16978001      -0.03169056      -1.18081427
H       -1.69138639      -0.72725801      -1.25789077
H        0.22534362       1.40366140       0.40826287
H       -1.83795011       0.88405829       1.17495421
12
Frame=2 idx=006270 GeodesicLength=0.19827049364455568 rxn_smarts="[O:1]=[C:2]([O:3][C:4]1([H:8])[C:5]([H:9])([H:10])[C:6]1([H:11])[H:12])[H:7]>>[O:1]([C:2]([O:3][C:4]1([H:8])[C:5]([H:10])=[C:6]1[H:12])([H:7])[H:9])[H:11]"
O        1.24052902       1.42384363       0.01735700
C        1.40441031       0.20860320      -0.43660664
O        1.15743775      -0.78484687       0.43843750
C       -0.28312813      -0.82060166       0.66278387
C       -0.98506848      -0.33875070      -0.55145321
C       -1.05198745       0.42482205       0.60164515
H        2.20796250       0.04488751      -1.14785958
H       -0.51825478      -1.68079792       1.27148797
H        0.16574898      -0.03127533      -1.19787696
H       -1.71070214      -0.73747483      -1.24681524
H        0.21147492       1.41333898       0.40801462
H       -1.83842250       0.87825194       1.18088553
12
Frame=3 idx=006270 GeodesicLength=0.2973767291746351 rxn_smarts="[O:1]=[C:2]([O:3][C:4]1([H:8])[C:5]([H:9])([H:10])[C:6]1([H:11])[H:12])[H:7]>>[O:1]([C:2]([O:3][C:4]1([H:8])[C:5]([H:10])=[C:6]1[H:12])([H:7])[H:9])[H:11]"
O        1.25329160       1.42018918       0.02866187
C        1.41641417       0.21100379      -0.43983390
O        1.15309993      -0.79271545       0.42117772
C       -0.28337183      -0.81970361       0.65473442
C       -0.99657820      -0.33977933      -0.55421960
C       -1.05419101       0.42683644       0.59881560
H        2.23616014       0.04648861      -1.13249440
H       -0.51454129      -1.66943346       1.27929747
H        0.16139142      -0.03079510      -1.21530490
H       -1.73023054      -0.74768741      -1.23534466
H        0.19727183       1.42322778       0.40761029
H       -1.83871622       0.87236857       1.18690010
12
Frame=4 idx=006270 GeodesicLength=0.396455544628395 rxn_smarts="[O:1]=[C:2]([O:3][C:4]1([H:8])[C:5]([H:9])([H:10])[C:6]1([H:11])[H:12])[H:7]>>[O:1]([C:2]([O:3][C:4]1([H:8])[C:5]([H:10])=[C:6]1[H:12])([H:7])[H:9])[H:11]"
O        1.26606681       1.41626001       0.04006312
C        1.42866043       0.21339348      -0.44307761
O        1.14862366      -0.80041946       0.40335280
C       -0.28359570      -0.81874879       0.64645613
C       -1.00840174      -0.34086708      -0.55694099
C       -1.05644505       0.42886079       0.59592140
H        2.26470231       0.04770870      -1.11605673
H       -0.51022147      -1.65779072       1.28680698
H        0.15668807      -0.03023882      -1.23311173
H       -1.74996641      -0.75790208      -1.22346403
H        0.18271039       1.43333771       0.40705237
H       -1.83882129       0.86640626       1.19299829
12
Frame=5 idx=006270 GeodesicLength=0.495484079713775 rxn_smarts="[O:1]=[C:2]([O:3][C:4]1([H:8])[C:5]([H:9])([H:10])[C:6]1([H:11])[H:12])[H:7]>>[O:1]([C:2]([O:3][C:4]1([H:8])[C:5]([H:10])=[C:6]1[H:12])([H:7])[H:9])[H:11]"
O        1.27886016       1.41205665       0.05154721
C        1.44116836       0.21577568      -0.44633127
O        1.14401032      -0.80793101       0.38494779
C       -0.28379214      -0.81773042       0.63794055
C       -1.02054342      -0.34201704      -0.55960892
C       -1.05874782       0.43089603       0.59296160
H        2.29355072       0.04850022      -1.09849197
H       -0.50526741      -1.64586948       1.29397945
H        0.15162191      -0.02959298      -1.25130946
H       -1.76990067      -0.76812623      -1.21115908
H        0.16776581       1.44367582       0.40634238
H       -1.83872581       0.86036274       1.19918172
12
Frame=6 idx=006270 GeodesicLength=0.5945285148764173 rxn_smarts="[O:1]=[C:2]([O:3][C:4]1([H:8])[C:5]([H:9])([H:10])[C:6]1([H:11])[H:12])[H:7]>>[O:1]([C:2]([O:3][C:4]1([H:8])[C:5]([H:10])=[C:6]1[H:12])([H:7])[H:9])[H:11]"
O        1.29170870       1.40758317       0.06310446
C        1.45396268       0.21814828      -0.44958359
O        1.13926248      -0.81522163       0.36595696
C       -0.28395116      -0.81663702       0.62918078
C       -1.03300450      -0.34323353      -0.56221318
C       -1.06110168       0.43294223       0.58993493
H        2.32265529       0.04881327      -1.07976935
H       -0.49965864      -1.63368172       1.30078380
H        0.14617549      -0.02883728      -1.26990934
H       -1.79001754      -0.77837068      -1.19841719
H        0.15239646       1.45426365       0.40548295
H       -1.83842758       0.85423125       1.20544880
12
Frame=7 idx=006270 GeodesicLength=0.6935592764497648 rxn_smarts="[O:1]=[C:2]([O:3][C:4]1([H:8])[C:5]([H:9])([H:10])[C:6]1([H:11])[H:12])[H:7]>>[O:1]([C:2]([O:3][C:4]1([H:8])[C:5]([H:10])=[C:6]1[H:12])([H:7])[H:9])[H:11]"
O        1.30462095       1.40283065       0.07473715
C        1.46706789       0.22051567      -0.45282105
O        1.13437887      -0.82225888       0.34635386
C       -0.28406269      -0.81545923       0.62016560
C       -1.04578905      -0.34452035      -0.56474466
C       -1.06350324       0.43500118       0.58683933
H        2.35196643       0.04859107      -1.05983288
H       -0.49336081      -1.62121724       1.30717891
H        0.14032772      -0.02795252      -1.28892443
H       -1.81030176      -0.78865002      -1.18521769
H        0.13656677       1.46511116       0.40446624
H       -1.83791107       0.84800851       1.21179961
12
Frame=8 idx=006270 GeodesicLength=0.7925946904287503 rxn_smarts="[O:1]=[C:2]([O:3][C:4]1([H:8])[C:5]([H:9])([H:10])[C:6]1([H:11])[H:12])[H:7]>>[O:1]([C:2]([O:3][C:4]1([H:8])[C:5]([H:10])=[C:6]1[H:12])([H:7])[H:9])[H:11]"
O        1.31762624       1.39779768       0.08644988
C        1.48051413       0.22287839      -0.45602487
O        1.12936226      -0.82900874       0.32612793
C       -0.28411773      -0.81418521       0.61088602
C       -1.05889589      -0.34588405      -0.56719294
C       -1.06595278       0.43707311       0.58367291
H        2.38141675       0.04777483      -1.03865679
H       -0.48634813      -1.60847606       1.31313082
H        0.13406166      -0.02691549      -1.30836306
H       -1.83073075      -0.79897828      -1.17154833
H        0.12023133       1.47623504       0.40328719
H       -1.83716709       0.84168877       1.21823123
12
Frame=9 idx=006270 GeodesicLength=0.891717635845985 rxn_smarts="[O:1]=[C:2]([O:3][C:4]1([H:8])[C:5]([H:9])([H:10])[C:6]1([H:11])[H:12])[H:7]>>[O:1]([C:2]([O:3][C:4]1([H:8])[C:5]([H:10])=[C:6]1[H:12])([H:7])[H:9])[H:11]"
O        1.33078014       1.39251353       0.09825925
C        1.49437633       0.22521499      -0.45912598
O        1.12422840      -0.83545580       0.30530715
C       -0.28410060      -0.81280008       0.60134622
C       -1.07231058      -0.34733310      -0.56953763
C       -1.06845036       0.43916024       0.58043391
H        2.41088671       0.04634279      -1.01631214
H       -0.47865843      -1.59548630       1.31860535
H        0.12736755      -0.02571566      -1.32823336
H       -1.85126402      -0.80937520      -1.15740643
H        0.10334248       1.48766980       0.40192395
H       -1.83619762       0.83526479       1.22473971
12
Frame=10 idx=006270 GeodesicLength=0.9908415376256269 rxn_smarts="[O:1]=[C:2]([O:3][C:4]1([H:8])[C:5]([H:9])([H:10])[C:6]1([H:11])[H:12])[H:7]>>[O:1]([C:2]([O:3][C:4]1([H:8])[C:5]([H:10])=[C:6]1[H:12])([H:7])[H:9])[H:11]"
O        1.34408297       1.38694030       0.11018128
C        1.50864100       0.22754605      -0.46213975
O        1.11896738      -0.84154728       0.28383027
C       -0.28400353      -0.81129382       0.59152232
C       -1.08604575      -0.34887013      -0.57177772
C       -1.07099573       0.44126225       0.57711965
H        2.44035994       0.04418861      -0.99267925
H       -0.47019551      -1.58221630       1.32356393
H        0.12022125      -0.02431300      -1.34854854
H       -1.87189752      -0.81985542      -1.14275994
H        0.08584432       1.49942771       0.40036015
H       -1.83497881       0.82873104       1.23132760
12
Frame=11 idx=006270 GeodesicLength=1.0899783182417198 rxn_smarts="[O:1]=[C:2]([O:3][C:4]1([H:8])[C:5]([H:9])([H:10])[C:6]1([H:11])[H:12])[H:7]>>[O:1]([C:2]([O:3][C:4]1([H:8])[C:5]([H:10])=[C:6]1[H:12])([H:7])[H:9])[H:11]"
O        1.35757579       1.38107291       0.12224758
C        1.52334612       0.22986630      -0.46502752
O        1.11358430      -0.84725196       0.26168740
C       -0.28381353      -0.80965335       0.58140663
C       -1.10009641      -0.35050279      -0.57389971
C       -1.07358690       0.44338116       0.57372627
H        2.46975019       0.04125903      -0.96776024
H       -0.46094069      -1.56867043       1.32797389
H        0.11260826      -0.02268291      -1.36931740
H       -1.89260459      -0.83043953      -1.12759213
H        0.06767808       1.51153882       0.39856511
H       -1.83350063       0.82208274       1.23799013
12
Frame=12 idx=006270 GeodesicLength=1.1890926876449341 rxn_smarts="[O:1]=[C:2]([O:3][C:4]1([H:8])[C:5]([H:9])([H:10])[C:6]1([H:11])[H:12])[H:7]>>[O:1]([C:2]([O:3][C:4]1([H:8])[C:5]([H:10])=[C:6]1[H:12])([H:7])[H:9])[H:11]"
O        1.37127759       1.37490471       0.13447993
C        1.53852887       0.23217378      -0.46774694
O        1.10808170      -0.85253032       0.23886048
C       -0.28351668      -0.80786543       0.57098642
C       -1.11445925      -0.35223727      -0.57589221
C       -1.07622154       0.44551888       0.57025078
H        2.49897840       0.03748615      -0.94154321
H       -0.45086634      -1.55484666       1.33179994
H        0.10451536      -0.02079771      -1.39055086
H       -1.91335918      -0.84114745      -1.11188277
H        0.04878781       1.52402637       0.39651198
H       -1.83174675       0.81531495       1.24472646
12
Frame=13 idx=006270 GeodesicLength=1.2881976851389143 rxn_smarts="[O:1]=[C:2]([O:3][C:4]1([H:8])[C:5]([H:9])([H:10])[C:6]1([H:11])[H:12])[H:7]>>[O:1]([C:2]([O:3][C:4]1([H:8])[C:5]([H:10])=[C:6]1[H:12])([H:7])[H:9])[H:11]"
O        1.38523485       1.36842122       0.14692277
C        1.55423100       0.23446031      -0.47024851
O        1.10246318      -0.85734647       0.21533749
C       -0.28310066      -0.80591445       0.56025316
C       -1.12912648      -0.35408302      -0.57774240
C       -1.07889954       0.44767690       0.56668886
H        2.52795258       0.03280956      -0.91404979
H       -0.43994823      -1.54073781       1.33501065
H        0.09592782      -0.01862672      -1.41225395
H       -1.93412769      -0.85200423      -1.09561461
H        0.02910119       1.53692319       0.39416644
H       -1.82970802       0.80842151       1.25152990
12
Frame=14 idx=006270 GeodesicLength=1.3872908836707887 rxn_smarts="[O:1]=[C:2]([O:3][C:4]1([H:8])[C:5]([H:9])([H:10])[C:6]1([H:11])[H:12])[H:7]>>[O:1]([C:2]([O:3][C:4]1([H:8])[C:5]([H:10])=[C:6]1[H:12])([H:7])[H:9])[H:11]"
O        1.39948169       1.36161329       0.15961964
C        1.57049312       0.23672409      -0.47248502
O        1.09673527      -0.86165200       0.19109501
C       -0.28255044      -0.80378344       0.54919131
C       -1.14409523      -0.35604971      -0.57943605
C       -1.08161975       0.44985695       0.56303660
H        2.55659520       0.02714294      -0.88527793
H       -0.42815616      -1.52633350       1.33756797
H        0.08682238      -0.01613425      -1.43443963
H       -1.95487710      -0.86303671      -1.07876178
H        0.00853701       1.55025695       0.39148995
H       -1.82736600       0.80139539       1.25839992
12
Frame=15 idx=006270 GeodesicLength=1.486364731698949 rxn_smarts="[O:1]=[C:2]([O:3][C:4]1([H:8])[C:5]([H:9])([H:10])[C:6]1([H:11])[H:12])[H:7]>>[O:1]([C:2]([O:3][C:4]1([H:8])[C:5]([H:10])=[C:6]1[H:12])([H:7])[H:9])[H:11]"
O        1.41405929       1.35446986       0.17261972
C        1.58735932       0.23895697      -0.47440287
O        1.09090495      -0.86539930       0.16611038
C       -0.28185056      -0.80145351       0.53778659
C       -1.15935962      -0.35814811      -0.58095874
C       -1.08438130       0.45206072       0.55928997
H        2.58482500       0.02040766      -0.85523990
H       -0.41546635      -1.51162661       1.33943843
H        0.07717519      -0.01328272      -1.45711858
H       -1.97557265      -0.87427574      -1.06129779
H       -0.01298898       1.56406034       0.38843957
H       -1.82470430       0.79423044       1.26533321
12
Frame=16 idx=006270 GeodesicLength=1.5854222046506659 rxn_smarts="[O:1]=[C:2]([O:3][C:4]1([H:8])[C:5]([H:9])([H:10])[C:6]1([H:11])[H:12])[H:7]>>[O:1]([C:2]([O:3][C:4]1([H:8])[C:5]([H:10])=[C:6]1[H:12])([H:7])[H:9])[H:11]"
O        1.42901972       1.34697886       0.18599392
C        1.60488076       0.24114705      -0.47593483
O        1.08498402      -0.86853933       0.14036961
C       -0.28098226      -0.79890372       0.52602931
C       -1.17490844      -0.36039292      -0.58229182
C       -1.08718411       0.45428999       0.55544567
H        2.61253874       0.01251884      -0.82398478
H       -0.40186000      -1.49661227       1.34059074
H        0.06696646      -0.01003056      -1.48029655
H       -1.99616930      -0.88575266      -1.04320348
H       -0.03557490       1.57837622       0.38495823
H       -1.82171070       0.78692049       1.27232398
