10
Frame=0 idx=004064 GeodesicLength=0.0 rxn_smarts="[N:1]([c:2]1[c:3]([H:9])[n:4][c:5]([H:10])[o:6]1)([H:7])[H:8]>>[N:1]([c:2]1[c-:3][n:4]([H:9])[c:5]([H:10])[o+:6]1)([H:7])[H:8]"
N        1.85070303      -0.48898918       0.18058421
C        0.54460388      -0.05417634       0.12781154
C       -0.05495442       1.12578988       0.44738838
N       -1.47255641       0.78995501       0.26723001
C       -1.55974512      -0.43232129      -0.15514399
O       -0.37732774      -1.02716931      -0.16682793
H        2.15080251      -1.02296932      -0.62036041
H        2.48016044       0.26868103       0.39040706
H       -1.13026565       1.84147119      -0.03485136
H       -2.43142051      -1.00027166      -0.43623751
10
Frame=1 idx=004064 GeodesicLength=0.04096225374452542 rxn_smarts="[N:1]([c:2]1[c:3]([H:9])[n:4][c:5]([H:10])[o:6]1)([H:7])[H:8]>>[N:1]([c:2]1[c-:3][n:4]([H:9])[c:5]([H:10])[o+:6]1)([H:7])[H:8]"
N        1.85149232      -0.48740770       0.17980072
C        0.54331566      -0.05721045       0.13464557
C       -0.05961443       1.12002912       0.45622617
N       -1.47186273       0.78837795       0.26538896
C       -1.55920120      -0.43399147      -0.15596509
O       -0.37803441      -1.03251643      -0.15605083
H        2.14763767      -1.02187319      -0.62235656
H        2.47983260       0.27346664       0.38138610
H       -1.12331141       1.85041456      -0.03868792
H       -2.43025407      -0.99928903      -0.44438710
10
Frame=2 idx=004064 GeodesicLength=0.08192191164511853 rxn_smarts="[N:1]([c:2]1[c:3]([H:9])[n:4][c:5]([H:10])[o:6]1)([H:7])[H:8]>>[N:1]([c:2]1[c-:3][n:4]([H:9])[c:5]([H:10])[o+:6]1)([H:7])[H:8]"
N        1.85219004      -0.48583570       0.17910294
C        0.54204370      -0.06014941       0.14115543
C       -0.06424563       1.11443758       0.46443566
N       -1.47115797       0.78665981       0.26398436
C       -1.55866682      -0.43576187      -0.15646557
O       -0.37872458      -1.03768677      -0.14581817
H        2.14456272      -1.02092778      -0.62408533
H        2.47932417       0.27818857       0.37254352
H       -1.11634704       1.85940324      -0.04234600
H       -2.42897860      -0.99832767      -0.45250684
10
Frame=3 idx=004064 GeodesicLength=0.12287332717534159 rxn_smarts="[N:1]([c:2]1[c:3]([H:9])[n:4][c:5]([H:10])[o:6]1)([H:7])[H:8]>>[N:1]([c:2]1[c-:3][n:4]([H:9])[c:5]([H:10])[o+:6]1)([H:7])[H:8]"
N        1.85279330      -0.48429325       0.17851613
C        0.54080093      -0.06294844       0.14715655
C       -0.06882745       1.10903648       0.47193492
N       -1.47045561       0.78479285       0.26305561
C       -1.55815971      -0.43761138      -0.15669017
O       -0.37937881      -1.04263930      -0.13632892
H        2.14167486      -1.02015371      -0.62548808
H        2.47864930       0.28278700       0.36402305
H       -1.10944375       1.86845749      -0.04578940
H       -2.42765305      -0.99742774      -0.46038969
10
Frame=4 idx=004064 GeodesicLength=0.16380758361390488 rxn_smarts="[N:1]([c:2]1[c:3]([H:9])[n:4][c:5]([H:10])[o:6]1)([H:7])[H:8]>>[N:1]([c:2]1[c-:3][n:4]([H:9])[c:5]([H:10])[o+:6]1)([H:7])[H:8]"
N        1.85330156      -0.48280383       0.17806610
C        0.53959753      -0.06556863       0.15247213
C       -0.07334444       1.10383334       0.47866843
N       -1.46977200       0.78277653       0.26260227
C       -1.55769200      -0.43950402      -0.15675178
O       -0.37997781      -1.04733385      -0.12780086
H        2.13907788      -1.01954668      -0.62652419
H        2.47782745       0.28719510       0.35599714
H       -1.10265344       1.87760760      -0.04898545
H       -2.42636472      -0.99665556      -0.46774379
10
Frame=5 idx=004064 GeodesicLength=0.20476357162607636 rxn_smarts="[N:1]([c:2]1[c:3]([H:9])[n:4][c:5]([H:10])[o:6]1)([H:7])[H:8]>>[N:1]([c:2]1[c-:3][n:4]([H:9])[c:5]([H:10])[o+:6]1)([H:7])[H:8]"
N        1.85370102      -0.48143154       0.17781963
C        0.53845178      -0.06794689       0.15675828
C       -0.07778017       1.09882687       0.48451479
N       -1.46910255       0.78061170       0.26256839
C       -1.55727983      -0.44135724      -0.15691404
O       -0.38048012      -1.05164540      -0.12087733
H        2.13699940      -1.01901835      -0.62714763
H        2.47687151       0.29124763       0.34894627
H       -1.09602283       1.88691825      -0.05190850
H       -2.42535822      -0.99620503      -0.47375987
10
Frame=6 idx=004064 GeodesicLength=0.2457059210239816 rxn_smarts="[N:1]([c:2]1[c:3]([H:9])[n:4][c:5]([H:10])[o:6]1)([H:7])[H:8]>>[N:1]([c:2]1[c-:3][n:4]([H:9])[c:5]([H:10])[o+:6]1)([H:7])[H:8]"
N        1.85403725      -0.48009732       0.17769027
C        0.53733144      -0.07018355       0.16048122
C       -0.08216668       1.09397393       0.48974487
N       -1.46848160       0.77830933       0.26292160
C       -1.55690235      -0.44322496      -0.15705767
O       -0.38093260      -1.05576992      -0.11472349
H        2.13518234      -1.01861472      -0.62747475
H        2.47582475       0.29514948       0.34230890
H       -1.08944713       1.89634680      -0.05462209
H       -2.42444541      -0.99588908      -0.47926887
10
Frame=7 idx=004064 GeodesicLength=0.2866556092870486 rxn_smarts="[N:1]([c:2]1[c:3]([H:9])[n:4][c:5]([H:10])[o:6]1)([H:7])[H:8]>>[N:1]([c:2]1[c-:3][n:4]([H:9])[c:5]([H:10])[o+:6]1)([H:7])[H:8]"
N        1.85433409      -0.47874854       0.17763709
C        0.53621596      -0.07233765       0.16391944
C       -0.08653044       1.08924273       0.49453122
N       -1.46792120       0.77586804       0.26364809
C       -1.55654985      -0.44513965      -0.15711103
O       -0.38136352      -1.05981436      -0.10889426
H        2.13347275      -1.01838371      -0.62754613
H        2.47470396       0.29903825       0.33572703
H       -1.08285339       1.90587471      -0.05716195
H       -2.42350836      -0.99559980      -0.48474949
10
Frame=8 idx=004064 GeodesicLength=0.327574471954097 rxn_smarts="[N:1]([c:2]1[c:3]([H:9])[n:4][c:5]([H:10])[o:6]1)([H:7])[H:8]>>[N:1]([c:2]1[c-:3][n:4]([H:9])[c:5]([H:10])[o+:6]1)([H:7])[H:8]"
N        1.85461249      -0.47732540       0.17755798
C        0.53508343      -0.07448223       0.16747192
C       -0.09088600       1.08463554       0.49900734
N       -1.46743492       0.77327686       0.26485741
C       -1.55623442      -0.44721472      -0.15665424
O       -0.38180979      -1.06392279      -0.10263458
H        2.13162835      -1.01834742      -0.62749165
H        2.47350770       0.30304669       0.32873536
H       -1.07620249       1.91539532      -0.05967058
H       -2.42226435      -0.99506184      -0.49117896
10
Frame=9 idx=004064 GeodesicLength=0.36850027479020453 rxn_smarts="[N:1]([c:2]1[c:3]([H:9])[n:4][c:5]([H:10])[o:6]1)([H:7])[H:8]>>[N:1]([c:2]1[c-:3][n:4]([H:9])[c:5]([H:10])[o+:6]1)([H:7])[H:8]"
N        1.85483619      -0.47594259       0.17758990
C        0.53395702      -0.07653271       0.17058833
C       -0.09522895       1.08011112       0.50305268
N       -1.46701213       0.77057103       0.26624287
C       -1.55591820      -0.44922281      -0.15654645
O       -0.38221180      -1.06786349      -0.09715820
H        2.13002927      -1.01832062      -0.62723400
H        2.47222778       0.30689990       0.32220558
H       -1.06946281       1.92509898      -0.06199312
H       -2.42121637      -0.99479880      -0.49674761
10
Frame=10 idx=004064 GeodesicLength=0.40942715285671377 rxn_smarts="[N:1]([c:2]1[c:3]([H:9])[n:4][c:5]([H:10])[o:6]1)([H:7])[H:8]>>[N:1]([c:2]1[c-:3][n:4]([H:9])[c:5]([H:10])[o+:6]1)([H:7])[H:8]"
N        1.85502708      -0.47453949       0.17762540
C        0.53281269      -0.07857075       0.17368817
C       -0.09956554       1.07568376       0.50678322
N       -1.46666262       0.76773870       0.26795283
C       -1.55563286      -0.45131375      -0.15625221
O       -0.38261761      -1.07180427      -0.09168171
H        2.12842108      -1.01831153      -0.62693475
H        2.47087106       0.31074511       0.31567605
H       -1.06258819       1.93486999      -0.06431155
H       -2.42006509      -0.99449778      -0.50254545
10
Frame=11 idx=004064 GeodesicLength=0.45035574584330595 rxn_smarts="[N:1]([c:2]1[c:3]([H:9])[n:4][c:5]([H:10])[o:6]1)([H:7])[H:8]>>[N:1]([c:2]1[c-:3][n:4]([H:9])[c:5]([H:10])[o+:6]1)([H:7])[H:8]"
N        1.85519524      -0.47307097       0.17762567
C        0.53163499      -0.08064005       0.17700728
C       -0.10391941       1.07133817       0.51032588
N       -1.46639653       0.76477123       0.27000007
C       -1.55536228      -0.45351844      -0.15569381
O       -0.38305003      -1.07582258      -0.08580817
H        2.12665745      -1.01838223      -0.62661127
H        2.46942398       0.31469381       0.30881326
H       -1.05552940       1.94468446      -0.06663716
H       -2.41865402      -0.99405340      -0.50902175
10
Frame=12 idx=004064 GeodesicLength=0.49128199527910404 rxn_smarts="[N:1]([c:2]1[c:3]([H:9])[n:4][c:5]([H:10])[o:6]1)([H:7])[H:8]>>[N:1]([c:2]1[c-:3][n:4]([H:9])[c:5]([H:10])[o+:6]1)([H:7])[H:8]"
N        1.85532895      -0.47156942       0.17763636
C        0.53044011      -0.08267876       0.18027539
C       -0.10827417       1.06709158       0.51356677
N       -1.46621794       0.76165946       0.27240549
C       -1.55511608      -0.45579781      -0.15498545
O       -0.38348330      -1.07983803      -0.07990268
H        2.12488348      -1.01854209      -0.62617857
H        2.46789521       0.31865653       0.30186515
H       -1.04835326       1.95457809      -0.06891708
H       -2.41710300      -0.99355954      -0.51576538
10
Frame=13 idx=004064 GeodesicLength=0.5322071906745545 rxn_smarts="[N:1]([c:2]1[c:3]([H:9])[n:4][c:5]([H:10])[o:6]1)([H:7])[H:8]>>[N:1]([c:2]1[c-:3][n:4]([H:9])[c:5]([H:10])[o+:6]1)([H:7])[H:8]"
N        1.85541795      -0.47008284       0.17771870
C        0.52924637      -0.08462301       0.18317197
C       -0.11261320       1.06295073       0.51637982
N       -1.46612514       0.75840104       0.27514499
C       -1.55490247      -0.45808844      -0.15432959
O       -0.38388361      -1.08374945      -0.07447765
H        2.12329258      -1.01875070      -0.62556698
H        2.46630616       0.32251101       0.29520864
H       -1.04111059       1.96460375      -0.07110518
H       -2.41562806      -0.99317210      -0.52214473
10
Frame=14 idx=004064 GeodesicLength=0.573129636009075 rxn_smarts="[N:1]([c:2]1[c:3]([H:9])[n:4][c:5]([H:10])[o:6]1)([H:7])[H:8]>>[N:1]([c:2]1[c-:3][n:4]([H:9])[c:5]([H:10])[o+:6]1)([H:7])[H:8]"
N        1.85547099      -0.46857471       0.17784368
C        0.52804038      -0.08650706       0.18587370
C       -0.11695515       1.05890197       0.51886363
N       -1.46612696       0.75499020       0.27823258
C       -1.55471880      -0.46042685      -0.15362430
O       -0.38426786      -1.08761692      -0.06924804
H        2.12178026      -1.01905138      -0.62478966
H        2.46464801       0.32634495       0.28859226
H       -1.03375570       1.97474089      -0.07322363
H       -2.41411517      -0.99280109      -0.52852021
10
Frame=15 idx=004064 GeodesicLength=0.6140523697664252 rxn_smarts="[N:1]([c:2]1[c:3]([H:9])[n:4][c:5]([H:10])[o:6]1)([H:7])[H:8]>>[N:1]([c:2]1[c-:3][n:4]([H:9])[c:5]([H:10])[o+:6]1)([H:7])[H:8]"
N        1.85549049      -0.46703006       0.17800032
C        0.52681628      -0.08834550       0.18845146
C       -0.12130845       1.05493961       0.52105405
N       -1.46622754       0.75141951       0.28168164
C       -1.55456336      -0.46282395      -0.15284296
O       -0.38464167      -1.09146286      -0.06411305
H        2.12030672      -1.01945970      -0.62384956
H        2.46291406       0.33019168       0.28192080
H       -1.02626692       1.98498376      -0.07528474
H       -2.41251960      -0.99241248      -0.53501797
10
Frame=16 idx=004064 GeodesicLength=0.6549707690693573 rxn_smarts="[N:1]([c:2]1[c:3]([H:9])[n:4][c:5]([H:10])[o:6]1)([H:7])[H:8]>>[N:1]([c:2]1[c-:3][n:4]([H:9])[c:5]([H:10])[o+:6]1)([H:7])[H:8]"
N        1.85546883      -0.46550680       0.17825076
C        0.52559217      -0.09007989       0.19057915
C       -0.12565282       1.05106884       0.52280912
N       -1.46641973       0.74768969       0.28544720
C       -1.55444341      -0.46520900      -0.15221133
O       -0.38497282      -1.09518777      -0.05960773
H        2.11907966      -1.01988870      -0.62271271
H        2.46113930       0.33391103       0.27564180
H       -1.01868200       1.99538868      -0.07725825
H       -2.41110918      -0.99218607      -0.54093802
