11
Frame=0 idx=005442 GeodesicLength=0.0 rxn_smarts="[O:1]=[C:2]1[N:3]([H:7])[C:4]([H:8])([H:9])[C:5]([H:10])([H:11])[O:6]1>>[N:3](=[C:4](/[C:5]([H:9])([H:10])[H:11])[H:8])\[H:7].[O:1]=[C:2]=[O:6]"
O        2.74007230      -0.06661668      -0.06918849
C        1.57958186       0.24082793      -0.21272905
N        0.61227219      -0.67331866       0.55425748
C       -0.63643126      -0.60269170       0.05791699
C       -1.04634756       0.72203276      -0.16758899
O        0.98229077       1.11699195      -0.87092616
H        1.01240554      -1.57416212       0.76250039
H       -1.11109010      -1.41864550      -0.48392573
H       -1.59349108      -0.18232080       0.80386955
H       -0.69924607       1.49571669       0.49763451
H       -1.84001655       0.94218614      -0.87182045
11
Frame=1 idx=005442 GeodesicLength=0.06957195210763796 rxn_smarts="[O:1]=[C:2]1[N:3]([H:7])[C:4]([H:8])([H:9])[C:5]([H:10])([H:11])[O:6]1>>[N:3](=[C:4](/[C:5]([H:9])([H:10])[H:11])[H:8])\[H:7].[O:1]=[C:2]=[O:6]"
O        2.75037262      -0.05744934      -0.07893864
C        1.59076744       0.24800382      -0.21573155
N        0.61131201      -0.68248168       0.55324967
C       -0.64203266      -0.60952488       0.06849316
C       -1.04357725       0.72191047      -0.16810430
O        0.98235396       1.12519487      -0.86363304
H        1.00809443      -1.58606591       0.75706563
H       -1.11639797      -1.42381855      -0.47677984
H       -1.60683018      -0.17092352       0.80806560
H       -0.70626203       1.49737837       0.50087722
H       -1.82780037       0.93777633      -0.88456391
11
Frame=2 idx=005442 GeodesicLength=0.13913463655103736 rxn_smarts="[O:1]=[C:2]1[N:3]([H:7])[C:4]([H:8])([H:9])[C:5]([H:10])([H:11])[O:6]1>>[N:3](=[C:4](/[C:5]([H:9])([H:10])[H:11])[H:8])\[H:7].[O:1]=[C:2]=[O:6]"
O        2.76082077      -0.04790910      -0.08852402
C        1.60211349       0.25530311      -0.21890443
N        0.61027200      -0.69184323       0.55208268
C       -0.64774988      -0.61637465       0.07931268
C       -1.04071965       0.72171281      -0.16853499
O        0.98246428       1.13331143      -0.85631620
H        1.00357993      -1.59818314       0.75144915
H       -1.12180216      -1.42892045      -0.46954085
H       -1.62027939      -0.15932342       0.81207751
H       -0.71329090       1.49911409       0.50391664
H       -1.81540851       0.93311256      -0.89701818
11
Frame=3 idx=005442 GeodesicLength=0.20867966378127378 rxn_smarts="[O:1]=[C:2]1[N:3]([H:7])[C:4]([H:8])([H:9])[C:5]([H:10])([H:11])[O:6]1>>[N:3](=[C:4](/[C:5]([H:9])([H:10])[H:11])[H:8])\[H:7].[O:1]=[C:2]=[O:6]"
O        2.77142321      -0.03801091      -0.09795602
C        1.61362542       0.26273689      -0.22224997
N        0.60914521      -0.70139974       0.55075487
C       -0.65357700      -0.62323973       0.09036865
C       -1.03777329       0.72143778      -0.16887659
O        0.98262320       1.14133480      -0.84898436
H        0.99885143      -1.61050140       0.74568664
H       -1.12728958      -1.43394379      -0.46222756
H       -1.63383683      -0.14753388       0.81588407
H       -0.72032745       1.50092204       0.50675468
H       -1.80286431       0.92819795      -0.90915442
11
Frame=4 idx=005442 GeodesicLength=0.27819917246040254 rxn_smarts="[O:1]=[C:2]1[N:3]([H:7])[C:4]([H:8])([H:9])[C:5]([H:10])([H:11])[O:6]1>>[N:3](=[C:4](/[C:5]([H:9])([H:10])[H:11])[H:8])\[H:7].[O:1]=[C:2]=[O:6]"
O        2.78218726      -0.02778120      -0.10726380
C        1.62530814       0.27031994      -0.22576558
N        0.60792387      -0.71114436       0.54926974
C       -0.65950651      -0.63011917       0.10165184
C       -1.03473785       0.72108377      -0.16912402
O        0.98283210       1.14926232      -0.84164049
H        0.99389866      -1.62300453       0.73982389
H       -1.13284234      -1.43888248      -0.45486213
H       -1.64750340      -0.13557158       0.81946105
H       -0.72737071       1.50279962       0.50939778
H       -1.79018923       0.92303768      -0.92094828
11
Frame=5 idx=005442 GeodesicLength=0.34770659582521757 rxn_smarts="[O:1]=[C:2]1[N:3]([H:7])[C:4]([H:8])([H:9])[C:5]([H:10])([H:11])[O:6]1>>[N:3](=[C:4](/[C:5]([H:9])([H:10])[H:11])[H:8])\[H:7].[O:1]=[C:2]=[O:6]"
O        2.79309333      -0.01717673      -0.11638108
C        1.63717639       0.27806180      -0.22946951
N        0.60660190      -0.72109250       0.54760091
C       -0.66553589      -0.63701585       0.11315435
C       -1.03160888       0.72064795      -0.16927063
O        0.98308675       1.15706062      -0.83433384
H        0.98870802      -1.63570099       0.73387069
H       -1.13847323      -1.44372711      -0.44745345
H       -1.66124724      -0.12344895       0.82281622
H       -0.73439014       1.50473925       0.51183702
H       -1.77741102       0.91765250      -0.93237067
11
Frame=6 idx=005442 GeodesicLength=0.41719028189277474 rxn_smarts="[O:1]=[C:2]1[N:3]([H:7])[C:4]([H:8])([H:9])[C:5]([H:10])([H:11])[O:6]1>>[N:3](=[C:4](/[C:5]([H:9])([H:10])[H:11])[H:8])\[H:7].[O:1]=[C:2]=[O:6]"
O        2.80419562      -0.00621166      -0.12536978
C        1.64921448       0.28595604      -0.23338702
N        0.60517625      -0.73124461       0.54576235
C       -0.67166239      -0.64392526       0.12488059
C       -1.02838655       0.72013254      -0.16931545
O        0.98339622       1.16478183      -0.82699874
H        0.98327457      -1.64859891       0.72782864
H       -1.14419910      -1.44849288      -0.43994932
H       -1.67509708      -0.11116166       0.82591071
H       -0.74141991       1.50674021       0.51409179
H       -1.76449211       0.91202434      -0.94345377
11
Frame=7 idx=005442 GeodesicLength=0.48663817107254986 rxn_smarts="[O:1]=[C:2]1[N:3]([H:7])[C:4]([H:8])([H:9])[C:5]([H:10])([H:11])[O:6]1>>[N:3](=[C:4](/[C:5]([H:9])([H:10])[H:11])[H:8])\[H:7].[O:1]=[C:2]=[O:6]"
O        2.81544070       0.00512767      -0.13414134
C        1.66145708       0.29403980      -0.23749561
N        0.60363571      -0.74160131       0.54370653
C       -0.67787611      -0.65085019       0.13681941
C       -1.02506579       0.71952453      -0.16925419
O        0.98375343       1.17236772      -0.81970490
H        0.97758148      -1.66168526       0.72167638
H       -1.15002544      -1.45316158      -0.43236452
H       -1.68899829      -0.09871697       0.82877253
H       -0.74842125       1.50879831       0.51614837
H       -1.75148152       0.90615726      -0.95416265
11
Frame=8 idx=005442 GeodesicLength=0.5560580965704967 rxn_smarts="[O:1]=[C:2]1[N:3]([H:7])[C:4]([H:8])([H:9])[C:5]([H:10])([H:11])[O:6]1>>[N:3](=[C:4](/[C:5]([H:9])([H:10])[H:11])[H:8])\[H:7].[O:1]=[C:2]=[O:6]"
O        2.82687990       0.01675842      -0.14289923
C        1.67388662       0.30233834      -0.24176734
N        0.60197924      -0.75215717       0.54148530
C       -0.68416958      -0.65778410       0.14897419
C       -1.02165050       0.71883323      -0.16908774
O        0.98417507       1.17990611      -0.81233623
H        0.97162712      -1.67496236       0.71548599
H       -1.15594054      -1.45775388      -0.42467082
H       -1.70300173      -0.08613393       0.83133064
H       -0.75545864       1.51091411       0.51802985
H       -1.73832696       0.90004123      -0.96454461
11
Frame=9 idx=005442 GeodesicLength=0.6254725351018048 rxn_smarts="[O:1]=[C:2]1[N:3]([H:7])[C:4]([H:8])([H:9])[C:5]([H:10])([H:11])[O:6]1>>[N:3](=[C:4](/[C:5]([H:9])([H:10])[H:11])[H:8])\[H:7].[O:1]=[C:2]=[O:6]"
O        2.83849676       0.02879599      -0.15144675
C        1.68652733       0.31084663      -0.24625963
N        0.60019420      -0.76294034       0.53903716
C       -0.69054317      -0.66473573       0.16132940
C       -1.01813542       0.71805105      -0.16880673
O        0.98464563       1.18731757      -0.80500680
H        0.96538579      -1.68844935       0.70922527
H       -1.16198648      -1.46224981      -0.41687311
H       -1.71703905      -0.07341374       0.83363345
H       -0.76246447       1.51307681       0.51971957
H       -1.72508112       0.89370092      -0.97455185
11
Frame=10 idx=005442 GeodesicLength=0.6948552309555566 rxn_smarts="[O:1]=[C:2]1[N:3]([H:7])[C:4]([H:8])([H:9])[C:5]([H:10])([H:11])[O:6]1>>[N:3](=[C:4](/[C:5]([H:9])([H:10])[H:11])[H:8])\[H:7].[O:1]=[C:2]=[O:6]"
O        2.85030236       0.04111985      -0.15999431
C        1.69937435       0.31962444      -0.25089368
N        0.59827942      -0.77393277       0.53639804
C       -0.69698153      -0.67169417       0.17389108
C       -1.01452022       0.71717865      -0.16841661
O        0.98518573       1.19468253      -0.79759493
H        0.95885631      -1.70213460       0.70292639
H       -1.16814894      -1.46667174      -0.40893153
H       -1.73114912      -0.06056839       0.83562061
H       -0.76950702       1.51529092       0.52123220
H       -1.71169134       0.88710528      -0.98423728
11
Frame=11 idx=005442 GeodesicLength=0.764222767976285 rxn_smarts="[O:1]=[C:2]1[N:3]([H:7])[C:4]([H:8])([H:9])[C:5]([H:10])([H:11])[O:6]1>>[N:3](=[C:4](/[C:5]([H:9])([H:10])[H:11])[H:8])\[H:7].[O:1]=[C:2]=[O:6]"
O        2.86229310       0.05365202      -0.16869950
C        1.71244999       0.32872392      -0.25560176
N        0.59622645      -0.78512605       0.53358582
C       -0.70347502      -0.67865792       0.18666660
C       -1.01080684       0.71621105      -0.16791836
O        0.98580457       1.20204965      -0.79001051
H        0.95202986      -1.71600494       0.69661265
H       -1.17442554      -1.47102270      -0.40081273
H       -1.74534760      -0.04761648       0.83725257
H       -0.77663369       1.51755313       0.52257194
H       -1.69811528       0.88023832      -0.99364672
11
Frame=12 idx=005442 GeodesicLength=0.8335797209645086 rxn_smarts="[O:1]=[C:2]1[N:3]([H:7])[C:4]([H:8])([H:9])[C:5]([H:10])([H:11])[O:6]1>>[N:3](=[C:4](/[C:5]([H:9])([H:10])[H:11])[H:8])\[H:7].[O:1]=[C:2]=[O:6]"
O        2.87448852       0.06649690      -0.17742982
C        1.72575829       0.33814100      -0.26042816
N        0.59403200      -0.79655661       0.53054441
C       -0.71002215      -0.68562581       0.19966578
C       -1.00698689       0.71514460      -0.16731402
O        0.98650538       1.20940321      -0.78228051
H        0.94489031      -1.73011007       0.69019155
H       -1.18089572      -1.47531429      -0.39243381
H       -1.75959880      -0.03453279       0.83855197
H       -0.78382368       1.51986757       0.52371609
H       -1.68434727       0.87308628      -1.00278347
11
Frame=13 idx=005442 GeodesicLength=0.9029244178882145 rxn_smarts="[O:1]=[C:2]1[N:3]([H:7])[C:4]([H:8])([H:9])[C:5]([H:10])([H:11])[O:6]1>>[N:3](=[C:4](/[C:5]([H:9])([H:10])[H:11])[H:8])\[H:7].[O:1]=[C:2]=[O:6]"
O        2.88688323       0.07961558      -0.18627155
C        1.73930431       0.34791000      -0.26535443
N        0.59168331      -0.80821608       0.52729136
C       -0.71661415      -0.69260144       0.21286421
C       -1.00305924       0.71397964      -0.16659341
O        0.98728572       1.21673905      -0.77439838
H        0.93742151      -1.74442590       0.68376208
H       -1.18753613      -1.47953470      -0.38384191
H       -1.77390300      -0.02135503       0.83948684
H       -0.79107774       1.52221859       0.52468269
H       -1.67038781       0.86567029      -1.01162749
11
Frame=14 idx=005442 GeodesicLength=0.9722614328828193 rxn_smarts="[O:1]=[C:2]1[N:3]([H:7])[C:4]([H:8])([H:9])[C:5]([H:10])([H:11])[O:6]1>>[N:3](=[C:4](/[C:5]([H:9])([H:10])[H:11])[H:8])\[H:7].[O:1]=[C:2]=[O:6]"
O        2.89949906       0.09311525      -0.19508961
C        1.75309245       0.35800619      -0.27045713
N        0.58917592      -0.82013659       0.52377560
C       -0.72324875      -0.69958337       0.22627688
C       -0.99901744       0.71271367      -0.16575481
O        0.98814766       1.22404734      -0.76637946
H        0.92960882      -1.75899511       0.67724045
H       -1.19442087      -1.48369024      -0.37495562
H       -1.78823336      -0.00806226       0.84007344
H       -0.79837842       1.52460822       0.52545557
H       -1.65622506       0.85797689      -1.02018531
11
Frame=15 idx=005442 GeodesicLength=1.0416016676907927 rxn_smarts="[O:1]=[C:2]1[N:3]([H:7])[C:4]([H:8])([H:9])[C:5]([H:10])([H:11])[O:6]1>>[N:3](=[C:4](/[C:5]([H:9])([H:10])[H:11])[H:8])\[H:7].[O:1]=[C:2]=[O:6]"
O        2.91236374       0.10716607      -0.20363555
C        1.76712550       0.36839854      -0.27583979
N        0.58650435      -0.83236734       0.51992281
C       -0.72992653      -0.70657056       0.23992216
C       -0.99485007       0.71134235      -0.16479818
O        0.98908794       1.23128269      -0.75829783
H        0.92143150      -1.77388190       0.67048460
H       -1.20165147      -1.48778342      -0.36567262
H       -1.80253962       0.00538217       0.84035610
H       -0.80567882       1.52704371       0.52600159
H       -1.64186651       0.84998770      -1.02844329
11
Frame=16 idx=005442 GeodesicLength=1.110930982249664 rxn_smarts="[O:1]=[C:2]1[N:3]([H:7])[C:4]([H:8])([H:9])[C:5]([H:10])([H:11])[O:6]1>>[N:3](=[C:4](/[C:5]([H:9])([H:10])[H:11])[H:8])\[H:7].[O:1]=[C:2]=[O:6]"
O        2.92548390       0.12183638      -0.21179181
C        1.78140461       0.37909449      -0.28154341
N        0.58365515      -0.84492744       0.51569860
C       -0.73663828      -0.71356529       0.25378238
C       -0.99055307       0.70986369      -0.16371567
O        0.99009873       1.23839093      -0.75023314
H        0.91286793      -1.78909893       0.66349363
H       -1.20925429      -1.49180392      -0.35599919
H       -1.81677753       0.01897192       0.84035391
H       -0.81293471       1.52952063       0.52631092
H       -1.62735244       0.84171755      -1.03635624
