18
Frame=0 idx=002703 GeodesicLength=0.0 rxn_smarts="[C:1]([C:2]([C:3]1([H:12])[C:4]([H:13])([H:14])[C:5]([H:15])([H:16])[C:6]1([H:17])[H:18])([H:10])[H:11])([H:7])([H:8])[H:9]>>[C:1]([C:2]([C:3]([C:4]([C:5]([C:6][H:18])([H:15])[H:16])([H:13])[H:14])([H:12])[H:17])([H:10])[H:11])([H:7])([H:8])[H:9]"
C       -2.51602377      -0.20786989      -0.16716699
C       -1.32460835       0.34725358       0.60083237
C       -0.00870791       0.20090486      -0.13590975
C        1.25848463       0.67370619       0.56414483
C        2.31051388      -0.10623035      -0.22119784
C        1.54338139      -1.40031907      -0.44180183
H       -2.63372220       0.29528800      -1.12973334
H       -2.39088558      -1.27534278      -0.36307342
H       -3.44363410      -0.07997015       0.39241849
H       -1.47213834       1.41478068       0.80380156
H       -1.24412941      -0.14126973       1.57632778
H       -0.07241996       0.58524568      -1.15624028
H        1.38528882       1.75793346       0.56755753
H        1.24102093       0.32559737       1.59973928
H        3.22337996      -0.29468061       0.34925079
H        2.58232014       0.43937628      -1.13271904
H        0.17135994      -0.96644188      -0.18434440
H        1.39051987      -1.56796167      -1.52188571
18
Frame=1 idx=002703 GeodesicLength=0.05679264793265342 rxn_smarts="[C:1]([C:2]([C:3]1([H:12])[C:4]([H:13])([H:14])[C:5]([H:15])([H:16])[C:6]1([H:17])[H:18])([H:10])[H:11])([H:7])([H:8])[H:9]>>[C:1]([C:2]([C:3]([C:4]([C:5]([C:6][H:18])([H:15])[H:16])([H:13])[H:14])([H:12])[H:17])([H:10])[H:11])([H:7])([H:8])[H:9]"
C       -2.51688519      -0.20557789      -0.16743672
C       -1.32388210       0.34941626       0.59842220
C       -0.00705012       0.18859889      -0.13500647
C        1.25731141       0.66907534       0.56678819
C        2.31467299      -0.10181676      -0.22342620
C        1.54572054      -1.39106541      -0.45177031
H       -2.63136368       0.29259030      -1.13302124
H       -2.39567372      -1.27451107      -0.35789108
H       -3.44468979      -0.07069529       0.39021767
H       -1.46821488       1.41871551       0.79384938
H       -1.24776929      -0.13238505       1.57770719
H       -0.07169178       0.57891386      -1.15352012
H        1.38003421       1.75367252       0.57101648
H        1.24343282       0.31872831       1.60164604
H        3.22738093      -0.28871602       0.34743809
H        2.58231985       0.44990693      -1.13230785
H        0.16651482      -0.99538481      -0.16200168
H        1.38983297      -1.55946562      -1.53070359
18
Frame=2 idx=002703 GeodesicLength=0.11355219825700077 rxn_smarts="[C:1]([C:2]([C:3]1([H:12])[C:4]([H:13])([H:14])[C:5]([H:15])([H:16])[C:6]1([H:17])[H:18])([H:10])[H:11])([H:7])([H:8])[H:9]>>[C:1]([C:2]([C:3]([C:4]([C:5]([C:6][H:18])([H:15])[H:16])([H:13])[H:14])([H:12])[H:17])([H:10])[H:11])([H:7])([H:8])[H:9]"
C       -2.51745626      -0.20356860      -0.16783238
C       -1.32302503       0.35139660       0.59604767
C       -0.00541276       0.17699424      -0.13424666
C        1.25625789       0.66489357       0.56920544
C        2.31858000      -0.09774686      -0.22552972
C        1.54689158      -1.38169172      -0.46125047
H       -2.62905058       0.29002696      -1.13614144
H       -2.39975295      -1.27378337      -0.35337948
H       -3.44542851      -0.06237583       0.38801861
H       -1.46446617       1.42226723       0.78448196
H       -1.25092960      -0.12413356       1.57880566
H       -0.07101766       0.57381407      -1.15071299
H        1.37523285       1.74980787       0.57388957
H        1.24582276       0.31268050       1.60343789
H        3.23093094      -0.28353360       0.34591637
H        2.58241961       0.45969178      -1.13185174
H        0.16209065      -1.02353218      -0.13983836
H        1.38831325      -1.55120710      -1.53901992
18
Frame=3 idx=002703 GeodesicLength=0.17029814650658254 rxn_smarts="[C:1]([C:2]([C:3]1([H:12])[C:4]([H:13])([H:14])[C:5]([H:15])([H:16])[C:6]1([H:17])[H:18])([H:10])[H:11])([H:7])([H:8])[H:9]>>[C:1]([C:2]([C:3]([C:4]([C:5]([C:6][H:18])([H:15])[H:16])([H:13])[H:14])([H:12])[H:17])([H:10])[H:11])([H:7])([H:8])[H:9]"
C       -2.51776201      -0.20181945      -0.16834578
C       -1.32205555       0.35321004       0.59371383
C       -0.00380038       0.16609069      -0.13363770
C        1.25531422       0.66113917       0.57141078
C        2.32224864      -0.09400887      -0.22752242
C        1.54698815      -1.37222774      -0.47024418
H       -2.62678893       0.28761142      -1.13910218
H       -2.40316442      -1.27315185      -0.34951066
H       -3.44588295      -0.05495781       0.38583025
H       -1.46090304       1.42546578       0.77569529
H       -1.25364401      -0.11649925       1.57964173
H       -0.07039365       0.56987916      -1.14784000
H        1.37086763       1.74632054       0.57622585
H        1.24817886       0.30739815       1.60511949
H        3.23406772      -0.27907327       0.34465145
H        2.58261271       0.46876293      -1.13136889
H        0.15807067      -1.05092985      -0.11787833
H        1.38604632      -1.54320981      -1.54683853
18
Frame=4 idx=002703 GeodesicLength=0.22704434699203954 rxn_smarts="[C:1]([C:2]([C:3]1([H:12])[C:4]([H:13])([H:14])[C:5]([H:15])([H:16])[C:6]1([H:17])[H:18])([H:10])[H:11])([H:7])([H:8])[H:9]>>[C:1]([C:2]([C:3]([C:4]([C:5]([C:6][H:18])([H:15])[H:16])([H:13])[H:14])([H:12])[H:17])([H:10])[H:11])([H:7])([H:8])[H:9]"
C       -2.51782496      -0.20031015      -0.16896910
C       -1.32098982       0.35487176       0.59142406
C       -0.00221654       0.15588537      -0.13318545
C        1.25447181       0.65779094       0.57341801
C        2.32569132      -0.09059084      -0.22941632
C        1.54609660      -1.36269804      -0.47875743
H       -2.62458402       0.28535262      -1.14191097
H       -2.40594641      -1.27260759      -0.34625543
H       -3.44608146      -0.04839126       0.38365892
H       -1.45753346       1.42834020       0.76748010
H       -1.25594356      -0.10946291       1.58023266
H       -0.06981594       0.56704311      -1.14492008
H        1.36692240       1.74319156       0.57807169
H        1.25049164       0.30282759       1.60669496
H        3.23682429      -0.27527944       0.34361333
H        2.58289194       0.47715182      -1.13087407
H        0.15443904      -1.07762559      -0.09613843
H        1.38310712      -1.53548914      -1.55416644
18
Frame=5 idx=002703 GeodesicLength=0.2837912381263916 rxn_smarts="[C:1]([C:2]([C:3]1([H:12])[C:4]([H:13])([H:14])[C:5]([H:15])([H:16])[C:6]1([H:17])[H:18])([H:10])[H:11])([H:7])([H:8])[H:9]>>[C:1]([C:2]([C:3]([C:4]([C:5]([C:6][H:18])([H:15])[H:16])([H:13])[H:14])([H:12])[H:17])([H:10])[H:11])([H:7])([H:8])[H:9]"
C       -2.51766502      -0.19902266      -0.16969553
C       -1.31984346       0.35639646       0.58918254
C       -0.00066424       0.14637601      -0.13289422
C        1.25372322       0.65482991       0.57524008
C        2.32891884      -0.08748296      -0.23122252
C        1.54429451      -1.35312380      -0.48679545
H       -2.62244060       0.28325998      -1.14457480
H       -2.40813084      -1.27214452      -0.34358965
H       -3.44604975      -0.04263304       0.38151100
H       -1.45436619       1.43091864       0.75982810
H       -1.25785677      -0.10300646       1.58059382
H       -0.06928172       0.56524569      -1.14197000
H        1.36338415       1.74040427       0.57946812
H        1.25275350       0.29892078       1.60816853
H        3.23922979      -0.27210186       0.34277529
H        2.58325081       0.48488482      -1.13038101
H        0.15118335      -1.10366289      -0.07463472
H        1.37956043      -1.52805838      -1.56100959
18
Frame=6 idx=002703 GeodesicLength=0.3405608204886898 rxn_smarts="[C:1]([C:2]([C:3]1([H:12])[C:4]([H:13])([H:14])[C:5]([H:15])([H:16])[C:6]1([H:17])[H:18])([H:10])[H:11])([H:7])([H:8])[H:9]>>[C:1]([C:2]([C:3]([C:4]([C:5]([C:6][H:18])([H:15])[H:16])([H:13])[H:14])([H:12])[H:17])([H:10])[H:11])([H:7])([H:8])[H:9]"
C       -2.51730246      -0.19793893      -0.17051723
C       -1.31863113       0.35780160       0.58699056
C        0.00085437       0.13755242      -0.13276897
C        1.25306136       0.65223491       0.57688963
C        2.33194637      -0.08467371      -0.23295082
C        1.54166268      -1.34352092      -0.49437806
H       -2.62036237       0.28133624      -1.14710278
H       -2.40975272      -1.27175829      -0.34148108
H       -3.44581389      -0.03763585       0.37939296
H       -1.45140656       1.43323275       0.75272208
H       -1.25941549      -0.09710286       1.58074584
H       -0.06878747       0.56441983      -1.13900692
H        1.36023412       1.73794170       0.58045534
H        1.25495532       0.29562670       1.60954551
H        3.24131384      -0.26949567       0.34211588
H        2.58369078       0.49199604      -1.12989967
H        0.14828709      -1.12909956      -0.05336586
H        1.37546615      -1.52091640      -1.56738641
18
Frame=7 idx=002703 GeodesicLength=0.3973457405140374 rxn_smarts="[C:1]([C:2]([C:3]1([H:12])[C:4]([H:13])([H:14])[C:5]([H:15])([H:16])[C:6]1([H:17])[H:18])([H:10])[H:11])([H:7])([H:8])[H:9]>>[C:1]([C:2]([C:3]([C:4]([C:5]([C:6][H:18])([H:15])[H:16])([H:13])[H:14])([H:12])[H:17])([H:10])[H:11])([H:7])([H:8])[H:9]"
C       -2.51675225      -0.19704384      -0.17142916
C       -1.31736490       0.35909974       0.58485070
C        0.00233639       0.12941421      -0.13281278
C        1.25248068       0.64999080       0.57837702
C        2.33478028      -0.08215513      -0.23460923
C        1.53826318      -1.33390493      -0.50150917
H       -2.61835491       0.27958794      -1.14949856
H       -2.41083565      -1.27143942      -0.33991136
H       -3.44539133      -0.03336749       0.37730792
H       -1.44866052       1.43530387       0.74615313
H       -1.26064005      -0.09173637       1.58069926
H       -0.06833181       0.56451594      -1.13604552
H        1.35746346       1.73578864       0.58106699
H        1.25709269       0.29290658       1.61082798
H        3.24309711      -0.26741835       0.34161404
H        2.58420348       0.49850608      -1.12943901
H        0.14574325      -1.15397666      -0.03234327
H        1.37087090      -1.51407161      -1.57329897
18
Frame=8 idx=002703 GeodesicLength=0.45416857649277553 rxn_smarts="[C:1]([C:2]([C:3]1([H:12])[C:4]([H:13])([H:14])[C:5]([H:15])([H:16])[C:6]1([H:17])[H:18])([H:10])[H:11])([H:7])([H:8])[H:9]>>[C:1]([C:2]([C:3]([C:4]([C:5]([C:6][H:18])([H:15])[H:16])([H:13])[H:14])([H:12])[H:17])([H:10])[H:11])([H:7])([H:8])[H:9]"
C       -2.51602994      -0.19632421      -0.17242524
C       -1.31605652       0.36030724       0.58276314
C        0.00378067       0.12194980      -0.13302758
C        1.25197553       0.64807923       0.57971420
C        2.33743401      -0.07991684      -0.23620591
C        1.53416365      -1.32428462      -0.50821324
H       -2.61641960       0.27801456      -1.15177111
H       -2.41140744      -1.27118569      -0.33885193
H       -3.44480295      -0.02978886       0.37526010
H       -1.44613068       1.43716113       0.74010072
H       -1.26155848      -0.08687708       1.58047134
H       -0.06791156       0.56547549      -1.13309878
H        1.35505552       1.73393097       0.58133652
H        1.25915923       0.29071607       1.61202206
H        3.24460334      -0.26583516       0.34125386
H        2.58479152       0.50444591      -1.12900640
H        0.14353758      -1.17835331      -0.01155316
H        1.36581611      -1.50751465      -1.57876860
18
Frame=9 idx=002703 GeodesicLength=0.5109699366229625 rxn_smarts="[C:1]([C:2]([C:3]1([H:12])[C:4]([H:13])([H:14])[C:5]([H:15])([H:16])[C:6]1([H:17])[H:18])([H:10])[H:11])([H:7])([H:8])[H:9]>>[C:1]([C:2]([C:3]([C:4]([C:5]([C:6][H:18])([H:15])[H:16])([H:13])[H:14])([H:12])[H:17])([H:10])[H:11])([H:7])([H:8])[H:9]"
C       -2.51514587      -0.19576698      -0.17350334
C       -1.31471449       0.36142991       0.58073154
C        0.00518475       0.11516155      -0.13341598
C        1.25154264       0.64649205       0.58090633
C        2.33990821      -0.07795533      -0.23774468
C        1.52940535      -1.31467313      -0.51447701
H       -2.61456226       0.27663185      -1.15392108
H       -2.41148154      -1.27098866      -0.33830178
H       -3.44406044      -0.02688238       0.37325454
H       -1.44382181       1.43881791       0.73456744
H       -1.26218221      -0.08252587       1.58006754
H       -0.06752798       0.56726801      -1.13017628
H        1.35300706       1.73235985       0.58128343
H        1.26115259       0.28903310       1.61312860
H        3.24584644      -0.26470916       0.34101813
H        2.58544028       0.50981873      -1.12861222
H        0.14167263      -1.20224919       0.00897734
H        1.36033666      -1.50126225      -1.58378252
18
Frame=10 idx=002703 GeodesicLength=0.5678072664493035 rxn_smarts="[C:1]([C:2]([C:3]1([H:12])[C:4]([H:13])([H:14])[C:5]([H:15])([H:16])[C:6]1([H:17])[H:18])([H:10])[H:11])([H:7])([H:8])[H:9]>>[C:1]([C:2]([C:3]([C:4]([C:5]([C:6][H:18])([H:15])[H:16])([H:13])[H:14])([H:12])[H:17])([H:10])[H:11])([H:7])([H:8])[H:9]"
C       -2.51411329      -0.19536096      -0.17465769
C       -1.31334849       0.36248681       0.57875257
C        0.00654857       0.10903443      -0.13397951
C        1.25117721       0.64521008       0.58196552
C        2.34221727      -0.07625841      -0.23923347
C        1.52405055      -1.30507288      -0.52033775
H       -2.61278422       0.27543100      -1.15595703
H       -2.41108329      -1.27084458      -0.33822766
H       -3.44318019      -0.02461149       0.37129154
H       -1.44173457       1.44030212       0.72952465
H       -1.26253800      -0.07864427       1.57950505
H       -0.06717676       0.56983651      -1.12729068
H        1.35130106       1.73105975       0.58093993
H        1.26306807       0.28781388       1.61415252
H        3.24684580      -0.26401276       0.34089674
H        2.58615759       0.51466113      -1.12825839
H        0.14013225      -1.22573836       0.02928455
H        1.35446044      -1.49529201      -1.58837090
18
Frame=11 idx=002703 GeodesicLength=0.6246871446196127 rxn_smarts="[C:1]([C:2]([C:3]1([H:12])[C:4]([H:13])([H:14])[C:5]([H:15])([H:16])[C:6]1([H:17])[H:18])([H:10])[H:11])([H:7])([H:8])[H:9]>>[C:1]([C:2]([C:3]([C:4]([C:5]([C:6][H:18])([H:15])[H:16])([H:13])[H:14])([H:12])[H:17])([H:10])[H:11])([H:7])([H:8])[H:9]"
C       -2.51294078      -0.19509611      -0.17588606
C       -1.31196677       0.36348974       0.57682673
C        0.00787117       0.10356557      -0.13472023
C        1.25087634       0.64422262       0.58289901
C        2.34436651      -0.07482014      -0.24067734
C        1.51814141      -1.29548909      -0.52580592
H       -2.61108921       0.27441728      -1.15788277
H       -2.41022475      -1.27074839      -0.33861933
H       -3.44217283      -0.02295813       0.36937399
H       -1.43987216       1.44163353       0.72496088
H       -1.26264166      -0.07521629       1.57879356
H       -0.06685673       0.57314598      -1.12445198
H        1.34993071       1.73002158       0.58032714
H        1.26490292       0.28703205       1.61509639
H        3.24761366      -0.26372041       0.34087838
H        2.58694093       0.51898890      -1.12795045
H        0.13891343      -1.24886830       0.04937766
H        1.34820783      -1.48960040      -1.59253965
18
Frame=12 idx=002703 GeodesicLength=0.6816071514253266 rxn_smarts="[C:1]([C:2]([C:3]1([H:12])[C:4]([H:13])([H:14])[C:5]([H:15])([H:16])[C:6]1([H:17])[H:18])([H:10])[H:11])([H:7])([H:8])[H:9]>>[C:1]([C:2]([C:3]([C:4]([C:5]([C:6][H:18])([H:15])[H:16])([H:13])[H:14])([H:12])[H:17])([H:10])[H:11])([H:7])([H:8])[H:9]"
C       -2.51163654      -0.19496382      -0.17718586
C       -1.31057643       0.36444926       0.57495399
C        0.00915270       0.09874751      -0.13563972
C        1.25063744       0.64352047       0.58371295
C        2.34636274      -0.07363525      -0.24208000
C        1.51171690      -1.28592383      -0.53089610
H       -2.60948020       0.27359480      -1.15970195
H       -2.40891807      -1.27069627      -0.33946622
H       -3.44104882      -0.02190430       0.36750501
H       -1.43823632       1.44282996       0.72086419
H       -1.26250951      -0.07222532       1.57794368
H       -0.06656675       0.57716418      -1.12166818
H        1.34888685       1.72923778       0.57946085
H        1.26665421       0.28666462       1.61596364
H        3.24816101      -0.26381148       0.34095686
H        2.58779133       0.52281674      -1.12769329
H        0.13801321      -1.27168449       0.06926890
H        1.34159625      -1.48418053      -1.59629874
18
Frame=13 idx=002703 GeodesicLength=0.7385584369870377 rxn_smarts="[C:1]([C:2]([C:3]1([H:12])[C:4]([H:13])([H:14])[C:5]([H:15])([H:16])[C:6]1([H:17])[H:18])([H:10])[H:11])([H:7])([H:8])[H:9]>>[C:1]([C:2]([C:3]([C:4]([C:5]([C:6][H:18])([H:15])[H:16])([H:13])[H:14])([H:12])[H:17])([H:10])[H:11])([H:7])([H:8])[H:9]"
C       -2.51020633      -0.19495638      -0.17855629
C       -1.30918273       0.36537396       0.57313382
C        0.01039177       0.09457959      -0.13673956
C        1.25045818       0.64309690       0.58441218
C        2.34820903      -0.07270011      -0.24344410
C        1.50480633      -1.27638014      -0.53561198
H       -2.60796172       0.27297119      -1.16141562
H       -2.40717027      -1.27068156      -0.34076542
H       -3.43981435      -0.02143992       0.36568676
H       -1.43682863       1.44390433       0.71722735
H       -1.26215123      -0.06966195       1.57696031
H       -0.06630648       0.58186784      -1.11894658
H        1.34816498       1.72870235       0.57835536
H        1.26831986       0.28669399       1.61675589
H        3.24849689      -0.26426516       0.34112392
H        2.58870392       0.52615189      -1.12749264
H        0.13743258      -1.29422625       0.08896467
H        1.33463819      -1.47903057      -1.59964808
18
Frame=14 idx=002703 GeodesicLength=0.7955413616908279 rxn_smarts="[C:1]([C:2]([C:3]1([H:12])[C:4]([H:13])([H:14])[C:5]([H:15])([H:16])[C:6]1([H:17])[H:18])([H:10])[H:11])([H:7])([H:8])[H:9]>>[C:1]([C:2]([C:3]([C:4]([C:5]([C:6][H:18])([H:15])[H:16])([H:13])[H:14])([H:12])[H:17])([H:10])[H:11])([H:7])([H:8])[H:9]"
C       -2.50865472      -0.19506760      -0.17999661
C       -1.30779071       0.36627359       0.57136545
C        0.01158838       0.09105760      -0.13802022
C        1.25033664       0.64294428       0.58500239
C        2.34990841      -0.07201091      -0.24477267
C        1.49743777      -1.26685753      -0.53996676
H       -2.60653607       0.27254803      -1.16302626
H       -2.40498722      -1.27069988      -0.34251078
H       -3.43847458      -0.02155525       0.36391931
H       -1.43564972       1.44487059       0.71403835
H       -1.26157812      -0.06750942       1.57584868
H       -0.06607520       0.58723610      -1.11629212
H        1.34776004       1.72840882       0.57702367
H        1.26989832       0.28710178       1.61747615
H        3.24862758      -0.26506680       0.34137428
H        2.58967697       0.52900507      -1.12735194
H        0.13717304      -1.31653670       0.10848456
H        1.32733921      -1.47414178      -1.60259546
18
Frame=15 idx=002703 GeodesicLength=0.8525520995162661 rxn_smarts="[C:1]([C:2]([C:3]1([H:12])[C:4]([H:13])([H:14])[C:5]([H:15])([H:16])[C:6]1([H:17])[H:18])([H:10])[H:11])([H:7])([H:8])[H:9]>>[C:1]([C:2]([C:3]([C:4]([C:5]([C:6][H:18])([H:15])[H:16])([H:13])[H:14])([H:12])[H:17])([H:10])[H:11])([H:7])([H:8])[H:9]"
C       -2.50698544      -0.19529183      -0.18150663
C       -1.30640485       0.36715649       0.56964822
C        0.01274188       0.08818043      -0.13948287
C        1.25027117       0.64305786       0.58548741
C        2.35146306      -0.07156564      -0.24606743
C        1.48963421      -1.25735573      -0.54396835
H       -2.60520716       0.27233102      -1.16453473
H       -2.40237181      -1.27074565      -0.34470143
H       -3.43703350      -0.02224500       0.36220409
H       -1.43470104       1.44574075       0.71128924
H       -1.26079891      -0.06575705       1.57461352
H       -0.06587259       0.59325237      -1.11371013
H        1.34766820       1.72835314       0.57547543
H        1.27138755       0.28787482       1.61812663
H        3.24855822      -0.26620326       0.34170397
H        2.59070876       0.53138184      -1.12727562
H        0.13723851      -1.33865586       0.12784276
H        1.31970374      -1.46950870      -1.60514408
18
Frame=16 idx=002703 GeodesicLength=0.9095858470818172 rxn_smarts="[C:1]([C:2]([C:3]1([H:12])[C:4]([H:13])([H:14])[C:5]([H:15])([H:16])[C:6]1([H:17])[H:18])([H:10])[H:11])([H:7])([H:8])[H:9]>>[C:1]([C:2]([C:3]([C:4]([C:5]([C:6][H:18])([H:15])[H:16])([H:13])[H:14])([H:12])[H:17])([H:10])[H:11])([H:7])([H:8])[H:9]"
C       -2.50520080      -0.19562390      -0.18308713
C       -1.30502893       0.36803056       0.56798142
C        0.01385178       0.08594810      -0.14112829
C        1.25026045       0.64343371       0.58587068
C        2.35287377      -0.07136300      -0.24732980
C        1.48141401      -1.24787371      -0.54762317
H       -2.60397868       0.27232638      -1.16594145
H       -2.39932418      -1.27081381      -0.34733962
H       -3.43549335      -0.02350745       0.36054202
H       -1.43398381       1.44652534       0.70897326
H       -1.25982069      -0.06439527       1.57325785
H       -0.06569854       0.59990465      -1.11120434
H        1.34788713       1.72853212       0.57371812
H        1.27278599       0.28900266       1.61870952
H        3.24829225      -0.26766372       0.34210944
H        2.59179632       0.53328527      -1.12726804
H        0.13763490      -1.36062202       0.14705522
H        1.31173238      -1.46512588      -1.60729567
