15
Frame=0 idx=009924 GeodesicLength=0.0 rxn_smarts="[N:1]([C@@:2]([C:3]([C:4]([O:5][H:15])([H:13])[H:14])([H:11])[H:12])([C:6]#[N:7])[H:10])([H:8])[H:9]>>[C:4]([O:5][H:15])[H:13].[N:1]([C@@:2]([C:3]([H:11])([H:12])[H:14])([C:6]#[N:7])[H:10])([H:8])[H:9]"
N       -2.02310350      -0.84318277       0.11393312
C       -0.77580003      -0.08167029       0.20152143
C        0.21296505      -0.56916094      -0.83675026
C        2.02426951       0.53383074      -0.21368547
O        1.93948422       0.61871993       1.12595092
C       -1.08615397       1.34324123      -0.00222745
N       -1.32829655       2.45479913      -0.14491368
H       -1.83982928      -1.81959068       0.30478195
H       -2.69384921      -0.51541329       0.79727127
H       -0.30080862      -0.13955446       1.19136106
H       -0.00743408      -0.21659952      -1.84133317
H        0.25491005      -1.66207552      -0.82295975
H        1.55322119       1.41760701      -0.65135614
H        1.55544150      -0.47401408      -0.73277990
H        2.51498374      -0.04693654       1.51118607
15
Frame=1 idx=009924 GeodesicLength=0.06447221309211595 rxn_smarts="[N:1]([C@@:2]([C:3]([C:4]([O:5][H:15])([H:13])[H:14])([H:11])[H:12])([C:6]#[N:7])[H:10])([H:8])[H:9]>>[C:4]([O:5][H:15])[H:13].[N:1]([C@@:2]([C:3]([H:11])([H:12])[H:14])([C:6]#[N:7])[H:10])([H:8])[H:9]"
N       -2.03250740      -0.84067151       0.10480675
C       -0.78138098      -0.08744525       0.20265954
C        0.21199834      -0.57511638      -0.83238795
C        2.01478524       0.53708601      -0.20985261
O        1.95176112       0.63164148       1.13036951
C       -1.08199409       1.34026669       0.00406879
N       -1.31194768       2.45522017      -0.13256275
H       -1.85572908      -1.81953825       0.28902330
H       -2.70384899      -0.51440799       0.78822302
H       -0.31137337      -0.15303869       1.19433153
H       -0.01913878      -0.23229664      -1.83829470
H        0.25269828      -1.66815133      -0.81225188
H        1.56040641       1.42950533      -0.64840576
H        1.56162213      -0.48345532      -0.75353823
H        2.54464886      -0.01959832       1.51381144
15
Frame=2 idx=009924 GeodesicLength=0.12889678044523217 rxn_smarts="[N:1]([C@@:2]([C:3]([C:4]([O:5][H:15])([H:13])[H:14])([H:11])[H:12])([C:6]#[N:7])[H:10])([H:8])[H:9]>>[C:4]([O:5][H:15])[H:13].[N:1]([C@@:2]([C:3]([H:11])([H:12])[H:14])([C:6]#[N:7])[H:10])([H:8])[H:9]"
N       -2.04189810      -0.83814291       0.09560808
C       -0.78714434      -0.09313513       0.20377337
C        0.21098215      -0.58104766      -0.82788356
C        2.00498650       0.54006379      -0.20542610
O        1.96462329       0.64426574       1.13502553
C       -1.07803929       1.33725236       0.01013611
N       -1.29606346       2.45536954      -0.12046379
H       -1.87149577      -1.81933044       0.27330579
H       -2.71398525      -0.51334952       0.77892432
H       -0.32238072      -0.16627602       1.19731315
H       -0.03085755      -0.24830760      -1.83502973
H        0.25073861      -1.67413879      -0.80104855
H        1.56824206       1.44128433      -0.64477407
H        1.56734362      -0.49217236      -0.77506966
H        2.57494825       0.00766467       1.51560911
15
Frame=3 idx=009924 GeodesicLength=0.1933026722702835 rxn_smarts="[N:1]([C@@:2]([C:3]([C:4]([O:5][H:15])([H:13])[H:14])([H:11])[H:12])([C:6]#[N:7])[H:10])([H:8])[H:9]>>[C:4]([O:5][H:15])[H:13].[N:1]([C@@:2]([C:3]([H:11])([H:12])[H:14])([C:6]#[N:7])[H:10])([H:8])[H:9]"
N       -2.05130132      -0.83559815       0.08631013
C       -0.79310778      -0.09875247       0.20486633
C        0.20991379      -0.58696329      -0.82323775
C        1.99488597       0.54276219      -0.20037787
O        1.97809089       0.65662981       1.13991112
C       -1.07430106       1.33419999       0.01599881
N       -1.28062560       2.45527456      -0.10855359
H       -1.88715535      -1.81898248       0.25758066
H       -2.72428807      -0.51224328       0.76935968
H       -0.33385672      -0.17930103       1.20032227
H       -0.04257733      -0.26464005      -1.83154462
H        0.24904285      -1.68004338      -0.78935662
H        1.57676537       1.45286010      -0.64052796
H        1.57256910      -0.50015738      -0.79731412
H        2.60594525       0.03495486       1.51656353
15
Frame=4 idx=009924 GeodesicLength=0.25768965463908133 rxn_smarts="[N:1]([C@@:2]([C:3]([C:4]([O:5][H:15])([H:13])[H:14])([H:11])[H:12])([C:6]#[N:7])[H:10])([H:8])[H:9]>>[C:4]([O:5][H:15])[H:13].[N:1]([C@@:2]([C:3]([H:11])([H:12])[H:14])([C:6]#[N:7])[H:10])([H:8])[H:9]"
N       -2.06072434      -0.83304552       0.07689302
C       -0.79928369      -0.10430020       0.20593652
C        0.20878871      -0.59285836      -0.81843823
C        1.98448357       0.54520008      -0.19466916
O        1.99219727       0.66873247       1.14501643
C       -1.07078555       1.33110891       0.02165996
N       -1.26564077       2.45494232      -0.09681982
H       -1.90271345      -1.81850605       0.24182745
H       -2.73476905      -0.51109910       0.75950048
H       -0.34582766      -0.19211964       1.20335781
H       -0.05427984      -0.28129418      -1.82782217
H        0.24761085      -1.68585210      -0.77716500
H        1.58600048       1.46416978      -0.63568446
H        1.57725070      -0.50738569      -0.82019661
H        2.63769277       0.06230728       1.51660378
15
Frame=5 idx=009924 GeodesicLength=0.3220621381583695 rxn_smarts="[N:1]([C@@:2]([C:3]([C:4]([O:5][H:15])([H:13])[H:14])([H:11])[H:12])([C:6]#[N:7])[H:10])([H:8])[H:9]>>[C:4]([O:5][H:15])[H:13].[N:1]([C@@:2]([C:3]([H:11])([H:12])[H:14])([C:6]#[N:7])[H:10])([H:8])[H:9]"
N       -2.07017458      -0.83049264       0.06733815
C       -0.80568440      -0.10978042       0.20698370
C        0.20760602      -0.59872681      -0.81347352
C        1.97378294       0.54740110      -0.18826208
O        2.00697896       0.68057519       1.15033009
C       -1.06750511       1.32798037       0.02712614
N       -1.25111911       2.45438302      -0.08524995
H       -1.91817250      -1.81791325       0.22602484
H       -2.74544081      -0.50992755       0.74932349
H       -0.35831848      -0.20473755       1.20642262
H       -0.06594133      -0.29826450      -1.82384907
H        0.24644290      -1.69155192      -0.76447096
H        1.59596781       1.47514906      -0.63027089
H        1.58135023      -0.51384291      -0.84362833
H        2.67022745       0.08974880       1.51565576
15
Frame=6 idx=009924 GeodesicLength=0.3864281190983445 rxn_smarts="[N:1]([C@@:2]([C:3]([C:4]([O:5][H:15])([H:13])[H:14])([H:11])[H:12])([C:6]#[N:7])[H:10])([H:8])[H:9]>>[C:4]([O:5][H:15])[H:13].[N:1]([C@@:2]([C:3]([H:11])([H:12])[H:14])([C:6]#[N:7])[H:10])([H:8])[H:9]"
N       -2.07965824      -0.82794704       0.05762606
C       -0.81232127      -0.11519539       0.20800823
C        0.20636700      -0.60456149      -0.80832988
C        1.96278780       0.54939684      -0.18111929
O        2.02247374       0.69216311       1.15583602
C       -1.06447246       1.32481522       0.03240628
N       -1.23706722       2.45360705      -0.07382526
H       -1.93353414      -1.81721638       0.21014915
H       -2.75631494      -0.50874074       0.73880475
H       -0.37135326      -0.21716111       1.20951977
H       -0.07753279      -0.31554172      -1.81961059
H        0.24553513      -1.69712888      -0.75127410
H        1.60668298       1.48573471      -0.62432250
H        1.58483717      -0.51952634      -0.86750544
H        2.70357052       0.11730216       1.51363680
15
Frame=7 idx=009924 GeodesicLength=0.4508097534073584 rxn_smarts="[N:1]([C@@:2]([C:3]([C:4]([O:5][H:15])([H:13])[H:14])([H:11])[H:12])([C:6]#[N:7])[H:10])([H:8])[H:9]>>[C:4]([O:5][H:15])[H:13].[N:1]([C@@:2]([C:3]([H:11])([H:12])[H:14])([C:6]#[N:7])[H:10])([H:8])[H:9]"
N       -2.08919242      -0.82541488       0.04774118
C       -0.81921263      -0.12054082       0.20901338
C        0.20508457      -0.61035052      -0.80299670
C        1.95151662       0.55123177      -0.17320505
O        2.03875105       0.70348315       1.16152944
C       -1.06172637       1.32162114       0.03750255
N       -1.22354735       2.45262694      -0.06255444
H       -1.94879953      -1.81642552       0.19419270
H       -2.76742841      -0.50754652       0.72792491
H       -0.38496018      -0.22938527       1.21266641
H       -0.08901680      -0.33311423      -1.81510749
H        0.24490268      -1.70256626      -0.73757129
H        1.61815978       1.49587557      -0.61786867
H        1.58770508      -0.52443014      -0.89172234
H        2.73776392       0.14493560       1.51045542
15
Frame=8 idx=009924 GeodesicLength=0.5151791045430856 rxn_smarts="[N:1]([C@@:2]([C:3]([C:4]([O:5][H:15])([H:13])[H:14])([H:11])[H:12])([C:6]#[N:7])[H:10])([H:8])[H:9]>>[C:4]([O:5][H:15])[H:13].[N:1]([C@@:2]([C:3]([H:11])([H:12])[H:14])([C:6]#[N:7])[H:10])([H:8])[H:9]"
N       -2.09877235      -0.82288686       0.03762803
C       -0.82635596      -0.12585049       0.20999838
C        0.20373804      -0.61611119      -0.79744389
C        1.93993017       0.55291458      -0.16448779
O        2.05573214       0.71461913       1.16733612
C       -1.05920167       1.31837434       0.04248499
N       -1.21036960       2.45144860      -0.05123846
H       -1.96400858      -1.81554641       0.17802522
H       -2.77874418      -0.50636350       0.71663665
H       -0.39916289      -0.24149611       1.21583392
H       -0.10035846      -0.35096585      -1.81028711
H        0.24446101      -1.70787368      -0.72338182
H        1.63040121       1.50544464      -0.61103236
H        1.58992388      -0.52864879      -0.91610412
H        2.77278724       0.17294158       1.50603223
15
Frame=9 idx=009924 GeodesicLength=0.5795358314961038 rxn_smarts="[N:1]([C@@:2]([C:3]([C:4]([O:5][H:15])([H:13])[H:14])([H:11])[H:12])([C:6]#[N:7])[H:10])([H:8])[H:9]>>[C:4]([O:5][H:15])[H:13].[N:1]([C@@:2]([C:3]([H:11])([H:12])[H:14])([C:6]#[N:7])[H:10])([H:8])[H:9]"
N       -2.10838638      -0.82038713       0.02727100
C       -0.83377274      -0.13109503       0.21096405
C        0.20235066      -0.62181552      -0.79162728
C        1.92802823       0.55454435      -0.15489575
O        2.07357933       0.72545116       1.17327135
C       -1.05697792       1.31509436       0.04730082
N       -1.19768570       2.45007865      -0.03999458
H       -1.97911686      -1.81459406       0.16169567
H       -2.79030684      -0.50518794       0.70485725
H       -0.41400207      -0.25340905       1.21903787
H       -0.11151380      -0.36911712      -1.80511567
H        0.24426398      -1.71301594      -0.70863436
H        1.64337092       1.51447114      -0.60371191
H        1.59145200      -0.53211882      -0.94054021
H        2.80871719       0.20110093       1.50012175
15
Frame=10 idx=009924 GeodesicLength=0.6439630350282339 rxn_smarts="[N:1]([C@@:2]([C:3]([C:4]([O:5][H:15])([H:13])[H:14])([H:11])[H:12])([C:6]#[N:7])[H:10])([H:8])[H:9]>>[C:4]([O:5][H:15])[H:13].[N:1]([C@@:2]([C:3]([H:11])([H:12])[H:14])([C:6]#[N:7])[H:10])([H:8])[H:9]"
N       -2.11808752      -0.81790129       0.01662643
C       -0.84149120      -0.13629922       0.21191995
C        0.20093213      -0.62747229      -0.78553954
C        1.91583386       0.55614051      -0.14440673
O        2.09229026       0.73603395       1.17930734
C       -1.05507162       1.31177037       0.05200738
N       -1.18543297       2.44853392      -0.02865335
H       -1.99418846      -1.81357007       0.14510998
H       -2.80217973      -0.50403060       0.69256963
H       -0.42952072      -0.26520079       1.22230206
H       -0.12242758      -0.38753312      -1.79960889
H        0.24427376      -1.71799883      -0.69336053
H        1.65709629       1.52283537      -0.59605567
H        1.59235908      -0.53495138      -0.96489942
H        2.84561441       0.22964348       1.49268137
15
Frame=11 idx=009924 GeodesicLength=0.708425254835167 rxn_smarts="[N:1]([C@@:2]([C:3]([C:4]([O:5][H:15])([H:13])[H:14])([H:11])[H:12])([C:6]#[N:7])[H:10])([H:8])[H:9]>>[C:4]([O:5][H:15])[H:13].[N:1]([C@@:2]([C:3]([H:11])([H:12])[H:14])([C:6]#[N:7])[H:10])([H:8])[H:9]"
N       -2.12783806      -0.81544522       0.00568333
C       -0.84950619      -0.14144391       0.21286842
C        0.19949946      -0.63305203      -0.77913720
C        1.90332984       0.55779704      -0.13297019
O        2.11193858       0.74634273       1.18539707
C       -1.05350236       1.30841642       0.05659780
N       -1.17367429       2.44681965      -0.01724784
H       -2.00916729      -1.81248690       0.12827853
H       -2.81433520      -0.50290782       0.67973391
H       -0.44573409      -0.27682800       1.22562212
H       -0.13304701      -0.40619497      -1.79372234
H        0.24448835      -1.72278827      -0.67752725
H        1.67154893       1.53052269      -0.58806593
H        1.59264548      -0.53714961      -0.98905192
H        2.88335386       0.25839819       1.48354150
15
Frame=12 idx=009924 GeodesicLength=0.7729238880793079 rxn_smarts="[N:1]([C@@:2]([C:3]([C:4]([O:5][H:15])([H:13])[H:14])([H:11])[H:12])([C:6]#[N:7])[H:10])([H:8])[H:9]>>[C:4]([O:5][H:15])[H:13].[N:1]([C@@:2]([C:3]([H:11])([H:12])[H:14])([C:6]#[N:7])[H:10])([H:8])[H:9]"
N       -2.13761772      -0.81303112      -0.00557168
C       -0.85782094      -0.14651317       0.21381515
C        0.19807605      -0.63852614      -0.77238037
C        1.89050793       0.55960919      -0.12053802
O        2.13260013       0.75636253       1.19149352
C       -1.05230579       1.30504519       0.06107166
N       -1.16247305       2.44494663      -0.00578993
H       -2.02401198      -1.81135599       0.11120191
H       -2.82676991      -0.50183706       0.66631705
H       -0.46266363      -0.28825834       1.22900458
H       -0.14331222      -0.42507762      -1.78742440
H        0.24491202      -1.72735011      -0.66110579
H        1.68670189       1.53750949      -0.57977169
H        1.59234223      -0.53873562      -1.01287954
H        2.92183497       0.28721213       1.47255754
15
Frame=13 idx=009924 GeodesicLength=0.8374630650353571 rxn_smarts="[N:1]([C@@:2]([C:3]([C:4]([O:5][H:15])([H:13])[H:14])([H:11])[H:12])([C:6]#[N:7])[H:10])([H:8])[H:9]>>[C:4]([O:5][H:15])[H:13].[N:1]([C@@:2]([C:3]([H:11])([H:12])[H:14])([C:6]#[N:7])[H:10])([H:8])[H:9]"
N       -2.14740632      -0.81067186      -0.01715614
C       -0.86644026      -0.15149060       0.21476591
C        0.19668658      -0.64386409      -0.76522440
C        1.87735506       0.56167810      -0.10705639
O        2.15435200       0.76607177       1.19754232
C       -1.05152006       1.30167048       0.06542776
N       -1.15189403       2.44292844       0.00571674
H       -2.03868170      -1.81019022       0.09387655
H       -2.83948260      -0.50083762       0.65227911
H       -0.48033463      -0.29945944       1.23245619
H       -0.15315977      -0.44415546      -1.78068040
H        0.24554864      -1.73164824      -0.64405971
H        1.70252390       1.54377226      -0.57120293
H        1.59148707      -0.53973570      -1.03626594
H        2.96096613       0.31593215       1.45958133
15
Frame=14 idx=009924 GeodesicLength=0.9020466878137579 rxn_smarts="[N:1]([C@@:2]([C:3]([C:4]([O:5][H:15])([H:13])[H:14])([H:11])[H:12])([C:6]#[N:7])[H:10])([H:8])[H:9]>>[C:4]([O:5][H:15])[H:13].[N:1]([C@@:2]([C:3]([H:11])([H:12])[H:14])([C:6]#[N:7])[H:10])([H:8])[H:9]"
N       -2.15717040      -0.80838924      -0.02907656
C       -0.87536445      -0.15634795       0.21572802
C        0.19536400      -0.64902115      -0.75761894
C        1.86385343       0.56413496      -0.09246951
O        2.17729525       0.77544524       1.20347396
C       -1.05119806       1.29831605       0.06965073
N       -1.14204920       2.44078552       0.01721725
H       -2.05310797      -1.80900966       0.07632455
H       -2.85246149      -0.49993712       0.63758737
H       -0.49876486      -0.31037043       1.23598677
H       -0.16252413      -0.46340348      -1.77345214
H        0.24642276      -1.73563183      -0.62633487
H        1.71897017       1.54931634      -0.56237784
H        1.59012717      -0.54015038      -1.05911024
H        3.00060777       0.34426314       1.44447146
15
Frame=15 idx=009924 GeodesicLength=0.9666827470813363 rxn_smarts="[N:1]([C@@:2]([C:3]([C:4]([O:5][H:15])([H:13])[H:14])([H:11])[H:12])([C:6]#[N:7])[H:10])([H:8])[H:9]>>[C:4]([O:5][H:15])[H:13].[N:1]([C@@:2]([C:3]([H:11])([H:12])[H:14])([C:6]#[N:7])[H:10])([H:8])[H:9]"
N       -2.16688182      -0.80620301      -0.04135090
C       -0.88459881      -0.16106147       0.21670862
C        0.19413922      -0.65395344      -0.74950709
C        1.84997735       0.56710786      -0.07670813
O        2.20151971       0.78444938       1.20921007
C       -1.05139092       1.29500209       0.07373120
N       -1.13303142       2.43853883       0.02868766
H       -2.06723395      -1.80783376       0.05854737
H       -2.86570120      -0.49916558       0.62219553
H       -0.51798272      -0.32094289       1.23960442
H       -0.17133436      -0.48279365      -1.76569412
H        0.24755083      -1.73924933      -0.60787224
H        1.73599610       1.55412893      -0.55332195
H        1.58831206      -0.53999233      -1.08130628
H        3.04065995       0.37196836       1.42707585
15
Frame=16 idx=009924 GeodesicLength=1.0313829558282703 rxn_smarts="[N:1]([C@@:2]([C:3]([C:4]([O:5][H:15])([H:13])[H:14])([H:11])[H:12])([C:6]#[N:7])[H:10])([H:8])[H:9]>>[C:4]([O:5][H:15])[H:13].[N:1]([C@@:2]([C:3]([H:11])([H:12])[H:14])([C:6]#[N:7])[H:10])([H:8])[H:9]"
N       -2.17650054      -0.80414310      -0.05398995
C       -0.89414641      -0.16559620       0.21771643
C        0.19305137      -0.65860217      -0.74082363
C        1.83569263       0.57075757      -0.05969462
O        2.22713906       0.79304364       1.21465250
C       -1.05216710       1.29175889       0.07764456
N       -1.12497968       2.43621861       0.04005918
H       -2.08097657      -1.80669112       0.04056701
H       -2.87918889      -0.49856368       0.60605892
H       -0.53801312      -0.33110112       1.24332119
H       -0.17951465      -0.50229955      -1.75735476
H        0.24897140      -1.74243287      -0.58859142
H        1.75354298       1.55822324      -0.54404966
H        1.58609845      -0.53924611      -1.10275740
H        3.08099107       0.39867399       1.40724164
