14
Frame=0 idx=011205 GeodesicLength=0.0 rxn_smarts="[N:1]#[C:2][C:3]1([H:8])[C:4]([H:9])([H:10])[C:5]([H:11])=[C:6]([H:12])[C:7]1([H:13])[H:14]>>[N:1]#[C:2][C:3]([C:4]([C:5](=[C:6]=[C:7]([H:13])[H:14])[H:11])([H:9])[H:10])([H:8])[H:12]"
N       -0.86524732       2.87796702      -0.65930999
C       -0.48781710       1.95430870      -0.08574649
C       -0.05219924       0.77478750       0.59299989
C        1.22169220       0.12351260       0.11443405
C        0.90117782      -1.31141757      -0.44469070
C       -0.36303239      -1.73892477      -0.48941624
C       -1.35258591      -0.64511255      -0.13120759
H       -0.16658680       0.86209737       1.67049730
H        1.66585205       0.69326108      -0.70353821
H        1.96236747       0.04560812       0.91057158
H        1.74371111      -1.87492342      -0.82831684
H       -0.42354644      -0.86774256       0.54198018
H       -1.58188141      -0.04479838      -1.00094683
H       -2.20190402      -0.84862318       0.51268994
14
Frame=1 idx=011205 GeodesicLength=0.1333947594435937 rxn_smarts="[N:1]#[C:2][C:3]1([H:8])[C:4]([H:9])([H:10])[C:5]([H:11])=[C:6]([H:12])[C:7]1([H:13])[H:14]>>[N:1]#[C:2][C:3]([C:4]([C:5](=[C:6]=[C:7]([H:13])[H:14])[H:11])([H:9])[H:10])([H:8])[H:12]"
N       -0.85423769       2.88308918      -0.65060256
C       -0.48836773       1.95288325      -0.08044384
C       -0.05178587       0.76963069       0.59546100
C        1.22598935       0.12677096       0.10908767
C        0.90333492      -1.30377480      -0.44750591
C       -0.36079485      -1.72876927      -0.47964420
C       -1.36109599      -0.64927169      -0.14287158
H       -0.14679372       0.87047422       1.67387353
H        1.66738280       0.69891410      -0.70881854
H        1.97046089       0.05188471       0.90213072
H        1.74200884      -1.87725657      -0.82453373
H       -0.42839523      -0.87815796       0.58431258
H       -1.59810034      -0.05896368      -1.01814632
H       -2.21960538      -0.85745314       0.48770117
14
Frame=2 idx=011205 GeodesicLength=0.2659535538764237 rxn_smarts="[N:1]#[C:2][C:3]1([H:8])[C:4]([H:9])([H:10])[C:5]([H:11])=[C:6]([H:12])[C:7]1([H:13])[H:14]>>[N:1]#[C:2][C:3]([C:4]([C:5](=[C:6]=[C:7]([H:13])[H:14])[H:11])([H:9])[H:10])([H:8])[H:12]"
N       -0.84346080       2.88804294      -0.64127508
C       -0.48893828       1.95141779      -0.07471958
C       -0.05134241       0.76433953       0.59825355
C        1.23023583       0.13009821       0.10367729
C        0.90530669      -1.29610180      -0.45033382
C       -0.35871876      -1.71860412      -0.46864183
C       -1.36973970      -0.65317004      -0.15526486
H       -0.12656434       0.87878167       1.67711137
H        1.66865210       0.70462795      -0.71428254
H        1.97861428       0.05815927       0.89348971
H        1.73992144      -1.87963021      -0.82069537
H       -0.43344072      -0.88804490       0.62670735
H       -1.61384104      -0.07378094      -1.03671818
H       -2.23668428      -0.86613534       0.46269198
14
Frame=3 idx=011205 GeodesicLength=0.39797237456777534 rxn_smarts="[N:1]#[C:2][C:3]1([H:8])[C:4]([H:9])([H:10])[C:5]([H:11])=[C:6]([H:12])[C:7]1([H:13])[H:14]>>[N:1]#[C:2][C:3]([C:4]([C:5](=[C:6]=[C:7]([H:13])[H:14])[H:11])([H:9])[H:10])([H:8])[H:12]"
N       -0.83307107       2.89268651      -0.63140639
C       -0.48951010       1.94991331      -0.06850227
C       -0.05085175       0.75889960       0.60141775
C        1.23443240       0.13348668       0.09819390
C        0.90704720      -1.28839989      -0.45319889
C       -0.35684192      -1.70830825      -0.45643111
C       -1.37850445      -0.65676654      -0.16850065
H       -0.10590589       0.88696685       1.68023107
H        1.66964390       0.71040233      -0.71993828
H        1.98684652       0.06440733       0.88461834
H        1.73738934      -1.88206054      -0.81680800
H       -0.43855511      -0.89745550       0.66943379
H       -1.62902319      -0.08922574      -1.05672402
H       -2.25309587      -0.87454616       0.43761475
14
Frame=4 idx=011205 GeodesicLength=0.5296614178208028 rxn_smarts="[N:1]#[C:2][C:3]1([H:8])[C:4]([H:9])([H:10])[C:5]([H:11])=[C:6]([H:12])[C:7]1([H:13])[H:14]>>[N:1]#[C:2][C:3]([C:4]([C:5](=[C:6]=[C:7]([H:13])[H:14])[H:11])([H:9])[H:10])([H:8])[H:12]"
N       -0.82318800       2.89691522      -0.62105173
C       -0.49007082       1.94837086      -0.06172421
C       -0.05029541       0.75330008       0.60499356
C        1.23857775       0.13693025       0.09262495
C        0.90851038      -1.28067214      -0.45612214
C       -0.35518408      -1.69777028      -0.44301753
C       -1.38738075      -0.66003348      -0.18267277
H       -0.08481633       0.89498663       1.68325557
H        1.67033498       0.71623678      -0.72580045
H        1.99517877       0.07061411       0.87547635
H        1.73435499      -1.88456619      -0.81287378
H       -0.44360383      -0.90642479       0.71274465
H       -1.64357799      -0.10530189      -1.07823635
H       -2.26883965      -0.88258516       0.41240388
14
Frame=5 idx=011205 GeodesicLength=0.6614945119809995 rxn_smarts="[N:1]#[C:2][C:3]1([H:8])[C:4]([H:9])([H:10])[C:5]([H:11])=[C:6]([H:12])[C:7]1([H:13])[H:14]>>[N:1]#[C:2][C:3]([C:4]([C:5](=[C:6]=[C:7]([H:13])[H:14])[H:11])([H:9])[H:10])([H:8])[H:12]"
N       -0.81400238       2.90058158      -0.61026160
C       -0.49060937       1.94678625      -0.05428787
C       -0.04965664       0.74751807       0.60903592
C        1.24266463       0.14042109       0.08695424
C        0.90963311      -1.27293221      -0.45911259
C       -0.35379349      -1.68685044      -0.42832699
C       -1.39634719      -0.66292182      -0.19793586
H       -0.06328538       0.90278602       1.68622565
H        1.67067161       0.72212439      -0.73189599
H        2.00363974       0.07676971       0.86600151
H        1.73072255      -1.88717253      -0.80891279
H       -0.44833577      -0.91502749       0.75697308
H       -1.65738647      -0.12202449      -1.10136307
H       -2.28391495      -0.89005812       0.38690637
14
Frame=6 idx=011205 GeodesicLength=0.7935292575299548 rxn_smarts="[N:1]#[C:2][C:3]1([H:8])[C:4]([H:9])([H:10])[C:5]([H:11])=[C:6]([H:12])[C:7]1([H:13])[H:14]>>[N:1]#[C:2][C:3]([C:4]([C:5](=[C:6]=[C:7]([H:13])[H:14])[H:11])([H:9])[H:10])([H:8])[H:12]"
N       -0.80558113       2.90364558      -0.59903960
C       -0.49114045       1.94514773      -0.04613252
C       -0.04893006       0.74154223       0.61358217
C        1.24667466       0.14395917       0.08116004
C        0.91036093      -1.26518709      -0.46218360
C       -0.35270263      -1.67542008      -0.41235628
C       -1.40537637      -0.66542346      -0.21440141
H       -0.04130397       0.91033602       1.68916435
H        1.67059976       0.72806297      -0.73825925
H        2.01223602       0.08287237       0.85613934
H        1.72642300      -1.88993344      -0.80488315
H       -0.45256923      -0.92327583       0.80235495
H       -1.67036940      -0.13941219      -1.12622534
H       -2.29832113      -0.89691399       0.36108029
14
Frame=7 idx=011205 GeodesicLength=0.9261151259849487 rxn_smarts="[N:1]#[C:2][C:3]1([H:8])[C:4]([H:9])([H:10])[C:5]([H:11])=[C:6]([H:12])[C:7]1([H:13])[H:14]>>[N:1]#[C:2][C:3]([C:4]([C:5](=[C:6]=[C:7]([H:13])[H:14])[H:11])([H:9])[H:10])([H:8])[H:12]"
N       -0.79805191       2.90602939      -0.58737682
C       -0.49169576       1.94342944      -0.03716855
C       -0.04811790       0.73535128       0.61869733
C        1.25056211       0.14753798       0.07521211
C        0.91060124      -1.25745655      -0.46533281
C       -0.35200233      -1.66324448      -0.39506154
C       -1.41440982      -0.66751995      -0.23225591
H       -0.01883690       0.91761662       1.69210454
H        1.66999995       0.73403556      -0.74492988
H        2.02095343       0.08890925       0.84578926
H        1.72131943      -1.89292055      -0.80072258
H       -0.45596852      -0.93121841       0.84922816
H       -1.68234165      -0.15751109      -1.15297118
H       -2.31201137      -0.90303850       0.33478788
14
Frame=8 idx=011205 GeodesicLength=1.0594165141927243 rxn_smarts="[N:1]#[C:2][C:3]1([H:8])[C:4]([H:9])([H:10])[C:5]([H:11])=[C:6]([H:12])[C:7]1([H:13])[H:14]>>[N:1]#[C:2][C:3]([C:4]([C:5](=[C:6]=[C:7]([H:13])[H:14])[H:11])([H:9])[H:10])([H:8])[H:12]"
N       -0.79157268       2.90764031      -0.57522476
C       -0.49230406       1.94160634      -0.02729182
C       -0.04721070       0.72892229       0.62445002
C        1.25428579       0.15115288       0.06907525
C        0.91027302      -1.24977254      -0.46852894
C       -0.35177625      -1.65015019      -0.37638203
C       -1.42338862      -0.66919053      -0.25169154
H        0.00415760       0.92459573       1.69508746
H        1.66874475       0.74001806      -0.75197979
H        2.02980371       0.09490213       0.83484537
H        1.71529202      -1.89621078      -0.79634393
H       -0.45815056      -0.93890679       0.89789100
H       -1.69313411      -0.17637428      -1.18177102
H       -2.32501992      -0.90823264       0.30786474
14
Frame=9 idx=011205 GeodesicLength=1.1932158627026153 rxn_smarts="[N:1]#[C:2][C:3]1([H:8])[C:4]([H:9])([H:10])[C:5]([H:11])=[C:6]([H:12])[C:7]1([H:13])[H:14]>>[N:1]#[C:2][C:3]([C:4]([C:5](=[C:6]=[C:7]([H:13])[H:14])[H:11])([H:9])[H:10])([H:8])[H:12]"
N       -0.78662431       2.90821878      -0.56248156
C       -0.49299543       1.93961995      -0.01630905
C       -0.04615407       0.72217093       0.63094942
C        1.25781602       0.15481585       0.06270395
C        0.90929472      -1.24214119      -0.47173169
C       -0.35215756      -1.63601255      -0.35613690
C       -1.43218626      -0.67030185      -0.27293692
H        0.02781895       0.93123276       1.69819269
H        1.66667457       0.74606481      -0.75953111
H        2.03887904       0.10086850       0.82316552
H        1.70817319      -1.89991841      -0.79159247
H       -0.45871157      -0.94658786       0.94851755
H       -1.70232262      -0.19624264      -1.21295932
H       -2.33750467      -0.91178708       0.28014990
14
Frame=10 idx=011205 GeodesicLength=1.3274828501366274 rxn_smarts="[N:1]#[C:2][C:3]1([H:8])[C:4]([H:9])([H:10])[C:5]([H:11])=[C:6]([H:12])[C:7]1([H:13])[H:14]>>[N:1]#[C:2][C:3]([C:4]([C:5](=[C:6]=[C:7]([H:13])[H:14])[H:11])([H:9])[H:10])([H:8])[H:12]"
N       -0.78299439       2.90796494      -0.54904580
C       -0.49385457       1.93746942      -0.00419890
C       -0.04498180       0.71514883       0.63823907
C        1.26106915       0.15851310       0.05604808
C        0.90755875      -1.23463841      -0.47486039
C       -0.35320992      -1.62059976      -0.33442122
C       -1.44075739      -0.67098587      -0.29610385
H        0.05212270       0.93752979       1.70141007
H        1.66362621       0.75206954      -0.76765829
H        2.04809761       0.10686333       0.81061673
H        1.69985162      -1.90411726      -0.78631941
H       -0.45722746      -0.95416350       1.00143049
H       -1.70992303      -0.21712261      -1.24651023
H       -2.34937747      -0.91393153       0.25137365
14
Frame=11 idx=011205 GeodesicLength=1.462011733286744 rxn_smarts="[N:1]#[C:2][C:3]1([H:8])[C:4]([H:9])([H:10])[C:5]([H:11])=[C:6]([H:12])[C:7]1([H:13])[H:14]>>[N:1]#[C:2][C:3]([C:4]([C:5](=[C:6]=[C:7]([H:13])[H:14])[H:11])([H:9])[H:10])([H:8])[H:12]"
N       -0.78087837       2.90684582      -0.53477270
C       -0.49494718       1.93513339       0.00918777
C       -0.04368379       0.70784677       0.64641897
C        1.26397125       0.16224544       0.04904161
C        0.90494681      -1.22733016      -0.47779172
C       -0.35506225      -1.60373883      -0.31117277
C       -1.44899464      -0.67122453      -0.32138377
H        0.07716351       0.94346913       1.70479331
H        1.65937872       0.75798561      -0.77652176
H        2.05748930       0.11295982       0.79701530
H        1.69015048      -1.90895321      -0.78028324
H       -0.45317416      -0.96173441       1.05686354
H       -1.71567604      -0.23910949      -1.28261327
H       -2.36068364      -0.91439536       0.22121870
14
Frame=12 idx=011205 GeodesicLength=1.596566694737514 rxn_smarts="[N:1]#[C:2][C:3]1([H:8])[C:4]([H:9])([H:10])[C:5]([H:11])=[C:6]([H:12])[C:7]1([H:13])[H:14]>>[N:1]#[C:2][C:3]([C:4]([C:5](=[C:6]=[C:7]([H:13])[H:14])[H:11])([H:9])[H:10])([H:8])[H:12]"
N       -0.78042359       2.90483712      -0.51952812
C       -0.49634638       1.93258042       0.02397865
C       -0.04224630       0.70026360       0.65559595
C        1.26642285       0.16600316       0.04162869
C        0.90133004      -1.22029844      -0.48037415
C       -0.35787158      -1.58521726      -0.28641231
C       -1.45676819      -0.67102367      -0.34895784
H        0.10303530       0.94906068       1.70838469
H        1.65368164       0.76374784      -0.78625661
H        2.06703588       0.11921597       0.78218141
H        1.67888665      -1.91452610      -0.77322640
H       -0.44596542      -0.96941734       1.11502433
H       -1.71932539      -0.26231848      -1.32142040
H       -2.37144551      -0.91290749       0.18938209
14
Frame=13 idx=011205 GeodesicLength=1.7307745105699488 rxn_smarts="[N:1]#[C:2][C:3]1([H:8])[C:4]([H:9])([H:10])[C:5]([H:11])=[C:6]([H:12])[C:7]1([H:13])[H:14]>>[N:1]#[C:2][C:3]([C:4]([C:5](=[C:6]=[C:7]([H:13])[H:14])[H:11])([H:9])[H:10])([H:8])[H:12]"
N       -0.78177810       2.90192463      -0.50314222
C       -0.49813352       1.92978093       0.04030866
C       -0.04064785       0.69240618       0.66587578
C        1.26831822       0.16978691       0.03374987
C        0.89658478      -1.21363015      -0.48243451
C       -0.36179190      -1.56489241      -0.26016726
C       -1.46395267      -0.67038657      -0.37898616
H        0.12982615       0.95431514       1.71221914
H        1.64627822       0.76928918      -0.79701621
H        2.07672014       0.12573435       0.76592891
H        1.66589268      -1.92098428      -0.76482784
H       -0.43495167      -0.97734223       1.17601824
H       -1.72061122      -0.28683540      -1.36309227
H       -2.38175326      -0.90916629       0.15556587
14
Frame=14 idx=011205 GeodesicLength=1.8644986477521313 rxn_smarts="[N:1]#[C:2][C:3]1([H:8])[C:4]([H:9])([H:10])[C:5]([H:11])=[C:6]([H:12])[C:7]1([H:13])[H:14]>>[N:1]#[C:2][C:3]([C:4]([C:5](=[C:6]=[C:7]([H:13])[H:14])[H:11])([H:9])[H:10])([H:8])[H:12]"
N       -0.78515618       2.89809224      -0.48540394
C       -0.50039216       1.92671447       0.05834322
C       -0.03886566       0.68429398       0.67739870
C        1.26952835       0.17358543       0.02533918
C        0.89055228      -1.20742856      -0.48374181
C       -0.36706366      -1.54253251      -0.23247706
C       -1.47036462      -0.66929666      -0.41167954
H        0.15766922       0.95926241       1.71634264
H        1.63683840       0.77451735      -0.80898252
H        2.08651851       0.13259382       0.74802677
H        1.65092985      -1.92848658      -0.75468711
H       -0.41933650      -0.98566244       1.23995885
H       -1.71920888      -0.31285240      -1.40775409
H       -2.39164895      -0.90280055       0.11931671
14
Frame=15 idx=011205 GeodesicLength=1.9974989394394604 rxn_smarts="[N:1]#[C:2][C:3]1([H:8])[C:4]([H:9])([H:10])[C:5]([H:11])=[C:6]([H:12])[C:7]1([H:13])[H:14]>>[N:1]#[C:2][C:3]([C:4]([C:5](=[C:6]=[C:7]([H:13])[H:14])[H:11])([H:9])[H:10])([H:8])[H:12]"
N       -0.79069398       2.89335068      -0.46611517
C       -0.50321584       1.92335629       0.07821900
C       -0.03687030       0.67595746       0.69029098
C        1.26991560       0.17739246       0.01634407
C        0.88308771      -1.20179549      -0.48405402
C       -0.37391056      -1.51798222      -0.20344023
C       -1.47583107      -0.66776408      -0.44717348
H        0.18666787       0.96394726       1.72078107
H        1.62506039       0.77934276      -0.82231120
H        2.09638346       0.13989377       0.72828505
H        1.63379525      -1.93717126      -0.74239898
H       -0.39834229      -0.99453703       1.30679604
H       -1.71481698      -0.34053711      -1.45548957
H       -2.40122926      -0.89345351       0.08026644
14
Frame=16 idx=011205 GeodesicLength=2.129807634926809 rxn_smarts="[N:1]#[C:2][C:3]1([H:8])[C:4]([H:9])([H:10])[C:5]([H:11])=[C:6]([H:12])[C:7]1([H:13])[H:14]>>[N:1]#[C:2][C:3]([C:4]([C:5](=[C:6]=[C:7]([H:13])[H:14])[H:11])([H:9])[H:10])([H:8])[H:12]"
N       -0.79849911       2.88776918      -0.44505457
C       -0.50670037       1.91971125       0.10005635
C       -0.03462946       0.66745777       0.70468503
C        1.26933837       0.18118708       0.00672276
C        0.87403921      -1.19683451      -0.48310231
C       -0.38259262      -1.49103630      -0.17324316
C       -1.48014262      -0.66583182      -0.48558046
H        0.21691650       0.96843889       1.72556124
H        1.61064603       0.78364775      -0.83715016
H        2.10625638       0.14769464       0.70652089
H        1.61426717      -1.94715022      -0.72753167
H       -0.37118800      -1.00410832       1.37640082
H       -1.70715350      -0.37015338      -1.50628650
H       -2.41055799      -0.88079201       0.03800174
