14
Frame=0 idx=004543 GeodesicLength=0.0 rxn_smarts="[C:1]([O:2][C:3]([C:4]([C:5]#[C:6][H:14])([H:12])[H:13])([H:10])[H:11])([H:7])([H:8])[H:9]>>[C:1]([O:2][C@:3]1([H:10])[C:4]([H:12])([H:13])[C:5]1=[C:6]([H:11])[H:14])([H:7])([H:8])[H:9]"
C       -2.35045986       0.49421481      -0.19063084
O       -1.32309443      -0.49918612      -0.12368448
C       -0.08807093      -0.08227738       0.00381450
C        0.90419212      -0.96389104       0.73157128
C        2.24811428      -0.39347854       0.60148437
C        2.41403248       0.24656736      -0.51571333
H       -2.39880677       1.04290893       0.75132017
H       -2.15293980       1.17885338      -1.01689584
H       -3.28408517      -0.03424022      -0.36215757
H        0.03658628       0.99378281       0.11961777
H        1.40369302       0.21479067      -1.14158374
H        0.47776561      -0.98680614       1.74980157
H        0.88445344      -1.99481258       0.37489891
H        3.22861968       0.78357405      -0.98184282
14
Frame=1 idx=004543 GeodesicLength=0.09783158597293143 rxn_smarts="[C:1]([O:2][C:3]([C:4]([C:5]#[C:6][H:14])([H:12])[H:13])([H:10])[H:11])([H:7])([H:8])[H:9]>>[C:1]([O:2][C@:3]1([H:10])[C:4]([H:12])([H:13])[C:5]1=[C:6]([H:11])[H:14])([H:7])([H:8])[H:9]"
C       -2.35234311       0.49093095      -0.18020827
O       -1.32190198      -0.49683470      -0.12106775
C       -0.08046725      -0.07718156      -0.00682960
C        0.89318953      -0.97209112       0.72883030
C        2.21416886      -0.35064237       0.61977232
C        2.43114439       0.25250617      -0.50652837
H       -2.38236376       1.05561814       0.75341095
H       -2.17395171       1.16341171      -1.02124018
H       -3.28861671      -0.04145723      -0.32352905
H        0.02934153       1.00376498       0.07340493
H        1.40153516       0.22929138      -1.14708504
H        0.46181029      -1.01331344       1.74315687
H        0.89577904      -1.99586261       0.35318194
H        3.27267573       0.75185971      -0.96526905
14
Frame=2 idx=004543 GeodesicLength=0.1956717106776849 rxn_smarts="[C:1]([O:2][C:3]([C:4]([C:5]#[C:6][H:14])([H:12])[H:13])([H:10])[H:11])([H:7])([H:8])[H:9]>>[C:1]([O:2][C@:3]1([H:10])[C:4]([H:12])([H:13])[C:5]1=[C:6]([H:11])[H:14])([H:7])([H:8])[H:9]"
C       -2.35416208       0.48772198      -0.16952121
O       -1.32099218      -0.49466190      -0.11767385
C       -0.07311722      -0.07234380      -0.01774803
C        0.88266472      -0.98011453       0.72508663
C        2.17958333      -0.31057543       0.63397532
C        2.44800656       0.25948082      -0.49601843
H       -2.36556002       1.06938490       0.75444001
H       -2.19545865       1.14676774      -1.02555641
H       -3.29261687      -0.04813489      -0.28349800
H        0.02143244       1.01224897       0.02520863
H        1.39926410       0.24477690      -1.15332280
H        0.44818423      -1.03811480       1.73602886
H        0.90646837      -1.99666523       0.33240574
H        3.31630325       0.72022925      -0.94380646
14
Frame=3 idx=004543 GeodesicLength=0.293513902425523 rxn_smarts="[C:1]([O:2][C:3]([C:4]([C:5]#[C:6][H:14])([H:12])[H:13])([H:10])[H:11])([H:7])([H:8])[H:9]>>[C:1]([O:2][C@:3]1([H:10])[C:4]([H:12])([H:13])[C:5]1=[C:6]([H:11])[H:14])([H:7])([H:8])[H:9]"
C       -2.35582619       0.48471169      -0.15853872
O       -1.32036136      -0.49266079      -0.11354102
C       -0.06600229      -0.06787941      -0.02910784
C        0.87259483      -0.98800693       0.72038547
C        2.14468636      -0.27327550       0.64443488
C        2.46452911       0.26773278      -0.48415479
H       -2.34823778       1.08425339       0.75437550
H       -2.21737824       1.12902756      -1.02971907
H       -3.29600177      -0.05396845      -0.24201960
H        0.01292673       1.01893616      -0.02504529
H        1.39688797       0.26047868      -1.16051576
H        0.43668985      -1.06133148       1.72848325
H        0.91653049      -1.99736005       0.31243886
H        3.35896229       0.68934235      -0.91747586
14
Frame=4 idx=004543 GeodesicLength=0.39135067994177497 rxn_smarts="[C:1]([O:2][C:3]([C:4]([C:5]#[C:6][H:14])([H:12])[H:13])([H:10])[H:11])([H:7])([H:8])[H:9]>>[C:1]([O:2][C@:3]1([H:10])[C:4]([H:12])([H:13])[C:5]1=[C:6]([H:11])[H:14])([H:7])([H:8])[H:9]"
C       -2.35724273       0.48203159      -0.14724164
O       -1.32001549      -0.49082505      -0.10865487
C       -0.05911666      -0.06392440      -0.04103621
C        0.86295609      -0.99584462       0.71476819
C        2.10971703      -0.23868387       0.65148582
C        2.48063992       0.27741519      -0.47093216
H       -2.33023640       1.10031194       0.75313244
H       -2.23961637       1.11026159      -1.03363736
H       -3.29868570      -0.05863317      -0.19904235
H        0.00388835       1.02350760      -0.07737412
H        1.39437438       0.27574407      -1.16883801
H        0.42714829      -1.08315393       1.72056227
H        0.92602146      -1.99808379       0.29314045
H        3.40016782       0.65987686      -0.88633245
14
Frame=5 idx=004543 GeodesicLength=0.4891819162026888 rxn_smarts="[C:1]([O:2][C:3]([C:4]([C:5]#[C:6][H:14])([H:12])[H:13])([H:10])[H:11])([H:7])([H:8])[H:9]>>[C:1]([O:2][C@:3]1([H:10])[C:4]([H:12])([H:13])[C:5]1=[C:6]([H:11])[H:14])([H:7])([H:8])[H:9]"
C       -2.35834760       0.47975831      -0.13562266
O       -1.31994310      -0.48914972      -0.10305352
C       -0.05246916      -0.06055805      -0.05362407
C        0.85373534      -1.00363929       0.70827501
C        2.07480865      -0.20654958       0.65552019
C        2.49626632       0.28883675      -0.45623258
H       -2.31150476       1.11747576       0.75068614
H       -2.26209106       1.09060485      -1.03714461
H       -3.30057986      -0.06190135      -0.15465898
H       -0.00568259       1.02571748      -0.13166862
H        1.39168730       0.29025616      -1.17834283
H        0.41937495      -1.10379389       1.71227189
H        0.93510405      -1.99885980       0.27433267
H        3.43964152       0.63180235      -0.85073801
14
Frame=6 idx=004543 GeodesicLength=0.587024496084312 rxn_smarts="[C:1]([O:2][C:3]([C:4]([C:5]#[C:6][H:14])([H:12])[H:13])([H:10])[H:11])([H:7])([H:8])[H:9]>>[C:1]([O:2][C@:3]1([H:10])[C:4]([H:12])([H:13])[C:5]1=[C:6]([H:11])[H:14])([H:7])([H:8])[H:9]"
C       -2.35902905       0.47804878      -0.12364435
O       -1.32016928      -0.48764278      -0.09669727
C       -0.04606468      -0.05800263      -0.06705164
C        0.84487761      -1.01154939       0.70091530
C        2.04004586      -0.17684971       0.65678525
C        2.51137124       0.30190889      -0.44007967
H       -2.29173117       1.13596380       0.74685869
H       -2.28477209       1.07003393      -1.04021432
H       -3.30159483      -0.06337778      -0.10860957
H       -0.01571016       1.02518197      -0.18803008
H        1.38882104       0.30348886      -1.18919589
H        0.41318619      -1.12348367       1.70360531
H        0.94382178      -1.99988988       0.25591508
H        3.47694754       0.60616962      -0.81055684
14
Frame=7 idx=004543 GeodesicLength=0.684932994062792 rxn_smarts="[C:1]([O:2][C:3]([C:4]([C:5]#[C:6][H:14])([H:12])[H:13])([H:10])[H:11])([H:7])([H:8])[H:9]>>[C:1]([O:2][C@:3]1([H:10])[C:4]([H:12])([H:13])[C:5]1=[C:6]([H:11])[H:14])([H:7])([H:8])[H:9]"
C       -2.35929790       0.47709232      -0.11151552
O       -1.32065609      -0.48629316      -0.08910486
C       -0.03992997      -0.05629154      -0.08095929
C        0.83660881      -1.01981845       0.69286501
C        2.00567872      -0.14953566       0.65553643
C        2.52582660       0.31649989      -0.42267627
H       -2.27134881       1.15611479       0.74139041
H       -2.30737454       1.04863119      -1.04316836
H       -3.30167391      -0.06281055      -0.06152493
H       -0.02626684       1.02188114      -0.24557697
H        1.38537679       0.31557642      -1.20137809
H        0.40896266      -1.14278388       1.69488206
H        0.95248721      -2.00144342       0.23769012
H        3.51160727       0.58318091      -0.76645973
14
Frame=8 idx=004543 GeodesicLength=0.7827283045822594 rxn_smarts="[C:1]([O:2][C:3]([C:4]([C:5]#[C:6][H:14])([H:12])[H:13])([H:10])[H:11])([H:7])([H:8])[H:9]>>[C:1]([O:2][C@:3]1([H:10])[C:4]([H:12])([H:13])[C:5]1=[C:6]([H:11])[H:14])([H:7])([H:8])[H:9]"
C       -2.35907554       0.47637035      -0.09894784
O       -1.32137194      -0.48514495      -0.08154370
C       -0.03405660      -0.05532918      -0.09608757
C        0.82847678      -1.02757961       0.68396730
C        1.97128578      -0.12336115       0.65226023
C        2.53970331       0.33426094      -0.40298385
H       -2.25012646       1.17586256       0.73517011
H       -2.32985470       1.02709026      -1.04443589
H       -3.30078413      -0.06067898      -0.01366096
H       -0.03733712       1.01561006      -0.30469988
H        1.38210594       0.32689233      -1.21453904
H        0.40542593      -1.16074758       1.68544904
H        0.96118369      -2.00249706       0.21978228
H        3.54442506       0.55925199      -0.71973023
14
Frame=9 idx=004543 GeodesicLength=0.8804922309568739 rxn_smarts="[C:1]([O:2][C:3]([C:4]([C:5]#[C:6][H:14])([H:12])[H:13])([H:10])[H:11])([H:7])([H:8])[H:9]>>[C:1]([O:2][C@:3]1([H:10])[C:4]([H:12])([H:13])[C:5]1=[C:6]([H:11])[H:14])([H:7])([H:8])[H:9]"
C       -2.35780035       0.47711044      -0.08616353
O       -1.32233286      -0.48396806      -0.07225830
C       -0.02844792      -0.05617947      -0.11211944
C        0.82072632      -1.03661816       0.67429768
C        1.93746129      -0.10098461       0.64601043
C        2.55252040       0.35121140      -0.38294766
H       -2.22677198       1.19830616       0.72634793
H       -2.35201106       1.00449264      -1.04572715
H       -3.29834264      -0.05481280       0.03629071
H       -0.04857060       1.00520871      -0.36538104
H        1.37774322       0.33501091      -1.22970755
H        0.40393387      -1.17872152       1.67589886
H        0.96907875      -2.00512243       0.20232628
H        3.57281356       0.54506677      -0.66686724
14
Frame=10 idx=004543 GeodesicLength=0.9783015554385186 rxn_smarts="[C:1]([O:2][C:3]([C:4]([C:5]#[C:6][H:14])([H:12])[H:13])([H:10])[H:11])([H:7])([H:8])[H:9]>>[C:1]([O:2][C@:3]1([H:10])[C:4]([H:12])([H:13])[C:5]1=[C:6]([H:11])[H:14])([H:7])([H:8])[H:9]"
C       -2.35593728       0.47877259      -0.07315670
O       -1.32359062      -0.48294027      -0.06204334
C       -0.02315286      -0.05841210      -0.12910348
C        0.81329349      -1.04618499       0.66399193
C        1.90412290      -0.08073824       0.63761490
C        2.56459688       0.36961912      -0.36150374
H       -2.20243474       1.22180228       0.71588777
H       -2.37389604       0.98158014      -1.04613983
H       -3.29484815      -0.04619523       0.08708511
H       -0.06023280       0.99131621      -0.42685611
H        1.37292761       0.34144706      -1.24636560
H        0.40370439      -1.19634358       1.66620443
H        0.97685320      -2.00858430       0.18512286
H        3.59859404       0.53486129      -0.61073821
14
Frame=11 idx=004543 GeodesicLength=1.0761651101327636 rxn_smarts="[C:1]([O:2][C:3]([C:4]([C:5]#[C:6][H:14])([H:12])[H:13])([H:10])[H:11])([H:7])([H:8])[H:9]>>[C:1]([O:2][C@:3]1([H:10])[C:4]([H:12])([H:13])[C:5]1=[C:6]([H:11])[H:14])([H:7])([H:8])[H:9]"
C       -2.35329419       0.48091842      -0.05997625
O       -1.32476092      -0.48215728      -0.05193600
C       -0.01813378      -0.06175341      -0.14745906
C        0.80627852      -1.05552465       0.65315026
C        1.87073940      -0.06121839       0.62788463
C        2.57540435       0.39158487      -0.33729041
H       -2.17712403       1.24477331       0.70456837
H       -2.39551344       0.95913933      -1.04502379
H       -3.28984480      -0.03559421       0.13792146
H       -0.07269623       0.97425701      -0.48897603
H        1.36782831       0.34756366      -1.26397851
H        0.40439539      -1.21322337       1.65617241
H        0.98553564      -2.01187971       0.16826594
H        3.62118579       0.52311443      -0.55332302
14
Frame=12 idx=004543 GeodesicLength=1.1740225884079172 rxn_smarts="[C:1]([O:2][C:3]([C:4]([C:5]#[C:6][H:14])([H:12])[H:13])([H:10])[H:11])([H:7])([H:8])[H:9]>>[C:1]([O:2][C@:3]1([H:10])[C:4]([H:12])([H:13])[C:5]1=[C:6]([H:11])[H:14])([H:7])([H:8])[H:9]"
C       -2.34940991       0.48464935      -0.04647601
O       -1.32616277      -0.48130643      -0.04011476
C       -0.01347450      -0.06737866      -0.16694366
C        0.79930485      -1.06645220       0.64146382
C        1.83780950      -0.04517969       0.61539864
C        2.58486415       0.41310723      -0.31251369
H       -2.14952623       1.26999271       0.69044670
H       -2.41648675       0.93595633      -1.04328693
H       -3.28304980      -0.02067188       0.19080063
H       -0.08532427       0.95270532      -0.55193863
H        1.36177782       0.35066107      -1.28369242
H        0.40634734      -1.23066585       1.64587822
H        0.99332483      -2.01708381       0.15147323
H        3.64000576       0.52166649      -0.49049515
14
Frame=13 idx=004543 GeodesicLength=1.2719493705252662 rxn_smarts="[C:1]([O:2][C:3]([C:4]([C:5]#[C:6][H:14])([H:12])[H:13])([H:10])[H:11])([H:7])([H:8])[H:9]>>[C:1]([O:2][C@:3]1([H:10])[C:4]([H:12])([H:13])[C:5]1=[C:6]([H:11])[H:14])([H:7])([H:8])[H:9]"
C       -2.34448382       0.48942131      -0.03285101
O       -1.32754806      -0.48047120      -0.02764068
C       -0.00917059      -0.07479497      -0.18760918
C        0.79266424      -1.07802851       0.62917040
C        1.80527455      -0.03108106       0.60093561
C        2.59276546       0.43632612      -0.28586483
H       -2.12039922       1.29555819       0.67457176
H       -2.43696828       0.91301293      -1.04019501
H       -3.27451215      -0.00252178       0.24401461
H       -0.09856419       0.92735755      -0.61498675
H        1.35483382       0.35226722      -1.30482640
H        0.40952347      -1.24791061       1.63530100
H        1.00126579      -2.02315607       0.13492988
H        3.65531899       0.52402087      -0.42494941
14
Frame=14 idx=004543 GeodesicLength=1.3699826396465429 rxn_smarts="[C:1]([O:2][C:3]([C:4]([C:5]#[C:6][H:14])([H:12])[H:13])([H:10])[H:11])([H:7])([H:8])[H:9]>>[C:1]([O:2][C@:3]1([H:10])[C:4]([H:12])([H:13])[C:5]1=[C:6]([H:11])[H:14])([H:7])([H:8])[H:9]"
C       -2.33828702       0.49532450      -0.01908071
O       -1.32878776      -0.47963488      -0.01459213
C       -0.00523443      -0.08423687      -0.20962337
C        0.78631483      -1.09043284       0.61623417
C        1.77301904      -0.01901179       0.58444603
C        2.59871282       0.46132006      -0.25721547
H       -2.08937161       1.32145457       0.65679422
H       -2.45691099       0.89043273      -1.03567255
H       -3.26385896       0.01911150       0.29779376
H       -0.11247938       0.89809279      -0.67811162
H        1.34690080       0.35236015      -1.32753864
H        0.41382632      -1.26513788       1.62441200
H        1.00942599      -2.03026409       0.11859483
H        3.66673035       0.53062206      -0.35644052
14
Frame=15 idx=004543 GeodesicLength=1.4681365752283175 rxn_smarts="[C:1]([O:2][C:3]([C:4]([C:5]#[C:6][H:14])([H:12])[H:13])([H:10])[H:11])([H:7])([H:8])[H:9]>>[C:1]([O:2][C@:3]1([H:10])[C:4]([H:12])([H:13])[C:5]1=[C:6]([H:11])[H:14])([H:7])([H:8])[H:9]"
C       -2.33072372       0.50232923      -0.00527324
O       -1.32975925      -0.47875055      -0.00105339
C       -0.00166100      -0.09570060      -0.23283921
C        0.78029344      -1.10366698       0.60273633
C        1.74115165      -0.00894807       0.56590918
C        2.60243826       0.48820204      -0.22639119
H       -2.05652374       1.34732325       0.63720529
H       -2.47613036       0.86849362      -1.02962748
H       -3.25094683       0.04414261       0.35164012
H       -0.12710797       0.86511085      -0.74082374
H        1.33778293       0.35115973      -1.35177048
H        0.41930890      -1.28231521       1.61327169
H        1.01783392      -2.03840381       0.10252439
H        3.67404377       0.54102390      -0.28550827
14
Frame=16 idx=004543 GeodesicLength=1.566443055596997 rxn_smarts="[C:1]([O:2][C:3]([C:4]([C:5]#[C:6][H:14])([H:12])[H:13])([H:10])[H:11])([H:7])([H:8])[H:9]>>[C:1]([O:2][C@:3]1([H:10])[C:4]([H:12])([H:13])[C:5]1=[C:6]([H:11])[H:14])([H:7])([H:8])[H:9]"
C       -2.32149387       0.51066784       0.00863925
O       -1.33032480      -0.47770381       0.01314627
C        0.00154321      -0.10947020      -0.25725837
C        0.77449687      -1.11819465       0.58853671
C        1.70984491      -0.00159801       0.54485579
C        2.60352107       0.51637600      -0.19380824
H       -2.02139938       1.37351064       0.61540109
H       -2.49448860       0.84720635      -1.02202047
H       -3.23527413       0.07307892       0.40600284
H       -0.14241502       0.82828708      -0.80300255
H        1.32716706       0.34808555      -1.37800881
H        0.42599396      -1.29971743       1.60185506
H        1.02604537      -2.04814408       0.08651135
H        3.67678333       0.55761580      -0.21084994
