12
Frame=0 idx=002669 GeodesicLength=0.0 rxn_smarts="[C:1](/[N:2]=[C:3](\[N:4]([H:10])[H:11])[C:5](=[O:6])[H:12])([H:7])([H:8])[H:9]>>[C:1]([N:4]([H:10])[H:11])([H:7])([H:8])[H:9].[N:2]#[C:3][C:5](=[O:6])[H:12]"
C        1.80800425      -0.32161104       0.32854268
N        0.35568353       1.35097067       0.39110429
C       -0.52057217       0.56444451       0.01382604
N       -0.10869829      -0.81896582      -0.21708969
C       -1.95594645       0.88838121      -0.22791752
O       -2.77587897       0.08507379      -0.59497833
H        2.01161401      -1.36645080       0.11866345
H        2.31860044       0.35373426      -0.34079615
H        1.91877620      -0.06770230       1.37176933
H       -0.24601605      -1.12418611      -1.17997951
H       -0.59884901      -1.48975236       0.37369141
H       -2.20671749       1.94606402      -0.03683598
12
Frame=1 idx=002669 GeodesicLength=0.07844817334747962 rxn_smarts="[C:1](/[N:2]=[C:3](\[N:4]([H:10])[H:11])[C:5](=[O:6])[H:12])([H:7])([H:8])[H:9]>>[C:1]([N:4]([H:10])[H:11])([H:7])([H:8])[H:9].[N:2]#[C:3][C:5](=[O:6])[H:12]"
C        1.79929197      -0.31911085       0.31858083
N        0.35103933       1.35138104       0.41765615
C       -0.53343781       0.57163399       0.05100842
N       -0.11302999      -0.82567629      -0.20935502
C       -1.95833258       0.89437027      -0.24093904
O       -2.78910783       0.07825705      -0.54904542
H        2.03156042      -1.34097676       0.03489977
H        2.32965586       0.39756541      -0.29080143
H        1.91732533      -0.13747751       1.37718070
H       -0.27541976      -1.13790428      -1.16532272
H       -0.56925090      -1.50114902       0.40151796
H       -2.19029404       1.96908696      -0.14538020
12
Frame=2 idx=002669 GeodesicLength=0.1564979175207718 rxn_smarts="[C:1](/[N:2]=[C:3](\[N:4]([H:10])[H:11])[C:5](=[O:6])[H:12])([H:7])([H:8])[H:9]>>[C:1]([N:4]([H:10])[H:11])([H:7])([H:8])[H:9].[N:2]#[C:3][C:5](=[O:6])[H:12]"
C        1.78979497      -0.31514101       0.30828827
N        0.34587162       1.35194753       0.44459640
C       -0.54703567       0.57880588       0.09027496
N       -0.11806418      -0.83226800      -0.20067342
C       -1.95964937       0.89947280      -0.25310253
O       -2.80196394       0.07647580      -0.50393896
H        2.04723169      -1.30804131      -0.04913861
H        2.33936938       0.43864835      -0.23714412
H        1.91725518      -0.20861329       1.37713716
H       -0.30524992      -1.15192404      -1.14884056
H       -0.53926506      -1.51229120       0.42866466
H       -2.16829469       1.98292848      -0.25612326
12
Frame=3 idx=002669 GeodesicLength=0.2347701924357037 rxn_smarts="[C:1](/[N:2]=[C:3](\[N:4]([H:10])[H:11])[C:5](=[O:6])[H:12])([H:7])([H:8])[H:9]>>[C:1]([N:4]([H:10])[H:11])([H:7])([H:8])[H:9].[N:2]#[C:3][C:5](=[O:6])[H:12]"
C        1.77979381      -0.30993507       0.29799871
N        0.34091928       1.35357454       0.46949273
C       -0.56083994       0.58679506       0.12939821
N       -0.12364957      -0.83871531      -0.19132860
C       -1.96032255       0.90401233      -0.26375527
O       -2.81414753       0.07943311      -0.46280565
H        2.05886305      -1.26858837      -0.13144245
H        2.34853382       0.47558487      -0.18036787
H        1.91807998      -0.28001374       1.37160190
H       -0.33514512      -1.16714340      -1.13061121
H       -0.50925845      -1.52240801       0.45535960
H       -2.14282677       1.98740399      -0.36354011
12
Frame=4 idx=002669 GeodesicLength=0.31313397409109234 rxn_smarts="[C:1](/[N:2]=[C:3](\[N:4]([H:10])[H:11])[C:5](=[O:6])[H:12])([H:7])([H:8])[H:9]>>[C:1]([N:4]([H:10])[H:11])([H:7])([H:8])[H:9].[N:2]#[C:3][C:5](=[O:6])[H:12]"
C        1.76922338      -0.30348028       0.28789241
N        0.33623563       1.35629605       0.49179840
C       -0.57465681       0.59577003       0.16764089
N       -0.12966420      -0.84505298      -0.18130383
C       -1.96022383       0.90809666      -0.27360913
O       -2.82550286       0.08624563      -0.42622105
H        2.06601679      -1.22267475      -0.21190721
H        2.35741285       0.50786613      -0.12052289
H        1.91949979      -0.35135177       1.36048898
H       -0.36480267      -1.18383796      -1.11051125
H       -0.47924010      -1.53113447       0.48194762
H       -2.11429795       1.98325771      -0.46569294
12
Frame=5 idx=002669 GeodesicLength=0.39133751410907386 rxn_smarts="[C:1](/[N:2]=[C:3](\[N:4]([H:10])[H:11])[C:5](=[O:6])[H:12])([H:7])([H:8])[H:9]>>[C:1]([N:4]([H:10])[H:11])([H:7])([H:8])[H:9].[N:2]#[C:3][C:5](=[O:6])[H:12]"
C        1.75789371      -0.29627911       0.27823995
N        0.33181682       1.35972137       0.51317615
C       -0.58817742       0.60598395       0.20489868
N       -0.13613274      -0.85116655      -0.17042792
C       -1.95921131       0.91220215      -0.28186675
O       -2.83538861       0.09624541      -0.39448090
H        2.06913468      -1.17007254      -0.29070959
H        2.36434259       0.53522946      -0.05856039
H        1.92204594      -0.42282978       1.34366004
H       -0.39427267      -1.20168924      -1.08839764
H       -0.44905662      -1.53827655       0.50861654
H       -2.08299438       1.97093143      -0.56414817
12
Frame=6 idx=002669 GeodesicLength=0.4697218271402779 rxn_smarts="[C:1](/[N:2]=[C:3](\[N:4]([H:10])[H:11])[C:5](=[O:6])[H:12])([H:7])([H:8])[H:9]>>[C:1]([N:4]([H:10])[H:11])([H:7])([H:8])[H:9].[N:2]#[C:3][C:5](=[O:6])[H:12]"
C        1.74615710      -0.28851640       0.26928381
N        0.32782770       1.36417514       0.53228331
C       -0.60132495       0.61757126       0.24007295
N       -0.14278285      -0.85746916      -0.15878269
C       -1.95718651       0.91630587      -0.29079625
O       -2.84405033       0.10855848      -0.36857158
H        2.06831633      -1.11176662      -0.36625803
H        2.37011661       0.55707824       0.00464646
H        1.92560962      -0.49342909       1.32127428
H       -0.42286729      -1.22145645      -1.06428533
H       -0.41899787      -1.54387707       0.53557521
H       -2.05081758       1.95282579      -0.65444214
12
Frame=7 idx=002669 GeodesicLength=0.5483642538371639 rxn_smarts="[C:1](/[N:2]=[C:3](\[N:4]([H:10])[H:11])[C:5](=[O:6])[H:12])([H:7])([H:8])[H:9]>>[C:1]([N:4]([H:10])[H:11])([H:7])([H:8])[H:9].[N:2]#[C:3][C:5](=[O:6])[H:12]"
C        1.73389294      -0.28000076       0.26102030
N        0.32383445       1.36918171       0.55118876
C       -0.61438087       0.63027914       0.27429996
N       -0.14964749      -0.86398176      -0.14614950
C       -1.95415000       0.92039756      -0.29991767
O       -2.85179189       0.12289577      -0.34696912
H        2.06295047      -1.04697113      -0.43918874
H        2.37430577       0.57393016       0.06891410
H        1.93079659      -0.56376326       1.29272976
H       -0.45078666      -1.24250632      -1.03813637
H       -0.38903329      -1.54832200       0.56266805
H       -2.01599002       1.92886089      -0.74045954
12
Frame=8 idx=002669 GeodesicLength=0.6272451586679033 rxn_smarts="[C:1](/[N:2]=[C:3](\[N:4]([H:10])[H:11])[C:5](=[O:6])[H:12])([H:7])([H:8])[H:9]>>[C:1]([N:4]([H:10])[H:11])([H:7])([H:8])[H:9].[N:2]#[C:3][C:5](=[O:6])[H:12]"
C        1.72104377      -0.27084831       0.25366699
N        0.31985058       1.37468201       0.57003196
C       -0.62730824       0.64412014       0.30755804
N       -0.15661130      -0.87068771      -0.13266818
C       -1.95001676       0.92443513      -0.30928029
O       -2.85858745       0.13892758      -0.32896702
H        2.05279855      -0.97576316      -0.50868753
H        2.37685052       0.58564436       0.13373262
H        1.93746479      -0.63355342       1.25775616
H       -0.47789258      -1.26447702      -1.01020416
H       -0.35925973      -1.55166761       0.58962581
H       -1.97833215       1.89918800      -0.82256440
12
Frame=9 idx=002669 GeodesicLength=0.7064895437575875 rxn_smarts="[C:1](/[N:2]=[C:3](\[N:4]([H:10])[H:11])[C:5](=[O:6])[H:12])([H:7])([H:8])[H:9]>>[C:1]([N:4]([H:10])[H:11])([H:7])([H:8])[H:9].[N:2]#[C:3][C:5](=[O:6])[H:12]"
C        1.70772111      -0.26139459       0.24745791
N        0.31601781       1.38070373       0.58866582
C       -0.64004968       0.65913578       0.33954104
N       -0.16359425      -0.87773886      -0.11846939
C       -1.94477096       0.92839404      -0.31930777
O       -2.86447904       0.15630309      -0.31466373
H        2.03808231      -0.89879896      -0.57355074
H        2.37779117       0.59215082       0.19819389
H        1.94560606      -0.70213165       1.21634492
H       -0.50407102      -1.28738623      -0.98070125
H       -0.32971193      -1.55409381       0.61637835
H       -1.93854158       1.86485665      -0.89988905
12
Frame=10 idx=002669 GeodesicLength=0.7859215844995193 rxn_smarts="[C:1](/[N:2]=[C:3](\[N:4]([H:10])[H:11])[C:5](=[O:6])[H:12])([H:7])([H:8])[H:9]>>[C:1]([N:4]([H:10])[H:11])([H:7])([H:8])[H:9].[N:2]#[C:3][C:5](=[O:6])[H:12]"
C        1.69370495      -0.25226314       0.24249191
N        0.31221808       1.38685728       0.60743296
C       -0.65255077       0.67521536       0.36983944
N       -0.17056107      -0.88541956      -0.10338481
C       -1.93783820       0.93205201      -0.33083240
O       -2.86880995       0.17473623      -0.30513309
H        2.01893597      -0.81702632      -0.63275213
H        2.37630300       0.59355222       0.26078565
H        1.95561542      -0.76831643       1.16848850
H       -0.52903254      -1.31160972      -0.94943062
H       -0.30041266      -1.55557227       0.64327296
H       -1.89757224       1.82779434      -0.97077837
12
Frame=11 idx=002669 GeodesicLength=0.8658290285879023 rxn_smarts="[C:1](/[N:2]=[C:3](\[N:4]([H:10])[H:11])[C:5](=[O:6])[H:12])([H:7])([H:8])[H:9]>>[C:1]([N:4]([H:10])[H:11])([H:7])([H:8])[H:9].[N:2]#[C:3][C:5](=[O:6])[H:12]"
C        1.67919045      -0.24333407       0.23849606
N        0.30849047       1.39316013       0.62671259
C       -0.66495893       0.69227128       0.39887648
N       -0.17751206      -0.89383275      -0.08744239
C       -1.92948573       0.93535157      -0.34352026
O       -2.87204481       0.19398873      -0.29972584
H        1.99541368      -0.73087092      -0.68584536
H        2.37311041       0.59037916       0.32143318
H        1.96696849      -0.83184723       1.11380185
H       -0.55310365      -1.33693780      -0.91651149
H       -0.27135647      -1.55649619       0.67021647
H       -1.85471186       1.78816808      -1.03649128
12
Frame=12 idx=002669 GeodesicLength=0.9464820880973118 rxn_smarts="[C:1](/[N:2]=[C:3](\[N:4]([H:10])[H:11])[C:5](=[O:6])[H:12])([H:7])([H:8])[H:9]>>[C:1]([N:4]([H:10])[H:11])([H:7])([H:8])[H:9].[N:2]#[C:3][C:5](=[O:6])[H:12]"
C        1.66391359      -0.23439248       0.23518287
N        0.30447365       1.39918434       0.64796698
C       -0.67752992       0.71013243       0.42721922
N       -0.18461506      -0.90309235      -0.07000809
C       -1.91927226       0.93828909      -0.35744702
O       -2.87390920       0.21425961      -0.29871182
H        1.96638575      -0.63935228      -0.73328928
H        2.36820644       0.58296581       0.38027709
H        1.97969669      -0.89285279       1.05061738
H       -0.57660615      -1.36347206      -0.88116006
H       -0.24248863      -1.55686899       0.69790526
H       -1.80825492       1.74519967      -1.09855253
12
Frame=13 idx=002669 GeodesicLength=1.0278389175077152 rxn_smarts="[C:1](/[N:2]=[C:3](\[N:4]([H:10])[H:11])[C:5](=[O:6])[H:12])([H:7])([H:8])[H:9]>>[C:1]([N:4]([H:10])[H:11])([H:7])([H:8])[H:9].[N:2]#[C:3][C:5](=[O:6])[H:12]"
C        1.64796678      -0.22597457       0.23242484
N        0.30047202       1.40509864       0.66997540
C       -0.69006211       0.72889092       0.45432088
N       -0.19165628      -0.91319270      -0.05180369
C       -1.90732301       0.94064228      -0.37248391
O       -2.87436071       0.23510149      -0.30145465
H        1.93342566      -0.54521916      -0.77318711
H        2.36164474       0.57137168       0.43636879
H        1.99267658      -0.94938469       0.98011251
H       -0.59939567      -1.39089199      -0.84420047
H       -0.21359540      -1.55687517       0.72546048
H       -1.75979259       1.70043328      -1.15553306
12
Frame=14 idx=002669 GeodesicLength=1.1102568016701146 rxn_smarts="[C:1](/[N:2]=[C:3](\[N:4]([H:10])[H:11])[C:5](=[O:6])[H:12])([H:7])([H:8])[H:9]>>[C:1]([N:4]([H:10])[H:11])([H:7])([H:8])[H:9].[N:2]#[C:3][C:5](=[O:6])[H:12]"
C        1.63115228      -0.21775308       0.22965382
N        0.29612285       1.41033635       0.69483713
C       -0.70292755       0.74819649       0.48100900
N       -0.19892126      -0.92447500      -0.03225609
C       -1.89315428       0.94248349      -0.38880560
O       -2.87320308       0.25664176      -0.30914740
H        1.89570092      -0.44878417      -0.80605035
H        2.35358115       0.55638440       0.48870585
H        2.00570225      -1.00041272       0.90158272
H       -0.62215592      -1.41965894      -0.80485947
H       -0.18431484      -1.55688900       0.75350219
H       -1.70758250       1.65393042      -1.20817179
12
Frame=15 idx=002669 GeodesicLength=1.1938615012178382 rxn_smarts="[C:1](/[N:2]=[C:3](\[N:4]([H:10])[H:11])[C:5](=[O:6])[H:12])([H:7])([H:8])[H:9]>>[C:1]([N:4]([H:10])[H:11])([H:7])([H:8])[H:9].[N:2]#[C:3][C:5](=[O:6])[H:12]"
C        1.61306526      -0.20984442       0.22643363
N        0.29092964       1.41423801       0.72340031
C       -0.71637722       0.76778179       0.50741015
N       -0.20642078      -0.93714525      -0.01104799
C       -1.87608723       0.94367773      -0.40658342
O       -2.86962858       0.27888762      -0.32277451
H        1.85267608      -0.35165168      -0.83173051
H        2.34367402       0.53845719       0.53583485
H        2.01829934      -1.04421124       0.81539410
H       -0.64484159      -1.44988159      -0.76259444
H       -0.15411129      -1.55703882       0.78202876
H       -1.65117765       1.60673067      -1.25577092
12
Frame=16 idx=002669 GeodesicLength=1.2787108256796675 rxn_smarts="[C:1](/[N:2]=[C:3](\[N:4]([H:10])[H:11])[C:5](=[O:6])[H:12])([H:7])([H:8])[H:9]>>[C:1]([N:4]([H:10])[H:11])([H:7])([H:8])[H:9].[N:2]#[C:3][C:5](=[O:6])[H:12]"
C        1.59401857      -0.20208207       0.22259463
N        0.28545099       1.41725398       0.75437089
C       -0.73013976       0.78786377       0.53333076
N       -0.21397649      -0.95097551       0.01089209
C       -1.85666938       0.94418638      -0.42493650
O       -2.86398101       0.30124201      -0.34074230
H        1.80616146      -0.25597784      -0.85006584
H        2.33288138       0.51804458       0.57779592
H        2.02837854      -1.07983658       0.72384497
H       -0.66775260      -1.48084721      -0.71852261
H       -0.12300908      -1.55760520       0.80978061
H       -1.59136263       1.55873368      -1.29834262
