13
Frame=0 idx=000812 GeodesicLength=0.0 rxn_smarts="[C:1]([C:2]([O:3][C:4](=[O:5])[N:6]([H:12])[H:13])([H:10])[H:11])([H:7])([H:8])[H:9]>>[C:1](=[C:2]([H:10])[H:11])([H:7])[H:9].[N:6]([H:8])([H:12])[H:13].[O:3]=[C:4]=[O:5]"
C       -1.38853075       0.32031493       0.41041878
C       -1.24316770      -0.39618658      -0.77121737
O        0.70269018      -0.60450997      -1.28194845
C        1.43569275      -0.65348154      -0.25378975
O        2.14416543      -1.51458760       0.20932383
N        1.26204624       0.59248472       0.53732194
H       -1.77367702       1.33351718       0.34381272
H       -0.05472249       0.55943175       0.63837941
H       -1.66462800      -0.23008260       1.30454146
H       -1.30145932      -1.47549119      -0.77826492
H       -1.38468492       0.07795600      -1.73155665
H        1.80122157       0.57827634       1.39442224
H        1.46505397       1.41235862      -0.02144319
13
Frame=1 idx=000812 GeodesicLength=0.10239232118710019 rxn_smarts="[C:1]([C:2]([O:3][C:4](=[O:5])[N:6]([H:12])[H:13])([H:10])[H:11])([H:7])([H:8])[H:9]>>[C:1](=[C:2]([H:10])[H:11])([H:7])[H:9].[N:6]([H:8])([H:12])[H:13].[O:3]=[C:4]=[O:5]"
C       -1.39949587       0.32640759       0.40655275
C       -1.24208394      -0.40635908      -0.76539604
O        0.70642762      -0.58526147      -1.29179118
C        1.45267104      -0.65159550      -0.27520087
O        2.14788564      -1.52749684       0.17598867
N        1.27913953       0.59625072       0.55021695
H       -1.77912018       1.34041357       0.32016659
H       -0.05753760       0.56009157       0.65791988
H       -1.71112787      -0.21062860       1.29727620
H       -1.30093443      -1.48603211      -0.75213679
H       -1.39736939       0.04654916      -1.73405861
H        1.82481238       0.56963215       1.40270637
H        1.47673305       1.42802883       0.00775607
13
Frame=2 idx=000812 GeodesicLength=0.2046299078891381 rxn_smarts="[C:1]([C:2]([O:3][C:4](=[O:5])[N:6]([H:12])[H:13])([H:10])[H:11])([H:7])([H:8])[H:9]>>[C:1](=[C:2]([H:10])[H:11])([H:7])[H:9].[N:6]([H:8])([H:12])[H:13].[O:3]=[C:4]=[O:5]"
C       -1.41063480       0.33266887       0.40252121
C       -1.24091863      -0.41692749      -0.75897091
O        0.70974734      -0.56505498      -1.30163825
C        1.46987090      -0.64899695      -0.29768242
O        2.15126101      -1.53979360       0.14110055
N        1.29649286       0.59969203       0.56354391
H       -1.78364700       1.34738061       0.29549122
H       -0.06073646       0.56031199       0.67831315
H       -1.75896864      -0.18992526       1.28838675
H       -1.29975565      -1.49659626      -0.72453117
H       -1.40995664       0.01351388      -1.73578401
H        1.84881199       0.56031670       1.41105400
H        1.48843371       1.44341047       0.03819595
13
Frame=3 idx=000812 GeodesicLength=0.3067061268329863 rxn_smarts="[C:1]([C:2]([O:3][C:4](=[O:5])[N:6]([H:12])[H:13])([H:10])[H:11])([H:7])([H:8])[H:9]>>[C:1](=[C:2]([H:10])[H:11])([H:7])[H:9].[N:6]([H:8])([H:12])[H:13].[O:3]=[C:4]=[O:5]"
C       -1.42195457       0.33905011       0.39834367
C       -1.23967320      -0.42783997      -0.75193909
O        0.71259389      -0.54402034      -1.31137581
C        1.48720893      -0.64571141      -0.32117952
O        2.15423467      -1.55140662       0.10475713
N        1.31409832       0.60281565       0.57724676
H       -1.78729717       1.35430080       0.26991248
H       -0.06437135       0.56018068       0.69952268
H       -1.80795276      -0.16810531       1.27773276
H       -1.29800950      -1.50708062      -0.69550600
H       -1.42224466      -0.02101615      -1.73665593
H        1.87320965       0.55041791       1.41938703
H        1.50015774       1.45841527       0.06975383
13
Frame=4 idx=000812 GeodesicLength=0.4086146311931578 rxn_smarts="[C:1]([C:2]([O:3][C:4](=[O:5])[N:6]([H:12])[H:13])([H:10])[H:11])([H:7])([H:8])[H:9]>>[C:1](=[C:2]([H:10])[H:11])([H:7])[H:9].[N:6]([H:8])([H:12])[H:13].[O:3]=[C:4]=[O:5]"
C       -1.43346972       0.34550975       0.39403704
C       -1.23834162      -0.43905586      -0.74427904
O        0.71490905      -0.52225345      -1.32090316
C        1.50460118      -0.64175574      -0.34565985
O        2.15677219      -1.56225969       0.06700808
N        1.33194994       0.60561355       0.59128557
H       -1.79010071       1.36106110       0.24350798
H       -0.06849834       0.55980346       0.72151463
H       -1.85791562      -0.14526863       1.26517492
H       -1.29575888      -1.51739602      -0.66507862
H       -1.43406314      -0.05693860      -1.73659915
H        1.89798839       0.53998185       1.42764636
H        1.51192727       1.47295828       0.10234524
13
Frame=5 idx=000812 GeodesicLength=0.510372571945318 rxn_smarts="[C:1]([C:2]([O:3][C:4](=[O:5])[N:6]([H:12])[H:13])([H:10])[H:11])([H:7])([H:8])[H:9]>>[C:1](=[C:2]([H:10])[H:11])([H:7])[H:9].[N:6]([H:8])([H:12])[H:13].[O:3]=[C:4]=[O:5]"
C       -1.44519205       0.35198526       0.38963806
C       -1.23693572      -0.45051073      -0.73600182
O        0.71667328      -0.49993350      -1.33011724
C        1.52195022      -0.63720657      -0.37103928
O        2.15885373      -1.57230005       0.02803056
N        1.35005476       0.60810601       0.60558667
H       -1.79215623       1.36752625       0.21646908
H       -0.07316336       0.55932083       0.74422507
H       -1.90864120      -0.12161863       1.25059898
H       -1.29315459      -1.52742793      -0.63338450
H       -1.44521781      -0.09403731      -1.73555284
H        1.92315077       0.52913935       1.43575422
H        1.52377820       1.48695703       0.13579303
13
Frame=6 idx=000812 GeodesicLength=0.6119557875043788 rxn_smarts="[C:1]([C:2]([O:3][C:4](=[O:5])[N:6]([H:12])[H:13])([H:10])[H:11])([H:7])([H:8])[H:9]>>[C:1](=[C:2]([H:10])[H:11])([H:7])[H:9].[N:6]([H:8])([H:12])[H:13].[O:3]=[C:4]=[O:5]"
C       -1.45714535       0.35842747       0.38517199
C       -1.23544436      -0.46214964      -0.72709215
O        0.71785062      -0.47717600      -1.33893705
C        1.53916962      -0.63210440      -0.39727280
O        2.16045604      -1.58148002      -0.01207742
N        1.36842029       0.61029062       0.62009984
H       -1.79354226       1.37357884       0.18890910
H       -0.07841854       0.55889175       0.76759791
H       -1.95993652      -0.09730917       1.23388829
H       -1.29028255      -1.53707993      -0.60047228
H       -1.45555785      -0.13216686      -1.73346083
H        1.94867253       0.51794054       1.44366287
H        1.53575833       1.50033681       0.16998252
13
Frame=7 idx=000812 GeodesicLength=0.7133779416623974 rxn_smarts="[C:1]([C:2]([O:3][C:4](=[O:5])[N:6]([H:12])[H:13])([H:10])[H:11])([H:7])([H:8])[H:9]>>[C:1](=[C:2]([H:10])[H:11])([H:7])[H:9].[N:6]([H:8])([H:12])[H:13].[O:3]=[C:4]=[O:5]"
C       -1.46935210       0.36476965       0.38068997
C       -1.23387080      -0.47390100      -0.71756699
O        0.71844926      -0.45414080      -1.34730270
C        1.55617241      -0.62654300      -0.42428446
O        2.16150358      -1.58981094      -0.05307700
N        1.38706354       0.61220079       0.63474852
H       -1.79440434       1.37909048       0.16103375
H       -0.08430522       0.55870259       0.79155829
H       -2.01154410      -0.07260254       1.21496800
H       -1.28728608      -1.54624833      -0.56650522
H       -1.46491503      -0.17108098      -1.73029192
H        1.97456663       0.50651966       1.45130522
H        1.54792224       1.51304441       0.20472454
13
Frame=8 idx=000812 GeodesicLength=0.8146265714083387 rxn_smarts="[C:1]([C:2]([O:3][C:4](=[O:5])[N:6]([H:12])[H:13])([H:10])[H:11])([H:7])([H:8])[H:9]>>[C:1](=[C:2]([H:10])[H:11])([H:7])[H:9].[N:6]([H:8])([H:12])[H:13].[O:3]=[C:4]=[O:5]"
C       -1.48185036       0.37098480       0.37621654
C       -1.23220090      -0.48572690      -0.70740038
O        0.71846786      -0.43090179      -1.35516815
C        1.57288259      -0.62055649      -0.45206076
O        2.16199263      -1.59725604      -0.09490535
N        1.40600912       0.61382243       0.64949556
H       -1.79481639       1.38397820       0.13293038
H       -0.09085747       0.55893229       0.81606942
H       -2.06334855      -0.04763753       1.19373231
H       -1.28422940      -1.55485991      -0.53150787
H       -1.47320461      -0.21068767      -1.72600811
H        2.00081968       0.49488717       1.45865550
H        1.56033579       1.52502144       0.23995091
13
Frame=9 idx=000812 GeodesicLength=0.915708183828088 rxn_smarts="[C:1]([C:2]([O:3][C:4](=[O:5])[N:6]([H:12])[H:13])([H:10])[H:11])([H:7])([H:8])[H:9]>>[C:1](=[C:2]([H:10])[H:11])([H:7])[H:9].[N:6]([H:8])([H:12])[H:13].[O:3]=[C:4]=[O:5]"
C       -1.49463963       0.37698824       0.37177702
C       -1.23043645      -0.49752478      -0.69671172
O        0.71799468      -0.40760337      -1.36254326
C        1.58932282      -0.61426693      -0.48045254
O        2.16180340      -1.60395548      -0.13714347
N        1.42532460       0.61519044       0.66426263
H       -1.79501795       1.38814947       0.10487186
H       -0.09819472       0.55968229       0.84105041
H       -2.11507070      -0.02268399       1.17023949
H       -1.28119717      -1.56283442      -0.49582341
H       -1.48047177      -0.25064632      -1.72057798
H        2.02756382       0.48328294       1.46564702
H        1.57301907       1.53622193       0.27540395
13
Frame=10 idx=000812 GeodesicLength=1.016627025058203 rxn_smarts="[C:1]([C:2]([O:3][C:4](=[O:5])[N:6]([H:12])[H:13])([H:10])[H:11])([H:7])([H:8])[H:9]>>[C:1](=[C:2]([H:10])[H:11])([H:7])[H:9].[N:6]([H:8])([H:12])[H:13].[O:3]=[C:4]=[O:5]"
C       -1.50779652       0.38280119       0.36739865
C       -1.22855580      -0.50928253      -0.68538184
O        0.71697281      -0.38431088      -1.36933371
C        1.60535433      -0.60770336      -0.50953972
O        2.16101381      -1.60982199      -0.17992551
N        1.44500212       0.61629447       0.67903198
H       -1.79496820       1.39158526       0.07684421
H       -0.10628429       0.56116393       0.86651992
H       -2.16668103       0.00209434       1.14433189
H       -1.27830273      -1.57011486      -0.45931886
H       -1.48649287      -0.29096111      -1.71400674
H        2.05471063       0.47161050       1.47227418
H        1.58602775       1.54664503       0.31110557
13
Frame=11 idx=000812 GeodesicLength=1.1174232307426526 rxn_smarts="[C:1]([C:2]([O:3][C:4](=[O:5])[N:6]([H:12])[H:13])([H:10])[H:11])([H:7])([H:8])[H:9]>>[C:1](=[C:2]([H:10])[H:11])([H:7])[H:9].[N:6]([H:8])([H:12])[H:13].[O:3]=[C:4]=[O:5]"
C       -1.52135545       0.38838687       0.36309091
C       -1.22654840      -0.52095221      -0.67342466
O        0.71543966      -0.36110098      -1.37552395
C        1.62094002      -0.60094651      -0.53930095
O        2.15956067      -1.61492461      -0.22309666
N        1.46507678       0.61716448       0.69376652
H       -1.79478920       1.39423642       0.04896500
H       -0.11518553       0.56351444       0.89245142
H       -2.21798982       0.02650370       1.11603046
H       -1.27563291      -1.57666130      -0.42212335
H       -1.49118957      -0.33145146      -1.70629538
H        2.08227881       0.45993880       1.47851441
H        1.59939494       1.55629236       0.34694623
13
Frame=12 idx=000812 GeodesicLength=1.218081177544764 rxn_smarts="[C:1]([C:2]([O:3][C:4](=[O:5])[N:6]([H:12])[H:13])([H:10])[H:11])([H:7])([H:8])[H:9]>>[C:1](=[C:2]([H:10])[H:11])([H:7])[H:9].[N:6]([H:8])([H:12])[H:13].[O:3]=[C:4]=[O:5]"
C       -1.53535460       0.39372445       0.35883420
C       -1.22438951      -0.53249140      -0.66081458
O        0.71340966      -0.33801711      -1.38109718
C        1.63603753      -0.59403398      -0.56975748
O        2.15743967      -1.61927815      -0.26661302
N        1.48557332       0.61778530       0.70844558
H       -1.79454534       1.39607070       0.02128286
H       -0.12496034       0.56685990       0.91884794
H       -2.26889997       0.05043104       1.08531580
H       -1.27323061      -1.58242713      -0.38426325
H       -1.49450487      -0.37203674      -1.69743145
H        2.11028332       0.44826027       1.48435086
H        1.61314175       1.56515285       0.38289973
13
Frame=13 idx=000812 GeodesicLength=1.3186239948939438 rxn_smarts="[C:1]([C:2]([O:3][C:4](=[O:5])[N:6]([H:12])[H:13])([H:10])[H:11])([H:7])([H:8])[H:9]>>[C:1](=[C:2]([H:10])[H:11])([H:7])[H:9].[N:6]([H:8])([H:12])[H:13].[O:3]=[C:4]=[O:5]"
C       -1.54983374       0.39881069       0.35463500
C       -1.22208012      -0.54386106      -0.64756958
O        0.71092558      -0.31511432      -1.38605065
C        1.65061732      -0.58703693      -0.60089654
O        2.15463323      -1.62294310      -0.31034975
N        1.50653240       0.61816944       0.72304134
H       -1.79431946       1.39710469      -0.00610145
H       -0.13566629       0.57128994       0.94571679
H       -2.31928428       0.07369523       1.05219787
H       -1.27116936      -1.58739467      -0.34584933
H       -1.49641753      -0.41258899      -1.68743629
H        2.13877976       0.43663479       1.48976967
H        1.62728249       1.57323429       0.41889291
13
Frame=14 idx=000812 GeodesicLength=1.4190548558894935 rxn_smarts="[C:1]([C:2]([O:3][C:4](=[O:5])[N:6]([H:12])[H:13])([H:10])[H:11])([H:7])([H:8])[H:9]>>[C:1](=[C:2]([H:10])[H:11])([H:7])[H:9].[N:6]([H:8])([H:12])[H:13].[O:3]=[C:4]=[O:5]"
C       -1.56484525       0.40366383       0.35045552
C       -1.21959679      -0.55505827      -0.63362153
O        0.70798169      -0.29234155      -1.39039179
C        1.66463358      -0.57993075      -0.63281023
O        2.15113452      -1.62589385      -0.35439054
N        1.52797352       0.61826714       0.73756880
H       -1.79410141       1.39733340      -0.03325311
H       -0.14738244       0.57691833       0.97308155
H       -2.36907453       0.09626521       1.01659125
H       -1.26942273      -1.59153566      -0.30677506
H       -1.49690186      -0.45316267      -1.67625059
H        2.16776956       0.42496833       1.49478003
H        1.64183214       1.58050652       0.45501569
13
Frame=15 idx=000812 GeodesicLength=1.5194027620757207 rxn_smarts="[C:1]([C:2]([O:3][C:4](=[O:5])[N:6]([H:12])[H:13])([H:10])[H:11])([H:7])([H:8])[H:9]>>[C:1](=[C:2]([H:10])[H:11])([H:7])[H:9].[N:6]([H:8])([H:12])[H:13].[O:3]=[C:4]=[O:5]"
C       -1.58043660       0.40830109       0.34627090
C       -1.21693467      -0.56605421      -0.61897009
O        0.70461416      -0.26970623      -1.39412484
C        1.67805044      -0.57275287      -0.66552711
O        2.14690845      -1.62817619      -0.39867267
N        1.54993473       0.61807026       0.75201818
H       -1.79395051       1.39679659      -0.06013135
H       -0.16018337       0.58383246       1.00095522
H       -2.41813137       0.11798621       0.97850111
H       -1.26802134      -1.59482971      -0.26708486
H       -1.49594796      -0.49370579      -1.66387701
H        2.19729934       0.41327469       1.49937995
H        1.65679871       1.58696370       0.49126258
13
Frame=16 idx=000812 GeodesicLength=1.619674918292246 rxn_smarts="[C:1]([C:2]([O:3][C:4](=[O:5])[N:6]([H:12])[H:13])([H:10])[H:11])([H:7])([H:8])[H:9]>>[C:1](=[C:2]([H:10])[H:11])([H:7])[H:9].[N:6]([H:8])([H:12])[H:13].[O:3]=[C:4]=[O:5]"
C       -1.59666039       0.41277186       0.34201841
C       -1.21409025      -0.57685997      -0.60353421
O        0.70080081      -0.24714127      -1.39726040
C        1.69081909      -0.56544990      -0.69914979
O        2.14201602      -1.62972754      -0.44334773
N        1.57243678       0.61750645       0.76641395
H       -1.79381893       1.39553037      -0.08683568
H       -0.17417340       0.59212719       1.02936673
H       -2.46639663       0.13885754       0.93780914
H       -1.26692447      -1.59724573      -0.22661916
H       -1.49356439      -0.53434647      -1.65022485
H        2.22737606       0.40142401       1.50358980
H        1.67217970       1.59255345       0.52777377
