12
Frame=0 idx=001325 GeodesicLength=0.0 rxn_smarts="[C:1]([C@@:2]1([H:10])[C:3]([H:11])([H:12])[O:4][C:5]1=[O:6])([H:7])([H:8])[H:9]>>[C:1]([C:2]([C:3](=[O:4])[H:12])([C:5](=[O:6])[H:10])[H:11])([H:7])([H:8])[H:9]"
C        1.53639970      -0.16017323       0.09815534
C        0.07798331      -0.02302411       0.03079113
C       -0.89104665       0.99126570       0.39299298
O       -2.02448562       0.50682896      -0.13473397
C       -0.89269776      -0.93325140      -0.59094740
O       -0.96810137      -1.58184389      -1.59891634
H        2.00485273       0.58717264       0.73576595
H        1.76342256      -1.15727759       0.48600668
H        1.96110052      -0.12891144      -0.91018968
H       -1.28009296      -1.29193665       0.43322767
H       -0.39815812       1.72815982      -0.32550080
H       -0.88917639       1.46299119       1.38334847
12
Frame=1 idx=001325 GeodesicLength=0.09216411375668966 rxn_smarts="[C:1]([C@@:2]1([H:10])[C:3]([H:11])([H:12])[O:4][C:5]1=[O:6])([H:7])([H:8])[H:9]>>[C:1]([C:2]([C:3](=[O:4])[H:12])([C:5](=[O:6])[H:10])[H:11])([H:7])([H:8])[H:9]"
C        1.52803719      -0.16219897       0.09976821
C        0.06814109      -0.02284038       0.03670269
C       -0.89900537       1.00042844       0.39051790
O       -2.03301670       0.51451536      -0.13089602
C       -0.90274830      -0.92846025      -0.59365916
O       -0.95688177      -1.60148043      -1.58554485
H        1.98885579       0.54606770       0.78589705
H        1.76495513      -1.17865452       0.42550363
H        1.95763671      -0.06335163      -0.90186327
H       -1.25475810      -1.28372583       0.46094689
H       -0.37394681       1.69989543      -0.36411257
H       -0.88726887       1.47980509       1.37673950
12
Frame=2 idx=001325 GeodesicLength=0.1844299073506041 rxn_smarts="[C:1]([C@@:2]1([H:10])[C:3]([H:11])([H:12])[O:4][C:5]1=[O:6])([H:7])([H:8])[H:9]>>[C:1]([C:2]([C:3](=[O:4])[H:12])([C:5](=[O:6])[H:10])[H:11])([H:7])([H:8])[H:9]"
C        1.51989352      -0.16420297       0.10088103
C        0.05857139      -0.02228167       0.04144425
C       -0.90647496       1.00989341       0.38756539
O       -2.04110704       0.52276788      -0.12773888
C       -0.91279554      -0.92407062      -0.59615585
O       -0.94586675      -1.62061635      -1.57144202
H        1.97267664       0.50316537       0.83206774
H        1.76635885      -1.19570711       0.36528725
H        1.95471153      -0.00017303      -0.88962734
H       -1.22946788      -1.27458080       0.48801249
H       -0.35096563       1.67127225      -0.40105810
H       -0.88553411       1.49453363       1.37076404
12
Frame=3 idx=001325 GeodesicLength=0.2775931416813314 rxn_smarts="[C:1]([C@@:2]1([H:10])[C:3]([H:11])([H:12])[O:4][C:5]1=[O:6])([H:7])([H:8])[H:9]>>[C:1]([C:2]([C:3](=[O:4])[H:12])([C:5](=[O:6])[H:10])[H:11])([H:7])([H:8])[H:9]"
C        1.51195901      -0.16613701       0.10152966
C        0.04924150      -0.02138147       0.04518813
C       -0.91343475       1.01984199       0.38443483
O       -2.04877437       0.53163243      -0.12519454
C       -0.92292940      -0.92018529      -0.59881936
O       -0.93500256      -1.63952366      -1.55733255
H        1.95648112       0.45963613       0.87395253
H        1.76756193      -1.20874468       0.30653730
H        1.95221214       0.05981263      -0.87428045
H       -1.20434269      -1.26502445       0.51435262
H       -0.32904754       1.64279973      -0.43652527
H       -0.88392439       1.50727366       1.36615711
12
Frame=4 idx=001325 GeodesicLength=0.369679958415732 rxn_smarts="[C:1]([C@@:2]1([H:10])[C:3]([H:11])([H:12])[O:4][C:5]1=[O:6])([H:7])([H:8])[H:9]>>[C:1]([C:2]([C:3](=[O:4])[H:12])([C:5](=[O:6])[H:10])[H:11])([H:7])([H:8])[H:9]"
C        1.50428817      -0.16806491       0.10172339
C        0.04022134      -0.02018024       0.04793491
C       -0.92005072       1.02967616       0.38050824
O       -2.05604603       0.54078259      -0.12336314
C       -0.93284969      -0.91651213      -0.60069451
O       -0.92465122      -1.65750368      -1.54149322
H        1.93986933       0.41335257       0.91306791
H        1.76893175      -1.21809573       0.24669412
H        1.95042290       0.11876807      -0.85494467
H       -1.17904997      -1.25394825       0.54037170
H       -0.30841095       1.61338016      -0.47082362
H       -0.88267492       1.51834539       1.36101889
12
Frame=5 idx=001325 GeodesicLength=0.46199504355479004 rxn_smarts="[C:1]([C@@:2]1([H:10])[C:3]([H:11])([H:12])[O:4][C:5]1=[O:6])([H:7])([H:8])[H:9]>>[C:1]([C:2]([C:3](=[O:4])[H:12])([C:5](=[O:6])[H:10])[H:11])([H:7])([H:8])[H:9]"
C        1.49687848      -0.16988366       0.10150347
C        0.03146432      -0.01872060       0.04989867
C       -0.92623881       1.03970990       0.37614054
O       -2.06293175       0.55026889      -0.12223534
C       -0.94273943      -0.91333648      -0.60226483
O       -0.91481215      -1.67521048      -1.52488480
H        1.92307610       0.36530955       0.94901782
H        1.77036458      -1.22380502       0.18683315
H        1.94919227       0.17601673      -0.83220098
H       -1.15387109      -1.24210783       0.56607294
H       -0.28874125       1.58370252      -0.50417085
H       -0.88164127       1.52805648       1.35629020
12
Frame=6 idx=001325 GeodesicLength=0.5542834628703358 rxn_smarts="[C:1]([C@@:2]1([H:10])[C:3]([H:11])([H:12])[O:4][C:5]1=[O:6])([H:7])([H:8])[H:9]>>[C:1]([C:2]([C:3](=[O:4])[H:12])([C:5](=[O:6])[H:10])[H:11])([H:7])([H:8])[H:9]"
C        1.48966532      -0.17173275       0.10081660
C        0.02295784      -0.01701305       0.05110004
C       -0.93216991       1.04991002       0.37127571
O       -2.06943866       0.56019019      -0.12168046
C       -0.95238738      -0.91048228      -0.60332002
O       -0.90514039      -1.69248786      -1.50708727
H        1.90577686       0.31501609       0.98178432
H        1.77198869      -1.22600591       0.12641855
H        1.94852407       0.23163341      -0.80581502
H       -1.12850580      -1.22919143       0.59155235
H       -0.27018789       1.55357558      -0.53666080
H       -0.88108274       1.53658799       1.35161599
12
Frame=7 idx=001325 GeodesicLength=0.6467759783280755 rxn_smarts="[C:1]([C@@:2]1([H:10])[C:3]([H:11])([H:12])[O:4][C:5]1=[O:6])([H:7])([H:8])[H:9]>>[C:1]([C:2]([C:3](=[O:4])[H:12])([C:5](=[O:6])[H:10])[H:11])([H:7])([H:8])[H:9]"
C        1.48269748      -0.17340085       0.09979331
C        0.01468651      -0.01515092       0.05188388
C       -0.93767053       1.06027008       0.36618703
O       -2.07552341       0.57037859      -0.12194629
C       -0.96198055      -0.90815673      -0.60426990
O       -0.89599703      -1.70955177      -1.48894057
H        1.88860273       0.26372031       1.01118219
H        1.77362444      -1.22476418       0.06671810
H        1.94797742       0.28506509      -0.77657418
H       -1.10329996      -1.21580329       0.61667798
H       -0.25241181       1.52334008      -0.56825935
H       -0.88070528       1.54405358       1.34754780
12
Frame=8 idx=001325 GeodesicLength=0.7393436209211491 rxn_smarts="[C:1]([C@@:2]1([H:10])[C:3]([H:11])([H:12])[O:4][C:5]1=[O:6])([H:7])([H:8])[H:9]>>[C:1]([C:2]([C:3](=[O:4])[H:12])([C:5](=[O:6])[H:10])[H:11])([H:7])([H:8])[H:9]"
C        1.47597078      -0.17498495       0.09838070
C        0.00663093      -0.01314567       0.05227964
C       -0.94289765       1.07074387       0.36081389
O       -2.08124818       0.58090042      -0.12296077
C       -0.97140048      -0.90620781      -0.60492541
O       -0.88710164      -1.72631662      -1.47001237
H        1.87138399       0.21098223       1.03722322
H        1.77535800      -1.22018135       0.00720372
H        1.94764377       0.33650578      -0.74429418
H       -1.07815225      -1.20168355       0.64157144
H       -0.23541943       1.49281189      -0.59903781
H       -0.88076782       1.55057575       1.34375793
12
Frame=9 idx=001325 GeodesicLength=0.8319627757421637 rxn_smarts="[C:1]([C@@:2]1([H:10])[C:3]([H:11])([H:12])[O:4][C:5]1=[O:6])([H:7])([H:8])[H:9]>>[C:1]([C:2]([C:3](=[O:4])[H:12])([C:5](=[O:6])[H:10])[H:11])([H:7])([H:8])[H:9]"
C        1.46946358      -0.17648202       0.09658565
C       -0.00122721      -0.01102950       0.05240273
C       -0.94787432       1.08130635       0.35518227
O       -2.08659365       0.59174474      -0.12476904
C       -0.98061484      -0.90461198      -0.60527932
O       -0.87837119      -1.74283309      -1.45023625
H        1.85414600       0.15681130       1.05987584
H        1.77716000      -1.21227819      -0.05220151
H        1.94738705       0.38595481      -0.70899869
H       -1.05306655      -1.18681306       0.66628578
H       -0.21909769       1.46193722      -0.62902469
H       -0.88131118       1.55629343       1.34017723
12
Frame=10 idx=001325 GeodesicLength=0.9246110474552343 rxn_smarts="[C:1]([C@@:2]1([H:10])[C:3]([H:11])([H:12])[O:4][C:5]1=[O:6])([H:7])([H:8])[H:9]>>[C:1]([C:2]([C:3](=[O:4])[H:12])([C:5](=[O:6])[H:10])[H:11])([H:7])([H:8])[H:9]"
C        1.46317397      -0.17786853       0.09443223
C       -0.00890594      -0.00883954       0.05238817
C       -0.95260581       1.09193734       0.34930881
O       -2.09155167       0.60288940      -0.12745398
C       -0.98962198      -0.90336190      -0.60534867
O       -0.86977251      -1.75915062      -1.42958301
H        1.83700792       0.10121056       1.07912606
H        1.77900188      -1.20102877      -0.11150237
H        1.94700601       0.43341402      -0.67073240
H       -1.02806790      -1.17121209       0.69087164
H       -0.20333359       1.43066872      -0.65825272
H       -0.88233039       1.56134141       1.33674624
12
Frame=11 idx=001325 GeodesicLength=1.0172943809462176 rxn_smarts="[C:1]([C@@:2]1([H:10])[C:3]([H:11])([H:12])[O:4][C:5]1=[O:6])([H:7])([H:8])[H:9]>>[C:1]([C:2]([C:3](=[O:4])[H:12])([C:5](=[O:6])[H:10])[H:11])([H:7])([H:8])[H:9]"
C        1.45709607      -0.17914630       0.09192111
C       -0.01642359      -0.00659939       0.05234562
C       -0.95712158       1.10261952       0.34323115
O       -2.09611060       0.61433626      -0.13108808
C       -0.99839376      -0.90243210      -0.60515346
O       -0.86119928      -1.77531518      -1.40798779
H        1.82006344       0.04425843       1.09485407
H        1.78081133      -1.18642223      -0.17067856
H        1.94635802       0.47878065      -0.62956624
H       -1.00319706      -1.15487354       0.71536863
H       -0.18798631       1.39897840      -0.68668592
H       -0.88389668       1.56581548       1.33343948
12
Frame=12 idx=001325 GeodesicLength=1.1100121172002086 rxn_smarts="[C:1]([C@@:2]1([H:10])[C:3]([H:11])([H:12])[O:4][C:5]1=[O:6])([H:7])([H:8])[H:9]>>[C:1]([C:2]([C:3](=[O:4])[H:12])([C:5](=[O:6])[H:10])[H:11])([H:7])([H:8])[H:9]"
C        1.45122523      -0.18032037       0.08906134
C       -0.02379589      -0.00432608       0.05237630
C       -0.96145199       1.11333412       0.33699454
O       -2.10025773       0.62608813      -0.13574799
C       -1.00689887      -0.90178833      -0.60473135
O       -0.85254133      -1.79132691      -1.38541973
H        1.80342483      -0.01388493       1.10692828
H        1.78250415      -1.16846260      -0.22960428
H        1.94526932       0.52185471      -0.58565564
H       -0.97847245      -1.13779905       0.73980265
H       -0.17292639       1.36685470      -0.71425978
H       -0.88607889       1.56977659       1.33025567
12
Frame=13 idx=001325 GeodesicLength=1.202763898113202 rxn_smarts="[C:1]([C@@:2]1([H:10])[C:3]([H:11])([H:12])[O:4][C:5]1=[O:6])([H:7])([H:8])[H:9]>>[C:1]([C:2]([C:3](=[O:4])[H:12])([C:5](=[O:6])[H:10])[H:11])([H:7])([H:8])[H:9]"
C        1.44555629      -0.18139963       0.08586189
C       -0.03103643      -0.00202769       0.05256569
C       -0.96562743       1.12405377       0.33066080
O       -2.10397585       0.63814195      -0.14150360
C       -1.01510336      -0.90138341      -0.60414321
O       -0.84368399      -1.80715184      -1.36187130
H        1.78721436      -0.07294946       1.11520825
H        1.78396328      -1.14719774      -0.28804518
H        1.94357566       0.56236252      -0.53925819
H       -0.95391001      -1.11999457       0.76417510
H       -0.15802027       1.33430470      -0.74087484
H       -0.88895225       1.57324142       1.32722460
12
Frame=14 idx=001325 GeodesicLength=1.29555195444916 rxn_smarts="[C:1]([C@@:2]1([H:10])[C:3]([H:11])([H:12])[O:4][C:5]1=[O:6])([H:7])([H:8])[H:9]>>[C:1]([C:2]([C:3](=[O:4])[H:12])([C:5](=[O:6])[H:10])[H:11])([H:7])([H:8])[H:9]"
C        1.44008534      -0.18239652       0.08234283
C       -0.03815536       0.00029621       0.05298016
C       -0.96968150       1.13475226       0.32431860
O       -2.10724870       0.65049492      -0.14840595
C       -1.02297001      -0.90116369      -0.60348084
O       -0.83451593      -1.82270893      -1.33741065
H        1.77155651      -0.13251864       1.11960691
H        1.78506346      -1.12278509      -0.34561406
H        1.94111388       0.59995607      -0.49081867
H       -0.92950281      -1.10149156       0.78846313
H       -0.14315224       1.30137593      -0.76640585
H       -0.89259264       1.57618902       1.32442440
12
Frame=15 idx=001325 GeodesicLength=1.3883821212634553 rxn_smarts="[C:1]([C@@:2]1([H:10])[C:3]([H:11])([H:12])[O:4][C:5]1=[O:6])([H:7])([H:8])[H:9]>>[C:1]([C:2]([C:3](=[O:4])[H:12])([C:5](=[O:6])[H:10])[H:11])([H:7])([H:8])[H:9]"
C        1.43480788      -0.18332911       0.07852533
C       -0.04515915       0.00265671       0.05365178
C       -0.97364998       1.14539304       0.31808087
O       -2.11006110       0.66313637      -0.15647459
C       -1.03046216      -0.90105933      -0.60286723
O       -0.82494568      -1.83788761      -1.31214464
H        1.75655610      -0.19204453       1.12010552
H        1.78566147      -1.09551074      -0.40182191
H        1.93777937       0.63428222      -0.44092236
H       -0.90522870      -1.08233223       0.81261327
H       -0.12822251       1.26814787      -0.79071605
H       -0.89707553       1.57854732       1.32197001
12
Frame=16 idx=001325 GeodesicLength=1.481254010078534 rxn_smarts="[C:1]([C@@:2]1([H:10])[C:3]([H:11])([H:12])[O:4][C:5]1=[O:6])([H:7])([H:8])[H:9]>>[C:1]([C:2]([C:3](=[O:4])[H:12])([C:5](=[O:6])[H:10])[H:11])([H:7])([H:8])[H:9]"
C        1.42971760      -0.18421959       0.07444347
C       -0.05205063       0.00507190       0.05457490
C       -0.97757071       1.15593227       0.31208927
O       -2.11240246       0.67605007      -0.16568111
C       -1.03754643      -0.90098858      -0.60245573
O       -0.81491195      -1.85252727      -1.28626423
H        1.74228097      -0.25083040       1.11681320
H        1.78562791      -1.06583375      -0.45606253
H        1.93351559       0.66499526      -0.39034305
H       -0.88102853      -1.06258292       0.83653959
H       -0.11316807       1.23473648      -0.81366985
H       -0.90246329       1.58019652       1.32001607
