16
Frame=0 idx=007534 GeodesicLength=0.0 rxn_smarts="[C:1]([O:2][C:3]([C@@:4]([C:5]([H:14])([H:15])[H:16])([C:6]#[N:7])[H:13])([H:11])[H:12])([H:8])([H:9])[H:10]>>[C:1]([O:2][C:3]([N:7]=[C:6]=[C:4]([C:5]([H:14])([H:15])[H:16])[H:13])([H:11])[H:12])([H:8])([H:9])[H:10]"
C        3.00857229      -0.18151959       0.71463144
O        2.15407322      -0.03341369      -0.42518190
C        0.90076589      -0.31562439      -0.25383932
C       -1.80112167       0.13820236       0.25463966
C       -2.50609339       0.99511839      -0.76184167
C       -1.43150566      -1.14585952      -0.02029440
N       -0.81180710      -2.11327061      -0.28120969
H        4.00377472       0.11244397       0.39462631
H        3.00831080      -1.22258936       1.03871754
H        2.66522755       0.46887057       1.52028289
H        0.54864588      -0.56370141       0.73017299
H        0.28767286      -0.19192349      -1.12397094
H       -1.95104222       0.37738884       1.30246163
H       -3.59556380       0.90059301      -0.69929704
H       -2.26458155       2.04896320      -0.61077584
H       -2.21532781       0.72632172      -1.77912161
16
Frame=1 idx=007534 GeodesicLength=0.06280989296523921 rxn_smarts="[C:1]([O:2][C:3]([C@@:4]([C:5]([H:14])([H:15])[H:16])([C:6]#[N:7])[H:13])([H:11])[H:12])([H:8])([H:9])[H:10]>>[C:1]([O:2][C:3]([N:7]=[C:6]=[C:4]([C:5]([H:14])([H:15])[H:16])[H:13])([H:11])[H:12])([H:8])([H:9])[H:10]"
C        3.00907918      -0.19599731       0.70435326
O        2.12516622       0.03494606      -0.39613131
C        0.87633095      -0.29282267      -0.22498994
C       -1.79143901       0.14891182       0.24957642
C       -2.50556488       0.98584751      -0.77810107
C       -1.43533860      -1.14472271      -0.00535641
N       -0.79047626      -2.10067689      -0.24970950
H        3.99491112       0.12794846       0.38372908
H        3.02376155      -1.25822917       0.95137674
H        2.68348676       0.38956080       1.56584429
H        0.55051674      -0.54007140       0.77021149
H        0.29117356      -0.18347820      -1.11844916
H       -1.95327407       0.39825731       1.29352654
H       -3.59396258       0.88719127      -0.70837514
H       -2.26480049       2.04230214      -0.64514808
H       -2.21957019       0.70103300      -1.79235720
16
Frame=2 idx=007534 GeodesicLength=0.12561038997928664 rxn_smarts="[C:1]([O:2][C:3]([C@@:4]([C:5]([H:14])([H:15])[H:16])([C:6]#[N:7])[H:13])([H:11])[H:12])([H:8])([H:9])[H:10]>>[C:1]([O:2][C:3]([N:7]=[C:6]=[C:4]([C:5]([H:14])([H:15])[H:16])[H:13])([H:11])[H:12])([H:8])([H:9])[H:10]"
C        3.00752731      -0.20702207       0.69290848
O        2.09538294       0.09665434      -0.36355988
C        0.85167133      -0.27527918      -0.19588331
C       -1.78187410       0.15772732       0.24491665
C       -2.50197848       0.97792886      -0.79310281
C       -1.44068241      -1.14512675       0.00813862
N       -0.77271215      -2.08994608      -0.22018724
H        3.98364879       0.14652902       0.37330531
H        3.03670337      -1.28371549       0.86632666
H        2.70000271       0.31354923       1.60204146
H        0.55156087      -0.52131021       0.80980423
H        0.29595897      -0.17777788      -1.11173567
H       -1.95564617       0.41600964       1.28511168
H       -3.58956008       0.87726719      -0.71775369
H       -2.26004821       2.03606950      -0.67602559
H       -2.21995468       0.67844258      -1.80430491
16
Frame=3 idx=007534 GeodesicLength=0.18853725167212457 rxn_smarts="[C:1]([O:2][C:3]([C@@:4]([C:5]([H:14])([H:15])[H:16])([C:6]#[N:7])[H:13])([H:11])[H:12])([H:8])([H:9])[H:10]>>[C:1]([O:2][C:3]([N:7]=[C:6]=[C:4]([C:5]([H:14])([H:15])[H:16])[H:13])([H:11])[H:12])([H:8])([H:9])[H:10]"
C        3.00459288      -0.21588255       0.68045102
O        2.06525145       0.15276787      -0.32802178
C        0.82692618      -0.26072419      -0.16615441
C       -1.77268848       0.16514634       0.24057402
C       -2.49644975       0.97072886      -0.80735301
C       -1.44683945      -1.14637527       0.02068608
N       -0.75708131      -2.08001758      -0.19188082
H        3.97082246       0.16639495       0.36331860
H        3.04714081      -1.30154008       0.78268393
H        2.71610828       0.23950723       1.63052411
H        0.55201075      -0.50517305       0.84927447
H        0.30197869      -0.17319286      -1.10338815
H       -1.95859091       0.43154193       1.27694158
H       -3.58340482       0.86934831      -0.72778658
H       -2.25223457       2.02988202      -0.70454316
H       -2.21754222       0.65758807      -1.81532589
16
Frame=4 idx=007534 GeodesicLength=0.25152532522118654 rxn_smarts="[C:1]([O:2][C:3]([C@@:4]([C:5]([H:14])([H:15])[H:16])([C:6]#[N:7])[H:13])([H:11])[H:12])([H:8])([H:9])[H:10]>>[C:1]([O:2][C:3]([N:7]=[C:6]=[C:4]([C:5]([H:14])([H:15])[H:16])[H:13])([H:11])[H:12])([H:8])([H:9])[H:10]"
C        3.00036848      -0.22277127       0.66726510
O        2.03533590       0.20263873      -0.29069577
C        0.80223446      -0.24883678      -0.13614913
C       -1.76378907       0.17124264       0.23657429
C       -2.48926010       0.96421735      -0.82076735
C       -1.45365513      -1.14839329       0.03216656
N       -0.74335772      -2.07086300      -0.16497966
H        3.95676328       0.18681463       0.35383102
H        3.05489462      -1.31235901       0.70180290
H        2.73155377       0.16863256       1.65144974
H        0.55202220      -0.49140363       0.88834535
H        0.30909521      -0.16927395      -1.09362055
H       -1.96187829       0.44489936       1.26908623
H       -3.57576492       0.86312355      -0.73822569
H       -2.24180790       2.02380722      -0.73062174
H       -2.21275480       0.63852490      -1.82546129
16
Frame=5 idx=007534 GeodesicLength=0.3147368948386816 rxn_smarts="[C:1]([O:2][C:3]([C@@:4]([C:5]([H:14])([H:15])[H:16])([C:6]#[N:7])[H:13])([H:11])[H:12])([H:8])([H:9])[H:10]>>[C:1]([O:2][C:3]([N:7]=[C:6]=[C:4]([C:5]([H:14])([H:15])[H:16])[H:13])([H:11])[H:12])([H:8])([H:9])[H:10]"
C        2.99518116      -0.22845041       0.65343505
O        2.00589781       0.24792369      -0.25186576
C        0.77768179      -0.23845546      -0.10585861
C       -1.75524042       0.17643110       0.23282117
C       -2.48101466       0.95794598      -0.83368741
C       -1.46068626      -1.15070045       0.04306933
N       -0.73071456      -2.06180607      -0.13871580
H        3.94183036       0.20727832       0.34517815
H        3.05995128      -1.31788940       0.62230491
H        2.74697995       0.09907282       1.66646946
H        0.55181210      -0.47857070       0.92710716
H        0.31716202      -0.16536093      -1.08230317
H       -1.96560643       0.45692011       1.26130906
H       -3.56717510       0.85777387      -0.74914835
H       -2.22980242       2.01751364      -0.75522677
H       -2.20625661       0.62037389      -1.83488842
16
Frame=6 idx=007534 GeodesicLength=0.3779853372747229 rxn_smarts="[C:1]([O:2][C:3]([C@@:4]([C:5]([H:14])([H:15])[H:16])([C:6]#[N:7])[H:13])([H:11])[H:12])([H:8])([H:9])[H:10]>>[C:1]([O:2][C:3]([N:7]=[C:6]=[C:4]([C:5]([H:14])([H:15])[H:16])[H:13])([H:11])[H:12])([H:8])([H:9])[H:10]"
C        2.98905387      -0.23304723       0.63922212
O        1.97748027       0.28802402      -0.21255473
C        0.75340632      -0.22936560      -0.07557079
C       -1.74693973       0.18071521       0.22938324
C       -2.47189103       0.95194776      -0.84598811
C       -1.46782216      -1.15335509       0.05320899
N       -0.71902812      -2.05293493      -0.11341167
H        3.92637790       0.22704429       0.33734440
H        3.06224531      -1.31860664       0.54558501
H        2.76178618       0.03223484       1.67551414
H        0.55148233      -0.46660231       0.96527834
H        0.32605233      -0.16108638      -1.06969766
H       -1.96955363       0.46746750       1.25377132
H       -3.55780941       0.85307516      -0.76032420
H       -2.21649835       2.01115353      -0.77810743
H       -2.19834208       0.60333587      -1.84365296
16
Frame=7 idx=007534 GeodesicLength=0.4412827939776847 rxn_smarts="[C:1]([O:2][C:3]([C@@:4]([C:5]([H:14])([H:15])[H:16])([C:6]#[N:7])[H:13])([H:11])[H:12])([H:8])([H:9])[H:10]>>[C:1]([O:2][C:3]([N:7]=[C:6]=[C:4]([C:5]([H:14])([H:15])[H:16])[H:13])([H:11])[H:12])([H:8])([H:9])[H:10]"
C        2.98206950      -0.23670274       0.62475421
O        1.95013401       0.32369743      -0.17315479
C        0.72947379      -0.22156336      -0.04549536
C       -1.73880434       0.18426486       0.22624484
C       -2.46203084       0.94616072      -0.85773370
C       -1.47501313      -1.15624728       0.06277726
N       -0.70825803      -2.04419016      -0.08883246
H        3.91047150       0.24627878       0.33056237
H        3.06221528      -1.31523231       0.47123651
H        2.77571828      -0.03224925       1.67949928
H        0.55115376      -0.45532388       1.00265976
H        0.33554920      -0.15659052      -1.05591731
H       -1.97351068       0.47691575       1.24642723
H       -3.54778122       0.84896594      -0.77160280
H       -2.20204939       2.00469504      -0.79961566
H       -2.18933770       0.58712098      -1.85180938
16
Frame=8 idx=007534 GeodesicLength=0.5045815595254551 rxn_smarts="[C:1]([O:2][C:3]([C@@:4]([C:5]([H:14])([H:15])[H:16])([C:6]#[N:7])[H:13])([H:11])[H:12])([H:8])([H:9])[H:10]>>[C:1]([O:2][C:3]([N:7]=[C:6]=[C:4]([C:5]([H:14])([H:15])[H:16])[H:13])([H:11])[H:12])([H:8])([H:9])[H:10]"
C        2.97431110      -0.23955409       0.61018509
O        1.92409204       0.35515588      -0.13418890
C        0.70595769      -0.21482439      -0.01585241
C       -1.73077515       0.18716350       0.22341530
C       -2.45159440       0.94055581      -0.86892575
C       -1.48216999      -1.15938294       0.07176798
N       -0.69827750      -2.03565105      -0.06496828
H        3.89438345       0.26466022       0.32484549
H        3.05986307      -1.30826914       0.39968097
H        2.78856176      -0.09412380       1.67882608
H        0.55090572      -0.44455758       1.03916449
H        0.34553522      -0.15168365      -1.04122470
H       -1.97735137       0.48536128       1.23935683
H       -3.53723722       0.84523575      -0.78284937
H       -2.18672867       1.99821385      -0.81978585
H       -2.17947576       0.57170035      -1.85944698
16
Frame=9 idx=007534 GeodesicLength=0.5679626502105743 rxn_smarts="[C:1]([O:2][C:3]([C@@:4]([C:5]([H:14])([H:15])[H:16])([C:6]#[N:7])[H:13])([H:11])[H:12])([H:8])([H:9])[H:10]>>[C:1]([O:2][C:3]([N:7]=[C:6]=[C:4]([C:5]([H:14])([H:15])[H:16])[H:13])([H:11])[H:12])([H:8])([H:9])[H:10]"
C        2.96578317      -0.24136005       0.59561488
O        1.89891904       0.38315132      -0.09582961
C        0.68284518      -0.20985054       0.01303008
C       -1.72269771       0.18953321       0.22084495
C       -2.44044212       0.93519572      -0.87956575
C       -1.48956347      -1.16270230       0.08039628
N       -0.68959593      -2.02748722      -0.04159014
H        3.87775421       0.28318136       0.32057630
H        3.05597012      -1.29776878       0.33038013
H        2.80020122      -0.15395336       1.67427645
H        0.55082605      -0.43474204       1.07448937
H        0.35574806      -0.14721157      -1.02586173
H       -1.98069371       0.49320951       1.23247430
H       -3.52603804       0.84232862      -0.79378666
H       -2.17009065       1.99166235      -0.83894747
H       -2.16892544       0.55681376      -1.86650138
16
Frame=10 idx=007534 GeodesicLength=0.631306941709039 rxn_smarts="[C:1]([O:2][C:3]([C@@:4]([C:5]([H:14])([H:15])[H:16])([C:6]#[N:7])[H:13])([H:11])[H:12])([H:8])([H:9])[H:10]>>[C:1]([O:2][C:3]([N:7]=[C:6]=[C:4]([C:5]([H:14])([H:15])[H:16])[H:13])([H:11])[H:12])([H:8])([H:9])[H:10]"
C        2.95667946      -0.24260804       0.58112809
O        1.87512459       0.40782128      -0.05839484
C        0.66022540      -0.20567576       0.04125247
C       -1.71466405       0.19142513       0.21854240
C       -2.42895638       0.92993512      -0.88971183
C       -1.49683514      -1.16616033       0.08856871
N       -0.68154856      -2.01948896      -0.01876900
H        3.86122842       0.30063143       0.31748906
H        3.05016818      -1.28455983       0.26380105
H        2.81059103      -0.21138098       1.66605229
H        0.55094215      -0.42514171       1.10877633
H        0.36620100      -0.14230351      -1.00986730
H       -1.98377293       0.50035255       1.22584200
H       -3.51453415       0.83958442      -0.80454336
H       -2.15294348       1.98506959      -0.85704081
H       -2.15790552       0.54249960      -1.87312527
16
Frame=11 idx=007534 GeodesicLength=0.6946093593422349 rxn_smarts="[C:1]([O:2][C:3]([C@@:4]([C:5]([H:14])([H:15])[H:16])([C:6]#[N:7])[H:13])([H:11])[H:12])([H:8])([H:9])[H:10]>>[C:1]([O:2][C:3]([N:7]=[C:6]=[C:4]([C:5]([H:14])([H:15])[H:16])[H:13])([H:11])[H:12])([H:8])([H:9])[H:10]"
C        2.94708286      -0.24341489       0.56678717
O        1.85268931       0.42967434      -0.02196593
C        0.63811222      -0.20216398       0.06876487
C       -1.70666617       0.19292394       0.21647190
C       -2.41724685       0.92471507      -0.89940332
C       -1.50393296      -1.16968200       0.09635246
N       -0.67403152      -2.01154726       0.00357650
H        3.84491183       0.31692744       0.31560087
H        3.04270146      -1.26904684       0.19972651
H        2.81971814      -0.26666927       1.65468437
H        0.55130361      -0.41557395       1.14192601
H        0.37677812      -0.13698606      -0.99330367
H       -1.98657474       0.50692409       1.21940192
H       -3.50281978       0.83691103      -0.81506893
H       -2.13545610       1.97838338      -0.87422085
H       -2.14656942       0.52862494      -1.87932987
16
Frame=12 idx=007534 GeodesicLength=0.7578430096037829 rxn_smarts="[C:1]([O:2][C:3]([C@@:4]([C:5]([H:14])([H:15])[H:16])([C:6]#[N:7])[H:13])([H:11])[H:12])([H:8])([H:9])[H:10]>>[C:1]([O:2][C:3]([N:7]=[C:6]=[C:4]([C:5]([H:14])([H:15])[H:16])[H:13])([H:11])[H:12])([H:8])([H:9])[H:10]"
C        2.93706385      -0.24378737       0.55267022
O        1.83157130       0.44892509       0.01325118
C        0.61651694      -0.19937081       0.09544369
C       -1.69866579       0.19405767       0.21461751
C       -2.40534713       0.91957296      -0.90863017
C       -1.51089279      -1.17329410       0.10374453
N       -0.66710354      -2.00379235       0.02544065
H        3.82888409       0.33210064       0.31484570
H        3.03378663      -1.25146529       0.13835315
H        2.82747786      -0.31963231       1.64047398
H        0.55193007      -0.40614344       1.17389336
H        0.38738255      -0.13136860      -0.97636607
H       -1.98900764       0.51297861       1.21318630
H       -3.49092428       0.83434014      -0.82527535
H       -2.11766104       1.97167048      -0.89049488
H       -2.13501109       0.51520868      -1.88515380
16
Frame=13 idx=007534 GeodesicLength=0.82107035465013 rxn_smarts="[C:1]([O:2][C:3]([C@@:4]([C:5]([H:14])([H:15])[H:16])([C:6]#[N:7])[H:13])([H:11])[H:12])([H:8])([H:9])[H:10]>>[C:1]([O:2][C:3]([N:7]=[C:6]=[C:4]([C:5]([H:14])([H:15])[H:16])[H:13])([H:11])[H:12])([H:8])([H:9])[H:10]"
C        2.92656620      -0.24311456       0.53884470
O        1.81107403       0.46568350       0.04705700
C        0.59537702      -0.19856705       0.12097441
C       -1.69047435       0.19483548       0.21297876
C       -2.39288752       0.91476928      -0.91731803
C       -1.51830241      -1.17707860       0.11087777
N       -0.66177909      -1.99678249       0.04687880
H        3.81256422       0.34759352       0.31536050
H        3.02438030      -1.23136362       0.07963400
H        2.83382161      -0.36998581       1.62381647
H        0.55283720      -0.39800358       1.20440124
H        0.39777042      -0.12679000      -0.95937228
H       -1.99055784       0.51878703       1.20720802
H       -3.47850588       0.83275275      -0.83486148
H       -2.09862437       1.96501390      -0.90597154
H       -2.12325952       0.50225025      -1.89050832
16
Frame=14 idx=007534 GeodesicLength=0.8842142888481994 rxn_smarts="[C:1]([O:2][C:3]([C@@:4]([C:5]([H:14])([H:15])[H:16])([C:6]#[N:7])[H:13])([H:11])[H:12])([H:8])([H:9])[H:10]>>[C:1]([O:2][C:3]([N:7]=[C:6]=[C:4]([C:5]([H:14])([H:15])[H:16])[H:13])([H:11])[H:12])([H:8])([H:9])[H:10]"
C        2.91578669      -0.24202478       0.52532558
O        1.79168224       0.48040730       0.07955521
C        0.57474094      -0.19852215       0.14561153
C       -1.68225351       0.19531945       0.21151135
C       -2.38029975       0.91005517      -0.92557440
C       -1.52566741      -1.18090782       0.11766832
N       -0.65713808      -1.99001661       0.06786901
H        3.79659478       0.36208297       0.31687298
H        3.01398820      -1.20962301       0.02351233
H        2.83889608      -0.41804983       1.60500943
H        0.55402871      -0.39009745       1.23364263
H        0.40803315      -0.12218008      -0.94218060
H       -1.99166245       0.52421414       1.20141734
H       -3.46595922       0.83132345      -0.84406085
H       -2.07931920       1.95832757      -0.92066550
H       -2.11145118       0.48969166      -1.89551436
16
Frame=15 idx=007534 GeodesicLength=0.9472965308523582 rxn_smarts="[C:1]([O:2][C:3]([C@@:4]([C:5]([H:14])([H:15])[H:16])([C:6]#[N:7])[H:13])([H:11])[H:12])([H:8])([H:9])[H:10]>>[C:1]([O:2][C:3]([N:7]=[C:6]=[C:4]([C:5]([H:14])([H:15])[H:16])[H:13])([H:11])[H:12])([H:8])([H:9])[H:10]"
C        2.90469825      -0.23998130       0.51212910
O        1.77272776       0.49311406       0.11065202
C        0.55452627      -0.20033472       0.16917109
C       -1.67386810       0.19549603       0.21023199
C       -2.36723981       0.90567847      -0.93335168
C       -1.53354911      -1.18487743       0.12422497
N       -0.65411042      -1.98404036       0.08848273
H        3.78047742       0.37678356       0.31933170
H        3.00343024      -1.18584171      -0.03006914
H        2.84278760      -0.46335877       1.58439049
H        0.55548153      -0.38349411       1.26142967
H        0.41799209      -0.11874219      -0.92502137
H       -1.99192579       0.52947201       1.19585495
H       -3.45296602       0.83084155      -0.85268437
H       -2.05889766       1.95171080      -0.93464232
H       -2.09956424       0.47757411      -1.90012984
16
Frame=16 idx=007534 GeodesicLength=1.0104375117776296 rxn_smarts="[C:1]([O:2][C:3]([C@@:4]([C:5]([H:14])([H:15])[H:16])([C:6]#[N:7])[H:13])([H:11])[H:12])([H:8])([H:9])[H:10]>>[C:1]([O:2][C:3]([N:7]=[C:6]=[C:4]([C:5]([H:14])([H:15])[H:16])[H:13])([H:11])[H:12])([H:8])([H:9])[H:10]"
C        2.89321788      -0.23595987       0.49925771
O        1.75306125       0.50351534       0.14013959
C        0.53457946      -0.20604187       0.19138831
C       -1.66508141       0.19528606       0.20919051
C       -2.35303062       0.90211292      -0.94054817
C       -1.54300857      -1.18918354       0.13068777
N       -0.65443760      -1.97991926       0.10881329
H        3.76328501       0.39383351       0.32252813
H        2.99386790      -1.15915452      -0.08094532
H        2.84579946      -0.50467963       1.56222257
H        0.55712195      -0.38022684       1.28752757
H        0.42740080      -0.11863308      -0.90823765
H       -1.99064535       0.53486200       1.19062270
H       -3.43889213       0.83276597      -0.86044762
H       -2.03575775       1.94535402      -0.94791486
H       -2.08748030       0.46606879      -1.90428452
