7
Frame=0 idx=002514 GeodesicLength=0.0 rxn_smarts="[O:1]([c:2]1[n:3][o:4][n:5][n:6]1)[H:7]>>[N:5]#[N:6].[O:1]([C:2]#[N+:3][O-:4])[H:7]"
O        1.59503733      -0.31866067      -0.59193123
C        0.40419657      -0.26210125      -0.06438047
N       -0.35086349      -0.96933807       0.60841390
O       -1.53605051      -0.79745824       0.88721184
N       -1.68766915       1.01924317      -0.16476824
N       -0.63607491       1.07611772      -0.55517115
H        2.21142413       0.25219735      -0.11937466
7
Frame=1 idx=002514 GeodesicLength=0.036929940641416886 rxn_smarts="[O:1]([c:2]1[n:3][o:4][n:5][n:6]1)[H:7]>>[N:5]#[N:6].[O:1]([C:2]#[N+:3][O-:4])[H:7]"
O        1.59769648      -0.31678548      -0.59676441
C        0.40496140      -0.26040994      -0.07121377
N       -0.34136241      -0.96644020       0.61166299
O       -1.53078931      -0.79235757       0.88551754
N       -1.70002591       1.01439266      -0.16342611
N       -0.64775840       1.08535548      -0.55816641
H        2.21727815       0.23624506      -0.10760983
7
Frame=2 idx=002514 GeodesicLength=0.07401003383061674 rxn_smarts="[O:1]([c:2]1[n:3][o:4][n:5][n:6]1)[H:7]>>[N:5]#[N:6].[O:1]([C:2]#[N+:3][O-:4])[H:7]"
O        1.60043281      -0.31468732      -0.60141070
C        0.40591384      -0.25836482      -0.07758897
N       -0.33189849      -0.96360504       0.61444068
O       -1.52541233      -0.78714031       0.88397565
N       -1.71249187       1.00937831      -0.16217291
N       -0.65976955       1.09464886      -0.56122237
H        2.22322558       0.21977031      -0.09602139
7
Frame=3 idx=002514 GeodesicLength=0.11065008414710369 rxn_smarts="[O:1]([c:2]1[n:3][o:4][n:5][n:6]1)[H:7]>>[N:5]#[N:6].[O:1]([C:2]#[N+:3][O-:4])[H:7]"
O        1.60397257      -0.31104151      -0.60562509
C        0.40655285      -0.25706674      -0.08588156
N       -0.32401606      -0.96445206       0.61080773
O       -1.51745922      -0.77782919       0.88891798
N       -1.72538740       1.00327144      -0.16253084
N       -0.67198582       1.10403806      -0.56409917
H        2.22832308       0.20307999      -0.08158905
7
Frame=4 idx=002514 GeodesicLength=0.14732409143108033 rxn_smarts="[O:1]([c:2]1[n:3][o:4][n:5][n:6]1)[H:7]>>[N:5]#[N:6].[O:1]([C:2]#[N+:3][O-:4])[H:7]"
O        1.60686294      -0.30828001      -0.60984952
C        0.40784608      -0.25431166      -0.09140486
N       -0.31484626      -0.96209119       0.61226723
O       -1.51168320      -0.77200473       0.88815932
N       -1.73805604       0.99767738      -0.16191142
N       -0.68435732       1.11343967      -0.56687888
H        2.23423380       0.18557055      -0.07038186
7
Frame=5 idx=002514 GeodesicLength=0.1845259801589119 rxn_smarts="[O:1]([c:2]1[n:3][o:4][n:5][n:6]1)[H:7]>>[N:5]#[N:6].[O:1]([C:2]#[N+:3][O-:4])[H:7]"
O        1.60996364      -0.30508435      -0.61388538
C        0.40930287      -0.25127686      -0.09677699
N       -0.30596604      -0.96046228       0.61232624
O       -1.50537618      -0.76539497       0.88865735
N       -1.75106835       0.99158428      -0.16183534
N       -0.69702866       1.12319502      -0.56957239
H        2.24017272       0.16743915      -0.05891350
7
Frame=6 idx=002514 GeodesicLength=0.22106683365717936 rxn_smarts="[O:1]([c:2]1[n:3][o:4][n:5][n:6]1)[H:7]>>[N:5]#[N:6].[O:1]([C:2]#[N+:3][O-:4])[H:7]"
O        1.61347629      -0.30194034      -0.61705763
C        0.41089089      -0.24845665      -0.10198630
N       -0.29720321      -0.95887665       0.61224399
O       -1.49943169      -0.75914665       0.88818260
N       -1.76289385       0.98727007      -0.15907113
N       -0.71046108       1.13101582      -0.57470992
H        2.24562266       0.15013441      -0.04760161
7
Frame=7 idx=002514 GeodesicLength=0.25793133227391585 rxn_smarts="[O:1]([c:2]1[n:3][o:4][n:5][n:6]1)[H:7]>>[N:5]#[N:6].[O:1]([C:2]#[N+:3][O-:4])[H:7]"
O        1.61704065      -0.29779942      -0.62038637
C        0.41267800      -0.24490284      -0.10691044
N       -0.28882274      -0.95826580       0.61028555
O       -1.49255717      -0.75161222       0.88983077
N       -1.77564404       0.98149736      -0.15818298
N       -0.72405714       1.13984854      -0.57878211
H        2.25136243       0.13123439      -0.03585442
7
Frame=8 idx=002514 GeodesicLength=0.29487606746558376 rxn_smarts="[O:1]([c:2]1[n:3][o:4][n:5][n:6]1)[H:7]>>[N:5]#[N:6].[O:1]([C:2]#[N+:3][O-:4])[H:7]"
O        1.62052029      -0.29531287      -0.62291577
C        0.41496317      -0.24097828      -0.10979555
N       -0.27951652      -0.95497630       0.61273005
O       -1.48816524      -0.74768825       0.88572214
N       -1.78692664       0.97824678      -0.15363972
N       -0.73814152       1.14704673      -0.58520907
H        2.25726646       0.11366219      -0.02689208
7
Frame=9 idx=002514 GeodesicLength=0.33137126045721543 rxn_smarts="[O:1]([c:2]1[n:3][o:4][n:5][n:6]1)[H:7]>>[N:5]#[N:6].[O:1]([C:2]#[N+:3][O-:4])[H:7]"
O        1.62427485      -0.29129031      -0.62545750
C        0.41729656      -0.23661131      -0.11324343
N       -0.27110127      -0.95384291       0.61111021
O       -1.48187304      -0.74074597       0.88585482
N       -1.79927760       0.97302002      -0.15162337
N       -0.75239591       1.15500518      -0.59014643
H        2.26307640       0.09446530      -0.01649430
7
Frame=10 idx=002514 GeodesicLength=0.3680964368863729 rxn_smarts="[O:1]([c:2]1[n:3][o:4][n:5][n:6]1)[H:7]>>[N:5]#[N:6].[O:1]([C:2]#[N+:3][O-:4])[H:7]"
O        1.62791529      -0.28785917      -0.62778910
C        0.41999387      -0.23173315      -0.11538377
N       -0.26228873      -0.95156856       0.61145987
O       -1.47660376      -0.73533589       0.88375134
N       -1.81140640       0.96819112      -0.14915536
N       -0.76675061       1.16303473      -0.59521224
H        2.26914033       0.07527091      -0.00767074
7
Frame=11 idx=002514 GeodesicLength=0.4048117007542556 rxn_smarts="[O:1]([c:2]1[n:3][o:4][n:5][n:6]1)[H:7]>>[N:5]#[N:6].[O:1]([C:2]#[N+:3][O-:4])[H:7]"
O        1.63181020      -0.28444211      -0.62959857
C        0.42289781      -0.22671054      -0.11710951
N       -0.25350007      -0.94921349       0.61184169
O       -1.47164683      -0.73035055       0.88080874
N       -1.82292313       0.96442469      -0.14498468
N       -0.78169630       1.16999954      -0.60185086
H        2.27505830       0.05629246       0.00089320
7
Frame=12 idx=002514 GeodesicLength=0.4415331658818711 rxn_smarts="[O:1]([c:2]1[n:3][o:4][n:5][n:6]1)[H:7]>>[N:5]#[N:6].[O:1]([C:2]#[N+:3][O-:4])[H:7]"
O        1.63564590      -0.28091261      -0.63134869
C        0.42610832      -0.22101206      -0.11795771
N       -0.24465291      -0.94658067       0.61243028
O       -1.46680837      -0.72548460       0.87762243
N       -1.83479326       0.96004325      -0.14165413
N       -0.79674480       1.17742523      -0.60779483
H        2.28124511       0.03652146       0.00870265
7
Frame=13 idx=002514 GeodesicLength=0.4782569428260424 rxn_smarts="[O:1]([c:2]1[n:3][o:4][n:5][n:6]1)[H:7]>>[N:5]#[N:6].[O:1]([C:2]#[N+:3][O-:4])[H:7]"
O        1.63947748      -0.27724180      -0.63293737
C        0.42962981      -0.21465544      -0.11793550
N       -0.23571906      -0.94361486       0.61331814
O       -1.46217374      -0.72092982       0.87384907
N       -1.84675672       0.95554843      -0.13837083
N       -0.81209882       1.18482596      -0.61377810
H        2.28764105       0.01606754       0.01585458
7
Frame=14 idx=002514 GeodesicLength=0.515042437687262 rxn_smarts="[O:1]([c:2]1[n:3][o:4][n:5][n:6]1)[H:7]>>[N:5]#[N:6].[O:1]([C:2]#[N+:3][O-:4])[H:7]"
O        1.64341460      -0.27286099      -0.63443460
C        0.43343220      -0.20753638      -0.11732653
N       -0.22701268      -0.94117386       0.61298922
O       -1.45697289      -0.71549325       0.87136384
N       -1.85941400       0.94995812      -0.13653094
N       -0.82770196       1.19284216      -0.61893852
H        2.29425473      -0.00573580       0.02287753
7
Frame=15 idx=002514 GeodesicLength=0.5519016239340165 rxn_smarts="[O:1]([c:2]1[n:3][o:4][n:5][n:6]1)[H:7]>>[N:5]#[N:6].[O:1]([C:2]#[N+:3][O-:4])[H:7]"
O        1.64802777      -0.26734602      -0.63517770
C        0.43724835      -0.20071300      -0.11749721
N       -0.21919360      -0.94105769       0.60897997
O       -1.45045448      -0.70785235       0.87189782
N       -1.87182779       0.94453637      -0.13412297
N       -0.84391076       1.20005317      -0.62536235
H        2.30011051      -0.02762049       0.03128243
7
Frame=16 idx=002514 GeodesicLength=0.588433992966872 rxn_smarts="[O:1]([c:2]1[n:3][o:4][n:5][n:6]1)[H:7]>>[N:5]#[N:6].[O:1]([C:2]#[N+:3][O-:4])[H:7]"
O        1.65224653      -0.26205053      -0.63591110
C        0.44162647      -0.19243991      -0.11555472
N       -0.21067044      -0.93874789       0.60782581
O       -1.44524084      -0.70233984       0.86916736
N       -1.88416854       0.93926836      -0.13129231
N       -0.86043437       1.20705146      -0.63189413
H        2.30664119      -0.05074165       0.03765908
