12
Frame=0 idx=004260 GeodesicLength=0.0 rxn_smarts="[O:1]([C:2]([C@@:3]([O:4][H:11])([C:5](=[O:6])[H:12])[H:10])([H:8])[H:9])[H:7]>>[O:1]([C:2]([C@@:3]1([H:10])[O:4][C@@:5]1([O:6][H:11])[H:12])([H:8])[H:9])[H:7]"
O       -1.76200735       0.69736382      -0.11323204
C       -1.20052244      -0.52396896       0.29874038
C        0.27110029      -0.54470470      -0.10072472
O        0.47303724      -0.12531528      -1.39183347
C        0.99941296       0.60547008       0.48788257
O        2.15488096       0.89079566       0.03537218
H       -1.39171148       0.84118712      -0.99735541
H       -1.69653231      -1.37901635      -0.17602906
H       -1.32705031      -0.61089964       1.38248845
H        0.72860553      -1.51596417       0.17555087
H        2.15191821       0.35071775      -0.81478977
H        0.59886866       1.31433472       1.21392997
12
Frame=1 idx=004260 GeodesicLength=0.07894114884924384 rxn_smarts="[O:1]([C:2]([C@@:3]([O:4][H:11])([C:5](=[O:6])[H:12])[H:10])([H:8])[H:9])[H:7]>>[O:1]([C:2]([C@@:3]1([H:10])[O:4][C@@:5]1([O:6][H:11])[H:12])([H:8])[H:9])[H:7]"
O       -1.76553778       0.69631876      -0.11205816
C       -1.20238132      -0.52508980       0.29703085
C        0.27127248      -0.54580459      -0.09051965
O        0.48683571      -0.11866567      -1.37936243
C        1.00131643       0.60917073       0.48496605
O        2.16275824       0.88443438       0.03790630
H       -1.39921196       0.84393124      -0.99671018
H       -1.69471038      -1.37884422      -0.18400920
H       -1.33413143      -0.61619358       1.37968585
H        0.72998645      -1.51556877       0.18497262
H        2.14214994       0.34976628      -0.83477423
H        0.60165361       1.31654524       1.21287218
12
Frame=2 idx=004260 GeodesicLength=0.1578816765553263 rxn_smarts="[O:1]([C:2]([C@@:3]([O:4][H:11])([C:5](=[O:6])[H:12])[H:10])([H:8])[H:9])[H:7]>>[O:1]([C:2]([C@@:3]1([H:10])[O:4][C@@:5]1([O:6][H:11])[H:12])([H:8])[H:9])[H:7]"
O       -1.76920515       0.69524677      -0.11068802
C       -1.20413875      -0.52620353       0.29526843
C        0.27145633      -0.54660453      -0.08047479
O        0.50018613      -0.11207830      -1.36709348
C        1.00321248       0.61306025       0.48187528
O        2.17039333       0.87860079       0.04021414
H       -1.40707776       0.84682120      -0.99589762
H       -1.69267625      -1.37864263      -0.19208313
H       -1.34103976      -0.62171002       1.37677863
H        0.73142401      -1.51486882       0.19422625
H        2.13305149       0.34759407      -0.85392197
H        0.60441390       1.31878474       1.21179629
12
Frame=3 idx=004260 GeodesicLength=0.23681860145081055 rxn_smarts="[O:1]([C:2]([C@@:3]([O:4][H:11])([C:5](=[O:6])[H:12])[H:10])([H:8])[H:9])[H:7]>>[O:1]([C:2]([C@@:3]1([H:10])[O:4][C@@:5]1([O:6][H:11])[H:12])([H:8])[H:9])[H:7]"
O       -1.77299926       0.69414219      -0.10912446
C       -1.20579620      -0.52730673       0.29345528
C        0.27165214      -0.54710779      -0.07057772
O        0.51312032      -0.10553685      -1.35501981
C        1.00509410       0.61713668       0.47861384
O        2.17781350       0.87329998       0.04237197
H       -1.41529502       0.84984848      -0.99491314
H       -1.69043253      -1.37840050      -0.20024414
H       -1.34778416      -0.62744374       1.37376314
H        0.73291394      -1.51386362       0.20331977
H        2.12458116       0.34419940      -0.87234329
H        0.60713200       1.32103249       1.21069856
12
Frame=4 idx=004260 GeodesicLength=0.315741428691346 rxn_smarts="[O:1]([C:2]([C@@:3]([O:4][H:11])([C:5](=[O:6])[H:12])[H:10])([H:8])[H:9])[H:7]>>[O:1]([C:2]([C@@:3]1([H:10])[O:4][C@@:5]1([O:6][H:11])[H:12])([H:8])[H:9])[H:7]"
O       -1.77692696       0.69300998      -0.10737657
C       -1.20735566      -0.52839756       0.29159136
C        0.27186310      -0.54732387      -0.06082048
O        0.52565861      -0.09903071      -1.34314411
C        1.00696135       0.62139954       0.47519021
O        2.18505588       0.86851450       0.04445972
H       -1.42387479       0.85301050      -0.99376527
H       -1.68798272      -1.37812061      -0.20849256
H       -1.35436250      -0.63338502       1.37064333
H        0.73446258      -1.51256882       0.21225786
H        2.11669818       0.33959389      -0.89013510
H        0.60980292       1.32329821       1.20959159
12
Frame=5 idx=004260 GeodesicLength=0.3946354426292453 rxn_smarts="[O:1]([C:2]([C@@:3]([O:4][H:11])([C:5](=[O:6])[H:12])[H:10])([H:8])[H:9])[H:7]>>[O:1]([C:2]([C@@:3]1([H:10])[O:4][C@@:5]1([O:6][H:11])[H:12])([H:8])[H:9])[H:7]"
O       -1.78098256       0.69184716      -0.10545038
C       -1.20881749      -0.52947307       0.28967829
C        0.27209001      -0.54725865      -0.05119486
O        0.53782572      -0.09254706      -1.33146153
C        1.00881068       0.62584394       0.47160918
O        2.19214956       0.86422175       0.04654578
H       -1.43281117       0.85629799      -0.99245491
H       -1.68532892      -1.37779732      -0.21682167
H       -1.36077715      -0.63952504       1.36741849
H        0.73606612      -1.51099023       0.22104373
H        2.10935780       0.33380315      -0.90738293
H        0.61241740       1.32557737       1.20847081
12
Frame=6 idx=004260 GeodesicLength=0.47358761312504893 rxn_smarts="[O:1]([C:2]([C@@:3]([O:4][H:11])([C:5](=[O:6])[H:12])[H:10])([H:8])[H:9])[H:7]>>[O:1]([C:2]([C@@:3]1([H:10])[O:4][C@@:5]1([O:6][H:11])[H:12])([H:8])[H:9])[H:7]"
O       -1.78515917       0.69064776      -0.10335349
C       -1.21018089      -0.53052849       0.28771530
C        0.27233636      -0.54691643      -0.04169204
O        0.54964855      -0.08607284      -1.31996567
C        1.01064215       0.63046454       0.46787450
O        2.19912046       0.86040661       0.04869985
H       -1.44209702       0.85969649      -0.99097957
H       -1.68247275      -1.37742095      -0.22522562
H       -1.36702942      -0.64585130       1.36407962
H        0.73772415      -1.50913137       0.22968125
H        2.10249986       0.32683997      -0.92417619
H        0.61496772       1.32786603       1.20734206
12
Frame=7 idx=004260 GeodesicLength=0.5525198241524855 rxn_smarts="[O:1]([C:2]([C@@:3]([O:4][H:11])([C:5](=[O:6])[H:12])[H:10])([H:8])[H:9])[H:7]>>[O:1]([C:2]([C@@:3]1([H:10])[O:4][C@@:5]1([O:6][H:11])[H:12])([H:8])[H:9])[H:7]"
O       -1.78945632       0.68941917      -0.10107737
C       -1.21144735      -0.53156648       0.28570383
C        0.27260407      -0.54630700      -0.03229989
O        0.56114497      -0.07960633      -1.30865386
C        1.01245816       0.63525917       0.46399923
O        2.20599317       0.85703915       0.05096524
H       -1.45173707       0.86321622      -0.98933300
H       -1.67941486      -1.37698476      -0.23372671
H       -1.37312313      -0.65238186       1.36063206
H        0.73943705      -1.50700563       0.23819014
H        2.09609201       0.31873375      -0.94056998
H        0.61744930       1.33018459       1.20617031
12
Frame=8 idx=004260 GeodesicLength=0.631413487907239 rxn_smarts="[O:1]([C:2]([C@@:3]([O:4][H:11])([C:5](=[O:6])[H:12])[H:10])([H:8])[H:9])[H:7]>>[O:1]([C:2]([C@@:3]1([H:10])[O:4][C@@:5]1([O:6][H:11])[H:12])([H:8])[H:9])[H:7]"
O       -1.79386490       0.68815469      -0.09862211
C       -1.21261665      -0.53258761       0.28364252
C        0.27289492      -0.54543865      -0.02300436
O        0.57233876      -0.07314589      -1.29751169
C        1.01426510       0.64021309       0.45998668
O        2.21281178       0.85403104       0.05341339
H       -1.46172183       0.86684711      -0.98750549
H       -1.67615276      -1.37648066      -0.24233050
H       -1.37906664      -0.65912162       1.35706509
H        0.74119580      -1.50461862       0.24659032
H        2.09005919       0.30957510      -0.95664625
H        0.61985723       1.33257203       1.20492239
12
Frame=9 idx=004260 GeodesicLength=0.7103295942933735 rxn_smarts="[O:1]([C:2]([C@@:3]([O:4][H:11])([C:5](=[O:6])[H:12])[H:10])([H:8])[H:9])[H:7]>>[O:1]([C:2]([C@@:3]1([H:10])[O:4][C@@:5]1([O:6][H:11])[H:12])([H:8])[H:9])[H:7]"
O       -1.79838372       0.68685809      -0.09599247
C       -1.21368702      -0.53358661       0.28152943
C        0.27321254      -0.54431508      -0.01380055
O        0.58325095      -0.06667943      -1.28654078
C        1.01606368       0.64532806       0.45585084
O        2.21956287       0.85143962       0.05605541
H       -1.47205043       0.87059445      -0.98549593
H       -1.67268644      -1.37590171      -0.25103960
H       -1.38485668      -0.66606269       1.35337670
H        0.74300847      -1.50197892       0.25487914
H        2.08437599       0.29930543      -0.97243928
H        0.62218978       1.33499879       1.20361708
12
Frame=10 idx=004260 GeodesicLength=0.7892301258213192 rxn_smarts="[O:1]([C:2]([C@@:3]([O:4][H:11])([C:5](=[O:6])[H:12])[H:10])([H:8])[H:9])[H:7]>>[O:1]([C:2]([C@@:3]1([H:10])[O:4][C@@:5]1([O:6][H:11])[H:12])([H:8])[H:9])[H:7]"
O       -1.80300359       0.68552397      -0.09318843
C       -1.21465835      -0.53456432       0.27936440
C        0.27355826      -0.54294323      -0.00467677
O        0.59390443      -0.06020768      -1.27572719
C        1.01786162       0.65058780       0.45159446
O        2.22628834       0.84917243       0.05895293
H       -1.48271458       0.87444417      -0.98329776
H       -1.66901320      -1.37523949      -0.25986024
H       -1.39050219      -0.67321043       1.34955872
H        0.74486630      -1.49909008       0.26307505
H        2.07896932       0.28802021      -0.98801842
H        0.62444364       1.33750665       1.20222326
12
Frame=11 idx=004260 GeodesicLength=0.8681332595619281 rxn_smarts="[O:1]([C:2]([C@@:3]([O:4][H:11])([C:5](=[O:6])[H:12])[H:10])([H:8])[H:9])[H:7]>>[O:1]([C:2]([C@@:3]1([H:10])[O:4][C@@:5]1([O:6][H:11])[H:12])([H:8])[H:9])[H:7]"
O       -1.80771690       0.68415753      -0.09020745
C       -1.21552775      -0.53551874       0.27714551
C        0.27393622      -0.54133105       0.00437301
O        0.60432157      -0.05372367      -1.26506922
C        1.01966268       0.65598631       0.44723747
O        2.23297442       0.84727535       0.06211320
H       -1.49370657       0.87840520      -0.98090246
H       -1.66513593      -1.37448275      -0.26880265
H       -1.39599808      -0.68056834       1.34560727
H        0.74677215      -1.49596630       0.27117896
H        2.07380443       0.27568004      -1.00340594
H        0.62661376       1.34008642       1.20073229
12
Frame=12 idx=004260 GeodesicLength=0.9470290979303471 rxn_smarts="[O:1]([C:2]([C@@:3]([O:4][H:11])([C:5](=[O:6])[H:12])[H:10])([H:8])[H:9])[H:7]>>[O:1]([C:2]([C@@:3]1([H:10])[O:4][C@@:5]1([O:6][H:11])[H:12])([H:8])[H:9])[H:7]"
O       -1.81251672       0.68275673      -0.08705068
C       -1.21629362      -0.53644894       0.27487129
C        0.27434859      -0.53948437       0.01335944
O        0.61452249      -0.04722859      -1.25455711
C        1.02147642       0.66151387       0.44278562
O        2.23964803       0.84569341       0.06557977
H       -1.50502088       0.88247229      -0.97830468
H       -1.66104842      -1.37362401      -0.27787649
H       -1.40134945      -0.68814120       1.34151494
H        0.74872291      -1.49261251       0.27920903
H        2.06881519       0.26233907      -1.01865760
H        0.62869545       1.34276424       1.19912648
12
Frame=13 idx=004260 GeodesicLength=1.0259278028635725 rxn_smarts="[O:1]([C:2]([C@@:3]([O:4][H:11])([C:5](=[O:6])[H:12])[H:10])([H:8])[H:9])[H:7]>>[O:1]([C:2]([C@@:3]1([H:10])[O:4][C@@:5]1([O:6][H:11])[H:12])([H:8])[H:9])[H:7]"
O       -1.81739213       0.68132093      -0.08372511
C       -1.21695265      -0.53735003       0.27254034
C        0.27479885      -0.53741090       0.02228633
O        0.62453094      -0.04071691      -1.24418332
C        1.02330790       0.66715440       0.43825399
O        2.24630700       0.84443475       0.06937530
H       -1.51664736       0.88663638      -0.97550308
H       -1.65675326      -1.37265129      -0.28707807
H       -1.40655320      -0.69591967       1.33727424
H        0.75071836      -1.48903748       0.28716402
H        2.06394936       0.24800375      -1.03380909
H        0.63068621       1.34553605       1.19740445
12
Frame=14 idx=004260 GeodesicLength=1.1048216441190934 rxn_smarts="[O:1]([C:2]([C@@:3]([O:4][H:11])([C:5](=[O:6])[H:12])[H:10])([H:8])[H:9])[H:7]>>[O:1]([C:2]([C@@:3]1([H:10])[O:4][C@@:5]1([O:6][H:11])[H:12])([H:8])[H:9])[H:7]"
O       -1.82233777       0.67985124      -0.08022265
C       -1.21750252      -0.53822341       0.27014928
C        0.27529024      -0.53511488       0.03116430
O        0.63436806      -0.03418756      -1.23393975
C        1.02516635       0.67290289       0.43365527
O        2.25296057       0.84348944       0.07351972
H       -1.52858090       0.89090624      -0.97248318
H       -1.65224253      -1.37155487      -0.29643008
H       -1.41161151      -0.70392118       1.33287660
H        0.75275796      -1.48524768       0.29506006
H        2.05915165       0.23267240      -1.04889198
H        0.63258039       1.34842737       1.19554240
12
Frame=15 idx=004260 GeodesicLength=1.1837161296829612 rxn_smarts="[O:1]([C:2]([C@@:3]([O:4][H:11])([C:5](=[O:6])[H:12])[H:10])([H:8])[H:9])[H:7]>>[O:1]([C:2]([C@@:3]1([H:10])[O:4][C@@:5]1([O:6][H:11])[H:12])([H:8])[H:9])[H:7]"
O       -1.82734579       0.67834625      -0.07653880
C       -1.21793968      -0.53906837       0.26769262
C        0.27582625      -0.53259951       0.04000404
O        0.64405449      -0.02764075      -1.22381560
C        1.02706126       0.67875231       0.42899853
O        2.25961449       0.84285157       0.07803138
H       -1.54081420       0.89528596      -0.96922982
H       -1.64750695      -1.37032104      -0.30595289
H       -1.41652688      -0.71215966       1.32830642
H        0.75484221      -1.48124316       0.30292008
H        2.05436011       0.21634221      -1.06394301
H        0.63437467       1.35145418       1.19352704
12
Frame=16 idx=004260 GeodesicLength=1.2626086503297125 rxn_smarts="[O:1]([C:2]([C@@:3]([O:4][H:11])([C:5](=[O:6])[H:12])[H:10])([H:8])[H:9])[H:7]>>[O:1]([C:2]([C@@:3]1([H:10])[O:4][C@@:5]1([O:6][H:11])[H:12])([H:8])[H:9])[H:7]"
O       -1.83240634       0.67680511      -0.07267458
C       -1.21825961      -0.53988324       0.26516876
C        0.27641060      -0.52987393       0.04880920
O        0.65361566      -0.02107147      -1.21380183
C        1.02900083       0.68468451       0.42430569
O        2.26626818       0.84252861       0.08293452
H       -1.55333326       0.89977639      -0.96573375
H       -1.64254615      -1.36893854      -0.31564985
H       -1.42129274      -0.72063432       1.32355690
H        0.75697058      -1.47703799       0.31073884
H        2.04951537       0.19901115      -1.07898951
H        0.63605688       1.35463372       1.19133559
