17
Frame=0 idx=011916 GeodesicLength=0.0 rxn_smarts="[C:1]([C@@:2]1([H:11])[C@@:3]2([H:12])[C:4]([H:13])([H:14])[C:5]([H:15])=[C:6]([H:16])[C@@:7]12[H:17])([H:8])([H:9])[H:10]>>[C:1]([C:2][C@@:7]1([H:17])[C:3]([H:11])([H:12])[C:4]([H:13])([H:14])[C:5]([H:15])=[C:6]1[H:16])([H:8])([H:9])[H:10]"
C       -1.83998204       0.55196867       0.05068883
C       -1.30307512      -0.85611924       0.10340372
C        0.34306148      -0.94508732      -0.74972794
C        1.15897596       0.32692314      -0.96121833
C        1.36744228       0.85606458       0.43388105
C        0.78232521       0.09303346       1.34768122
C        0.03163343      -1.05352558       0.74267457
H       -2.51435214       0.68586820      -0.79573003
H       -2.45926348       0.62787133       0.95082234
H       -1.12770439       1.38462661       0.08436969
H       -0.76587260      -0.98539557      -1.20582212
H        0.69572049      -1.86763917      -1.20165834
H        0.64338327       1.05308199      -1.59801760
H        2.10475355       0.09590848      -1.45774513
H        1.90499490       1.77517433       0.63406971
H        0.79426479       0.28130382       2.41376776
H        0.18369436      -2.02405767       1.20856062
17
Frame=1 idx=011916 GeodesicLength=0.04792094856015324 rxn_smarts="[C:1]([C@@:2]1([H:11])[C@@:3]2([H:12])[C:4]([H:13])([H:14])[C:5]([H:15])=[C:6]([H:16])[C@@:7]12[H:17])([H:8])([H:9])[H:10]>>[C:1]([C:2][C@@:7]1([H:17])[C:3]([H:11])([H:12])[C:4]([H:13])([H:14])[C:5]([H:15])=[C:6]1[H:16])([H:8])([H:9])[H:10]"
C       -1.84361176       0.55392686       0.05280030
C       -1.30070860      -0.85025803       0.10026942
C        0.34353008      -0.94470749      -0.75131163
C        1.16113293       0.32695182      -0.96189953
C        1.37128000       0.85499888       0.43333229
C        0.78355169       0.09385340       1.34705662
C        0.03180581      -1.05177547       0.74217313
H       -2.51718552       0.69091774      -0.79379702
H       -2.46451121       0.62375146       0.95258021
H       -1.13193943       1.38667373       0.09111993
H       -0.77665237      -1.00371867      -1.21296144
H        0.70637144      -1.86622247      -1.19736428
H        0.64617808       1.05461667      -1.59753335
H        2.10682882       0.09697752      -1.45917253
H        1.91120458       1.77258572       0.63418531
H        0.79226032       0.28430711       2.41283021
H        0.18046514      -2.02287878       1.20769234
17
Frame=2 idx=011916 GeodesicLength=0.09583675454746646 rxn_smarts="[C:1]([C@@:2]1([H:11])[C@@:3]2([H:12])[C:4]([H:13])([H:14])[C:5]([H:15])=[C:6]([H:16])[C@@:7]12[H:17])([H:8])([H:9])[H:10]>>[C:1]([C:2][C@@:7]1([H:17])[C:3]([H:11])([H:12])[C:4]([H:13])([H:14])[C:5]([H:15])=[C:6]1[H:16])([H:8])([H:9])[H:10]"
C       -1.84721590       0.55592096       0.05489943
C       -1.29828713      -0.84431067       0.09701104
C        0.34402917      -0.94428857      -0.75293869
C        1.16333432       0.32702198      -0.96258266
C        1.37517246       0.85392924       0.43279431
C        0.78480986       0.09467521       1.34642222
C        0.03198014      -1.04998950       0.74163850
H       -2.51987436       0.69607538      -0.79194749
H       -2.46983016       0.61951001       0.95422392
H       -1.13617706       1.38874758       0.09801754
H       -0.78758760      -1.02258070      -1.21968397
H        0.71685847      -1.86466886      -1.19316999
H        0.64899703       1.05619602      -1.59702517
H        2.10893779       0.09808597      -1.46061632
H        1.91738499       1.77003133       0.63432263
H        0.79027272       0.28731398       2.41186841
H        0.17719523      -2.02166935       1.20676629
17
Frame=3 idx=011916 GeodesicLength=0.14375010827915738 rxn_smarts="[C:1]([C@@:2]1([H:11])[C@@:3]2([H:12])[C:4]([H:13])([H:14])[C:5]([H:15])=[C:6]([H:16])[C@@:7]12[H:17])([H:8])([H:9])[H:10]>>[C:1]([C:2][C@@:7]1([H:17])[C:3]([H:11])([H:12])[C:4]([H:13])([H:14])[C:5]([H:15])=[C:6]1[H:16])([H:8])([H:9])[H:10]"
C       -1.85079140       0.55795584       0.05698451
C       -1.29581009      -0.83827244       0.09361907
C        0.34456184      -0.94382954      -0.75461266
C        1.16559409       0.32712797      -0.96326544
C        1.37911997       0.85285325       0.43227013
C        0.78609659       0.09549505       1.34577726
C        0.03215346      -1.04816893       0.74106522
H       -2.52243309       0.70134304      -0.79016849
H       -2.47519567       0.61515914       0.95576230
H       -1.14041081       1.39084848       0.10504092
H       -0.79868590      -1.04197991      -1.22596391
H        0.72716822      -1.86298598      -1.18908915
H        0.65186508       1.05781421      -1.59649985
H        2.11109926       0.09922051      -1.46206128
H        1.92346020       1.76755589       0.63448044
H        0.78832859       0.29029485       2.41088600
H        0.17387967      -2.02043142       1.20577496
17
Frame=4 idx=011916 GeodesicLength=0.19166548262277427 rxn_smarts="[C:1]([C@@:2]1([H:11])[C@@:3]2([H:12])[C:4]([H:13])([H:14])[C:5]([H:15])=[C:6]([H:16])[C@@:7]12[H:17])([H:8])([H:9])[H:10]>>[C:1]([C:2][C@@:7]1([H:17])[C:3]([H:11])([H:12])[C:4]([H:13])([H:14])[C:5]([H:15])=[C:6]1[H:16])([H:8])([H:9])[H:10]"
C       -1.85433483       0.56003661       0.05905395
C       -1.29327707      -0.83213957       0.09008121
C        0.34513312      -0.94333073      -0.75633786
C        1.16792760       0.32726385      -0.96394652
C        1.38312343       0.85176851       0.43176291
C        0.78740839       0.09630855       1.34512115
C        0.03232187      -1.04631584       0.74044708
H       -2.52487861       0.70672273      -0.78844525
H       -2.48058092       0.61071120       0.95720779
H       -1.14463290       1.39297799       0.11216666
H       -0.80995656      -1.06191155      -1.23177329
H        0.73728925      -1.86118411      -1.18513536
H        0.65480814       1.05946446      -1.59596564
H        2.11333411       0.10036827      -1.46349301
H        1.92935095       1.76520814       0.63465754
H        0.78645302       0.29321948       2.40988794
H        0.17051099      -2.01916798       1.20471069
17
Frame=5 idx=011916 GeodesicLength=0.23949804325437257 rxn_smarts="[C:1]([C@@:2]1([H:11])[C@@:3]2([H:12])[C:4]([H:13])([H:14])[C:5]([H:15])=[C:6]([H:16])[C@@:7]12[H:17])([H:8])([H:9])[H:10]>>[C:1]([C:2][C@@:7]1([H:17])[C:3]([H:11])([H:12])[C:4]([H:13])([H:14])[C:5]([H:15])=[C:6]1[H:16])([H:8])([H:9])[H:10]"
C       -1.85784898       0.56216313       0.06110423
C       -1.29069239      -0.82590570       0.08641067
C        0.34572463      -0.94277969      -0.75812119
C        1.17034836       0.32742249      -0.96462010
C        1.38717872       0.85067379       0.43127616
C        0.78873909       0.09711425       1.34445277
C        0.03248510      -1.04443026       0.73977937
H       -2.52723211       0.71219709      -0.78676803
H       -2.48596178       0.60618942       0.95856374
H       -1.14884409       1.39513109       0.11936153
H       -0.82138500      -1.08236456      -1.23709188
H        0.74719308      -1.85925756      -1.18132508
H        0.65786651       1.06114707      -1.59543014
H        2.11566058       0.10150185      -1.46488589
H        1.93498387       1.76303002       0.63485292
H        0.78468725       0.29604798       2.40887920
H        0.16709717      -2.01788041       1.20356170
17
Frame=6 idx=011916 GeodesicLength=0.2873265511682753 rxn_smarts="[C:1]([C@@:2]1([H:11])[C@@:3]2([H:12])[C:4]([H:13])([H:14])[C:5]([H:15])=[C:6]([H:16])[C@@:7]12[H:17])([H:8])([H:9])[H:10]>>[C:1]([C:2][C@@:7]1([H:17])[C:3]([H:11])([H:12])[C:4]([H:13])([H:14])[C:5]([H:15])=[C:6]1[H:16])([H:8])([H:9])[H:10]"
C       -1.86133893       0.56433037       0.06314117
C       -1.28805054      -0.81957651       0.08257432
C        0.34635713      -0.94217754      -0.75996944
C        1.17286082       0.32761409      -0.96529342
C        1.39128552       0.84957703       0.43080774
C        0.79008552       0.09791614       1.34376834
C        0.03264068      -1.04250956       0.73905221
H       -2.52951215       0.71777772      -0.78511774
H       -2.49133685       0.60156173       0.95984629
H       -1.15305099       1.39730568       0.12663267
H       -0.83299925      -1.10335803      -1.24187929
H        0.75690098      -1.85721567      -1.17766687
H        0.66103615       1.06286985      -1.59489648
H        2.11808592       0.10264274      -1.46624931
H        1.94045294       1.76097470       0.63507562
H        0.78295651       0.29883226       2.40785039
H        0.16362655      -2.01656499       1.20232379
17
Frame=7 idx=011916 GeodesicLength=0.33516465575338505 rxn_smarts="[C:1]([C@@:2]1([H:11])[C@@:3]2([H:12])[C:4]([H:13])([H:14])[C:5]([H:15])=[C:6]([H:16])[C@@:7]12[H:17])([H:8])([H:9])[H:10]>>[C:1]([C:2][C@@:7]1([H:17])[C:3]([H:11])([H:12])[C:4]([H:13])([H:14])[C:5]([H:15])=[C:6]1[H:16])([H:8])([H:9])[H:10]"
C       -1.86480735       0.56653513       0.06516483
C       -1.28534905      -0.81314606       0.07856962
C        0.34702970      -0.94151720      -0.76188381
C        1.17545874       0.32784475      -0.96596722
C        1.39544674       0.84847642       0.43035513
C        0.79144961       0.09871630       1.34306295
C        0.03279012      -1.04054715       0.73826195
H       -2.53169970       0.72347425      -0.78350649
H       -2.49673008       0.59680806       0.96103361
H       -1.15726154       1.39949692       0.13400726
H       -0.84480759      -1.12491490      -1.24610343
H        0.76642164      -1.85505418      -1.17415904
H        0.66430824       1.06464503      -1.59435492
H        2.12059951       0.10379942      -1.46759247
H        1.94580546       1.75901124       0.63532605
H        0.78124443       0.30158457       2.40679249
H        0.16010112      -2.01521260       1.20099349
17
Frame=8 idx=011916 GeodesicLength=0.3829948481549 rxn_smarts="[C:1]([C@@:2]1([H:11])[C@@:3]2([H:12])[C:4]([H:13])([H:14])[C:5]([H:15])=[C:6]([H:16])[C@@:7]12[H:17])([H:8])([H:9])[H:10]>>[C:1]([C:2][C@@:7]1([H:17])[C:3]([H:11])([H:12])[C:4]([H:13])([H:14])[C:5]([H:15])=[C:6]1[H:16])([H:8])([H:9])[H:10]"
C       -1.86825610       0.56877656       0.06717476
C       -1.28258898      -0.80661568       0.07439025
C        0.34774083      -0.94079497      -0.76387265
C        1.17815060       0.32811637      -0.96664502
C        1.39966466       0.84737461       0.42991918
C        0.79282979       0.09951456       1.34233698
C        0.03293105      -1.03854419       0.73740371
H       -2.53380003       0.72929014      -0.78193146
H       -2.50214088       0.59192488       0.96212498
H       -1.16147756       1.40170419       0.14148427
H       -0.85681436      -1.14703908      -1.24972598
H        0.77574695      -1.85278078      -1.17081433
H        0.66769860       1.06647803      -1.59381269
H        2.12321173       0.10496850      -1.46891453
H        1.95103487       1.75715083       0.63560912
H        0.77954825       0.30430283       2.40570902
H        0.15652057      -2.01382680       1.19956438
17
Frame=9 idx=011916 GeodesicLength=0.4308044805481031 rxn_smarts="[C:1]([C@@:2]1([H:11])[C@@:3]2([H:12])[C:4]([H:13])([H:14])[C:5]([H:15])=[C:6]([H:16])[C@@:7]12[H:17])([H:8])([H:9])[H:10]>>[C:1]([C:2][C@@:7]1([H:17])[C:3]([H:11])([H:12])[C:4]([H:13])([H:14])[C:5]([H:15])=[C:6]1[H:16])([H:8])([H:9])[H:10]"
C       -1.87168615       0.57105320       0.06917077
C       -1.27976896      -0.79998313       0.07002741
C        0.34849214      -0.94000555      -0.76594045
C        1.18094431       0.32842760      -0.96732591
C        1.40394131       0.84626882       0.42949903
C        0.79422581       0.10030865       1.34158498
C        0.03306288      -1.03649841       0.73646946
H       -2.53581890       0.73523090      -0.78038496
H       -2.50756699       0.58690641       0.96311660
H       -1.16570122       1.40392118       0.14906292
H       -0.86902561      -1.16972420      -1.25270554
H        0.78487241      -1.85039741      -1.16763998
H        0.67122011       1.06836716      -1.59327050
H        2.12593201       0.10614457      -1.47020799
H        1.95612723       1.75539917       0.63592610
H        0.77786313       0.30698499       2.40459260
H        0.15288649      -2.01240395       1.19802546
17
Frame=10 idx=011916 GeodesicLength=0.47861692820794294 rxn_smarts="[C:1]([C@@:2]1([H:11])[C@@:3]2([H:12])[C:4]([H:13])([H:14])[C:5]([H:15])=[C:6]([H:16])[C@@:7]12[H:17])([H:8])([H:9])[H:10]>>[C:1]([C:2][C@@:7]1([H:17])[C:3]([H:11])([H:12])[C:4]([H:13])([H:14])[C:5]([H:15])=[C:6]1[H:16])([H:8])([H:9])[H:10]"
C       -1.87511818       0.57334930       0.07115102
C       -1.27688804      -0.79324833       0.06546236
C        0.34928769      -0.93913371      -0.76809459
C        1.18383863       0.32879626      -0.96801295
C        1.40826451       0.84517681       0.42909306
C        0.79562197       0.10111739       1.34080220
C        0.03318388      -1.03439661       0.73545032
H       -2.53779944       0.74127368      -0.77885191
H       -2.51301460       0.58171887       0.96401214
H       -1.16996125       1.40614015       0.15673563
H       -0.88144859      -1.19299091      -1.25500270
H        0.79381076      -1.84789219      -1.16464345
H        0.67487408       1.07033526      -1.59272849
H        2.12876033       0.10734745      -1.47147608
H        1.96126040       1.75365276       0.63629783
H        0.77612775       0.30968071       2.40343145
H        0.14920009      -2.01092691       1.19637419
17
Frame=11 idx=011916 GeodesicLength=0.5264304989150327 rxn_smarts="[C:1]([C@@:2]1([H:11])[C@@:3]2([H:12])[C:4]([H:13])([H:14])[C:5]([H:15])=[C:6]([H:16])[C@@:7]12[H:17])([H:8])([H:9])[H:10]>>[C:1]([C:2][C@@:7]1([H:17])[C:3]([H:11])([H:12])[C:4]([H:13])([H:14])[C:5]([H:15])=[C:6]1[H:16])([H:8])([H:9])[H:10]"
C       -1.87855575       0.57566190       0.07311700
C       -1.27394611      -0.78641244       0.06068364
C        0.35012978      -0.93817564      -0.77034387
C        1.18684490       0.32922303      -0.96870867
C        1.41263484       0.84410131       0.42870171
C        0.79701371       0.10194176       1.33998664
C        0.03329155      -1.03223888       0.73433850
H       -2.53975869       0.74742008      -0.77731856
H       -2.51847411       0.57635590       0.96481890
H       -1.17426158       1.40835682       0.16449424
H       -0.89408966      -1.21683496      -1.25657903
H        0.80255756      -1.84527090      -1.16183846
H        0.67868175       1.07238564      -1.59219451
H        2.13171172       0.10857318      -1.47271319
H        1.96643436       1.75191573       0.63672862
H        0.77432778       0.31239419       2.40222409
H        0.14545795      -2.00939672       1.19460296
17
Frame=12 idx=011916 GeodesicLength=0.5742449981045007 rxn_smarts="[C:1]([C@@:2]1([H:11])[C@@:3]2([H:12])[C:4]([H:13])([H:14])[C:5]([H:15])=[C:6]([H:16])[C@@:7]12[H:17])([H:8])([H:9])[H:10]>>[C:1]([C:2][C@@:7]1([H:17])[C:3]([H:11])([H:12])[C:4]([H:13])([H:14])[C:5]([H:15])=[C:6]1[H:16])([H:8])([H:9])[H:10]"
C       -1.88200239       0.57798737       0.07506833
C       -1.27094192      -0.77947187       0.05567686
C        0.35102147      -0.93712523      -0.77269517
C        1.18997391       0.32970780      -0.96941312
C        1.41705244       0.84304245       0.42832552
C        0.79839655       0.10278214       1.33913389
C        0.03338367      -1.03002220       0.73312457
H       -2.54171656       0.75366798      -0.77577076
H       -2.52393380       0.57080930       0.96554150
H       -1.17860594       1.41056657       0.17232794
H       -0.90695723      -1.24124981      -1.25739016
H        0.81110938      -1.84253540      -1.15923579
H        0.68266320       1.07452055      -1.59167250
H        2.13480037       0.10981645      -1.47391045
H        1.97164623       1.75018831       0.63722245
H        0.77245375       0.31512499       2.40096480
H        0.14165688      -2.00780940       1.19270205
17
Frame=13 idx=011916 GeodesicLength=0.622063756556636 rxn_smarts="[C:1]([C@@:2]1([H:11])[C@@:3]2([H:12])[C:4]([H:13])([H:14])[C:5]([H:15])=[C:6]([H:16])[C@@:7]12[H:17])([H:8])([H:9])[H:10]>>[C:1]([C:2][C@@:7]1([H:17])[C:3]([H:11])([H:12])[C:4]([H:13])([H:14])[C:5]([H:15])=[C:6]1[H:16])([H:8])([H:9])[H:10]"
C       -1.88546001       0.58032413       0.07700422
C       -1.26787505      -0.77242316       0.05042624
C        0.35196624      -0.93597868      -0.77515709
C        1.19324046       0.33024868      -0.97012735
C        1.42151910       0.84200032       0.42796644
C        0.79976491       0.10363800       1.33824163
C        0.03345596      -1.02774583       0.73179954
H       -2.54369466       0.76001665      -0.77419317
H       -2.52937566       0.56507616       0.96618932
H       -1.18299422       1.41276769       0.18022059
H       -0.92006104      -1.26622784      -1.25739250
H        0.81946128      -1.83969263      -1.15684835
H        0.68684540       1.07674120      -1.59117017
H        2.13804581       0.11106833      -1.47505853
H        1.97686369       1.74849266       0.63778145
H        0.77051012       0.31785915       2.39965460
H        0.13778769      -2.00616482       1.19066312
17
Frame=14 idx=011916 GeodesicLength=0.6698824999284906 rxn_smarts="[C:1]([C@@:2]1([H:11])[C@@:3]2([H:12])[C:4]([H:13])([H:14])[C:5]([H:15])=[C:6]([H:16])[C@@:7]12[H:17])([H:8])([H:9])[H:10]>>[C:1]([C:2][C@@:7]1([H:17])[C:3]([H:11])([H:12])[C:4]([H:13])([H:14])[C:5]([H:15])=[C:6]1[H:16])([H:8])([H:9])[H:10]"
C       -1.88893040       0.58266922       0.07892429
C       -1.26474339      -0.76526176       0.04491491
C        0.35296862      -0.93473020      -0.77773592
C        1.19665860       0.33084138      -0.97084944
C        1.42603536       0.84097183       0.42762521
C        0.80111400       0.10450778       1.33730343
C        0.03350636      -1.02540678       0.73035186
H       -2.54571663       0.76646560      -0.77256623
H       -2.53477940       0.55915135       0.96676989
H       -1.18742798       1.41495400       0.18815476
H       -0.93341019      -1.29174952      -1.25654020
H        0.82760925      -1.83674521      -1.15468551
H        0.69125400       1.07904400      -1.59069210
H        2.14146660       0.11231734      -1.47614211
H        1.98205359       1.74684404       0.63840582
H        0.76849626       0.32058482       2.39828679
H        0.13384535      -2.00445788       1.18847457
17
Frame=15 idx=011916 GeodesicLength=0.7177109306931917 rxn_smarts="[C:1]([C@@:2]1([H:11])[C@@:3]2([H:12])[C:4]([H:13])([H:14])[C:5]([H:15])=[C:6]([H:16])[C@@:7]12[H:17])([H:8])([H:9])[H:10]>>[C:1]([C:2][C@@:7]1([H:17])[C:3]([H:11])([H:12])[C:4]([H:13])([H:14])[C:5]([H:15])=[C:6]1[H:16])([H:8])([H:9])[H:10]"
C       -1.89242825       0.58500685       0.08083030
C       -1.26154463      -0.75798830       0.03912796
C        0.35403127      -0.93336722      -0.78044144
C        1.20022732       0.33150007      -0.97158463
C        1.43059824       0.83996617       0.42729827
C        0.80243839       0.10540142       1.33631335
C        0.03353566      -1.02299630       0.72877151
H       -2.54779962       0.77300613      -0.77088455
H       -2.54016574       0.55299478       0.96727473
H       -1.19192999       1.41711497       0.19614651
H       -0.94701537      -1.31782099      -1.25477237
H        0.83556140      -1.83368549      -1.15275698
H        0.69588925       1.08144973      -1.59023646
H        2.14506090       0.11358018      -1.47716928
H        1.98736555       1.74515247       0.63911359
H        0.76633772       0.32336352       2.39684199
H        0.12983790      -2.00267798       1.18612749
17
Frame=16 idx=011916 GeodesicLength=0.7655564298381257 rxn_smarts="[C:1]([C@@:2]1([H:11])[C@@:3]2([H:12])[C:4]([H:13])([H:14])[C:5]([H:15])=[C:6]([H:16])[C@@:7]12[H:17])([H:8])([H:9])[H:10]>>[C:1]([C:2][C@@:7]1([H:17])[C:3]([H:11])([H:12])[C:4]([H:13])([H:14])[C:5]([H:15])=[C:6]1[H:16])([H:8])([H:9])[H:10]"
C       -1.89595860       0.58733026       0.08272496
C       -1.25827860      -0.75060305       0.03304851
C        0.35515932      -0.93188596      -0.78328438
C        1.20396260       0.33222458      -0.97233639
C        1.43520977       0.83898631       0.42698646
C        0.80373209       0.10632069       1.33526895
C        0.03353984      -1.02051375       0.72704857
H       -2.54996916       0.77963453      -0.76912814
H       -2.54552203       0.54659287       0.96771492
H       -1.19650525       1.41924567       0.20418531
H       -0.96088869      -1.34442261      -1.25204344
H        0.84331428      -1.83052094      -1.15107852
H        0.70077970       1.08396147      -1.58981346
H        2.14884999       0.11485028      -1.47813396
H        1.99280297       1.74342097       0.63991058
H        0.76401275       0.32620409       2.39531682
H        0.12575901      -2.00082541       1.18361322
