14
Frame=0 idx=000278 GeodesicLength=0.0 rxn_smarts="[C:1]([C@@:2]1([H:10])[O:3][C:4]([H:11])([H:12])[C:5]([H:13])=[C:6]1[H:14])([H:7])([H:8])[H:9]>>[C:1]([C@@:2]1([H:10])[O:3][C:4]([H:11])([H:12])[C:5]([H:13])([H:14])[C:6]1)([H:7])([H:8])[H:9]"
C        1.91999505      -0.39757497       0.21726465
C        0.67303952       0.17013905      -0.42505037
O       -0.24617802      -0.91184957      -0.70156180
C       -1.55333931      -0.47147460      -0.44775404
C       -1.35541737       0.78394594       0.36938654
C       -0.04198835       1.24391559       0.34501078
H        2.35511124      -1.17047807      -0.41666380
H        2.65415072       0.39242721       0.37335296
H        1.67748146      -0.84281411       1.18447208
H        0.93911479       0.65878470      -1.37646927
H       -2.09279304      -0.21712351      -1.37270021
H       -2.11640365      -1.25205875       0.06944084
H       -2.18682683       1.34877189       0.78307988
H       -0.62594618       0.66538926       1.39819173
14
Frame=1 idx=000278 GeodesicLength=0.038191930375640996 rxn_smarts="[C:1]([C@@:2]1([H:10])[O:3][C:4]([H:11])([H:12])[C:5]([H:13])=[C:6]1[H:14])([H:7])([H:8])[H:9]>>[C:1]([C@@:2]1([H:10])[O:3][C:4]([H:11])([H:12])[C:5]([H:13])([H:14])[C:6]1)([H:7])([H:8])[H:9]"
C        1.92216806      -0.39949389       0.21508763
C        0.67251424       0.16722548      -0.42283428
O       -0.24585976      -0.91333126      -0.70030481
C       -1.55359897      -0.47229822      -0.44680580
C       -1.35798703       0.78176039       0.37294460
C       -0.04365961       1.23852351       0.34625340
H        2.35953289      -1.16671630      -0.42415679
H        2.65363012       0.39217294       0.37563537
H        1.68177139      -0.85130238       1.17969254
H        0.93561470       0.66079790      -1.37333842
H       -2.09013486      -0.21879414      -1.37358670
H       -2.11696967      -1.25405373       0.06832096
H       -2.19137688       1.35626745       0.76833085
H       -0.62564463       0.67924227       1.41476146
14
Frame=2 idx=000278 GeodesicLength=0.07637013162248545 rxn_smarts="[C:1]([C@@:2]1([H:10])[O:3][C:4]([H:11])([H:12])[C:5]([H:13])=[C:6]1[H:14])([H:7])([H:8])[H:9]>>[C:1]([C@@:2]1([H:10])[O:3][C:4]([H:11])([H:12])[C:5]([H:13])([H:14])[C:6]1)([H:7])([H:8])[H:9]"
C        1.92429501      -0.40143691       0.21290431
C        0.67196985       0.16431309      -0.42061339
O       -0.24554850      -0.91479796      -0.69914589
C       -1.55386407      -0.47316090      -0.44586666
C       -1.36059900       0.77947804       0.37660471
C       -0.04537623       1.23304097       0.34760548
H        2.36388870      -1.16289507      -0.43166329
H        2.65306303       0.39183889       0.37799819
H        1.68600678      -0.85985552       1.17482691
H        0.93210202       0.66287673      -1.37013014
H       -2.08752067      -0.22045013      -1.37443062
H       -2.11748700      -1.25613849       0.06716095
H       -2.19568965       1.36351364       0.75343143
H       -0.62524027       0.69367362       1.43131800
14
Frame=3 idx=000278 GeodesicLength=0.11454052087833838 rxn_smarts="[C:1]([C@@:2]1([H:10])[O:3][C:4]([H:11])([H:12])[C:5]([H:13])=[C:6]1[H:14])([H:7])([H:8])[H:9]>>[C:1]([C@@:2]1([H:10])[O:3][C:4]([H:11])([H:12])[C:5]([H:13])([H:14])[C:6]1)([H:7])([H:8])[H:9]"
C        1.92637761      -0.40340666       0.21071623
C        0.67140740       0.16140115      -0.41838975
O       -0.24524245      -0.91625098      -0.69808853
C       -1.55413592      -0.47406202      -0.44493972
C       -1.36325791       0.77709951       0.38036730
C       -0.04714164       1.22746921       0.34906518
H        2.36818340      -1.15901882      -0.43917972
H        2.65245110       0.39142195       0.38044250
H        1.69018695      -0.86847536       1.16987850
H        0.92858015       0.66502244      -1.36684717
H       -2.08495059      -0.22208634      -1.37523756
H       -2.11795887      -1.25831464       0.06595653
H       -2.19976810       1.37049032       0.73840994
H       -0.62473114       0.70871026       1.44784626
14
Frame=4 idx=000278 GeodesicLength=0.1527003947313087 rxn_smarts="[C:1]([C@@:2]1([H:10])[O:3][C:4]([H:11])([H:12])[C:5]([H:13])=[C:6]1[H:14])([H:7])([H:8])[H:9]>>[C:1]([C@@:2]1([H:10])[O:3][C:4]([H:11])([H:12])[C:5]([H:13])([H:14])[C:6]1)([H:7])([H:8])[H:9]"
C        1.92841390      -0.40540370       0.20852478
C        0.67082613       0.15848857      -0.41616289
O       -0.24494259      -0.91768998      -0.69713547
C       -1.55441455      -0.47500159      -0.44402820
C       -1.36596344       0.77462257       0.38423157
C       -0.04895539       1.22180496       0.35063410
H        2.37241422      -1.15508769      -0.44670231
H        2.65179312       0.39091969       0.38296981
H        1.69430947      -0.87716061       1.16484702
H        0.92504880       0.66723535      -1.36348580
H       -2.08242375      -0.22370035      -1.37601082
H       -2.11838642      -1.26058243       0.06470071
H       -2.20360676       1.37717704       0.72328973
H       -0.62411276       0.72437818       1.46432777
14
Frame=5 idx=000278 GeodesicLength=0.1908588661352224 rxn_smarts="[C:1]([C@@:2]1([H:10])[O:3][C:4]([H:11])([H:12])[C:5]([H:13])=[C:6]1[H:14])([H:7])([H:8])[H:9]>>[C:1]([C@@:2]1([H:10])[O:3][C:4]([H:11])([H:12])[C:5]([H:13])([H:14])[C:6]1)([H:7])([H:8])[H:9]"
C        1.93040393      -0.40743048       0.20633092
C        0.67022641       0.15557513      -0.41393360
O       -0.24464731      -0.91911751      -0.69629263
C       -1.55469941      -0.47598174      -0.44313566
C       -1.36871815       0.77204749       0.38819926
C       -0.05081900       1.21604818       0.35231764
H        2.37658163      -1.15110743      -0.45423008
H        2.65108982       0.39033045       0.38557913
H        1.69837344      -0.88591416       1.15973564
H        0.92150958       0.66952052      -1.36004673
H       -2.07993939      -0.22529049      -1.37675654
H       -2.11876998      -1.26294826       0.06338833
H       -2.20720476       1.38356186       0.70809400
H       -0.62338683       0.74070644       1.48075032
14
Frame=6 idx=000278 GeodesicLength=0.22899550286358006 rxn_smarts="[C:1]([C@@:2]1([H:10])[O:3][C:4]([H:11])([H:12])[C:5]([H:13])=[C:6]1[H:14])([H:7])([H:8])[H:9]>>[C:1]([C@@:2]1([H:10])[O:3][C:4]([H:11])([H:12])[C:5]([H:13])([H:14])[C:6]1)([H:7])([H:8])[H:9]"
C        1.93234589      -0.40948650       0.20413683
C        0.66960801       0.15265870      -0.41169927
O       -0.24435829      -0.92052594      -0.69556036
C       -1.55499091      -0.47699914      -0.44226422
C       -1.37152011       0.76936779       0.39226146
C       -0.05273042       1.21018923       0.35411196
H        2.38068278      -1.14707111      -0.46175403
H        2.65034046       0.38964759       0.38827497
H        1.70237531      -0.89473244       1.15453781
H        0.91796339       0.67187287      -1.35651808
H       -2.07750042      -0.22685278      -1.37746964
H       -2.11911015      -1.26540211       0.06201117
H       -2.21055995       1.38961376       0.69285457
H       -0.62254559       0.75772009       1.49707682
14
Frame=7 idx=000278 GeodesicLength=0.2671186106207863 rxn_smarts="[C:1]([C@@:2]1([H:10])[O:3][C:4]([H:11])([H:12])[C:5]([H:13])=[C:6]1[H:14])([H:7])([H:8])[H:9]>>[C:1]([C@@:2]1([H:10])[O:3][C:4]([H:11])([H:12])[C:5]([H:13])([H:14])[C:6]1)([H:7])([H:8])[H:9]"
C        1.93424271      -0.41157509       0.20193901
C        0.66896850       0.14973584      -0.40945191
O       -0.24407734      -0.92191788      -0.69493164
C       -1.55529072      -0.47805579      -0.44140911
C       -1.37437193       0.76658057       0.39642450
C       -0.05468888       1.20421598       0.35603478
H        2.38472755      -1.14296052      -0.46929345
H        2.64954209       0.38886667       0.39107024
H        1.70632374      -0.90363801       1.14923812
H        0.91440130       0.67429662      -1.35288677
H       -2.07510337      -0.22838992      -1.37814955
H       -2.11940997      -1.26794677       0.06057044
H       -2.21366700       1.39533584       0.67754930
H       -0.62159666       0.77545245       1.51329603
14
Frame=8 idx=000278 GeodesicLength=0.305245909818545 rxn_smarts="[C:1]([C@@:2]1([H:10])[O:3][C:4]([H:11])([H:12])[C:5]([H:13])=[C:6]1[H:14])([H:7])([H:8])[H:9]>>[C:1]([C@@:2]1([H:10])[O:3][C:4]([H:11])([H:12])[C:5]([H:13])([H:14])[C:6]1)([H:7])([H:8])[H:9]"
C        1.93609421      -0.41370175       0.19973935
C        0.66831000       0.14680666      -0.40719639
O       -0.24380070      -0.92330072      -0.69441569
C       -1.55559726      -0.47915638      -0.44057587
C       -1.37727657       0.76369186       0.40068602
C       -0.05669673       1.19813729       0.35808650
H        2.38872213      -1.13878188      -0.47685228
H        2.64869207       0.38798692       0.39397467
H        1.71021281      -0.91264429       1.14384168
H        0.91083027       0.67679696      -1.34916276
H       -2.07274443      -0.22990399      -1.37880900
H       -2.11966878      -1.27059271       0.05906473
H       -2.21653427       1.40071727       0.66222922
H       -0.62054276       0.79394475       1.52938981
14
Frame=9 idx=000278 GeodesicLength=0.34336929839670993 rxn_smarts="[C:1]([C@@:2]1([H:10])[O:3][C:4]([H:11])([H:12])[C:5]([H:13])=[C:6]1[H:14])([H:7])([H:8])[H:9]>>[C:1]([C@@:2]1([H:10])[O:3][C:4]([H:11])([H:12])[C:5]([H:13])([H:14])[C:6]1)([H:7])([H:8])[H:9]"
C        1.93789976      -0.41586771       0.19753912
C        0.66763226       0.14386923      -0.40492978
O       -0.24352928      -0.92467044      -0.69401393
C       -1.55591081      -0.48029963      -0.43976669
C       -1.38023350       0.76069734       0.40504156
C       -0.05875242       1.19194395       0.36027060
H        2.39266564      -1.13452973      -0.48442692
H        2.64779014       0.38700154       0.39699298
H        1.71404196      -0.92175300       1.13834253
H        0.90725005       0.67937372      -1.34533552
H       -2.07042444      -0.23139243      -1.37944735
H       -2.11988687      -1.27333630       0.05748720
H       -2.21916146       1.40573514       0.64692244
H       -0.61938103       0.81322832       1.54532375
14
Frame=10 idx=000278 GeodesicLength=0.38148844747019245 rxn_smarts="[C:1]([C@@:2]1([H:10])[O:3][C:4]([H:11])([H:12])[C:5]([H:13])=[C:6]1[H:14])([H:7])([H:8])[H:9]>>[C:1]([C@@:2]1([H:10])[O:3][C:4]([H:11])([H:12])[C:5]([H:13])([H:14])[C:6]1)([H:7])([H:8])[H:9]"
C        1.93965944      -0.41807575       0.19533926
C        0.66693572       0.14092234      -0.40265040
O       -0.24326235      -0.92602590      -0.69373030
C       -1.55623096      -0.48148638      -0.43898434
C       -1.38324348       0.75759460       0.40948862
C       -0.06085552       1.18563013       0.36259325
H        2.39655892      -1.13020263      -0.49201652
H        2.64683636       0.38590467       0.40012961
H        1.71781058      -0.93096931       1.13273743
H        0.90366183       0.68203016      -1.34139842
H       -2.06814290      -0.23285384      -1.38006721
H       -2.12006374      -1.27617908       0.05583236
H       -2.22155189       1.41037311       0.63166027
H       -0.61811201       0.83333788       1.56106640
14
Frame=11 idx=000278 GeodesicLength=0.41960345937653426 rxn_smarts="[C:1]([C@@:2]1([H:10])[O:3][C:4]([H:11])([H:12])[C:5]([H:13])=[C:6]1[H:14])([H:7])([H:8])[H:9]>>[C:1]([C@@:2]1([H:10])[O:3][C:4]([H:11])([H:12])[C:5]([H:13])([H:14])[C:6]1)([H:7])([H:8])[H:9]"
C        1.94137338      -0.42032890       0.19314086
C        0.66622097       0.13796477      -0.40035662
O       -0.24299889      -0.92736606      -0.69356935
C       -1.55655712      -0.48271768      -0.43823218
C       -1.38630701       0.75438063       0.41402499
C       -0.06300560       1.17918998       0.36506077
H        2.40040252      -1.12580008      -0.49961963
H        2.64583101       0.38469022       0.40338877
H        1.72151805      -0.94029807       1.12702373
H        0.90006722       0.68476982      -1.33734475
H       -2.06589904      -0.23428620      -1.38067179
H       -2.12019876      -1.27912320       0.05409371
H       -2.22371110       1.41461480       0.61647802
H       -0.61673565       0.85430998       1.57658347
14
Frame=12 idx=000278 GeodesicLength=0.4577148002283725 rxn_smarts="[C:1]([C@@:2]1([H:10])[O:3][C:4]([H:11])([H:12])[C:5]([H:13])=[C:6]1[H:14])([H:7])([H:8])[H:9]>>[C:1]([C@@:2]1([H:10])[O:3][C:4]([H:11])([H:12])[C:5]([H:13])([H:14])[C:6]1)([H:7])([H:8])[H:9]"
C        1.94304201      -0.42263059       0.19094473
C        0.66548867       0.13499530      -0.39804615
O       -0.24273769      -0.92868972      -0.69353579
C       -1.55688858      -0.48399507      -0.43751302
C       -1.38942465       0.75105180       0.41864900
C       -0.06520212       1.17261663       0.36768147
H        2.40419772      -1.12132032      -0.50723639
H        2.64477436       0.38335145       0.40677595
H        1.72516423      -0.94974647       1.12119734
H        0.89646755       0.68759729      -1.33316647
H       -2.06369224      -0.23568799      -1.38126359
H       -2.12029071      -1.28217156       0.05226533
H       -2.22564565       1.41844640       0.60140945
H       -0.61525290       0.87618286       1.59183813
14
Frame=13 idx=000278 GeodesicLength=0.49582433002954046 rxn_smarts="[C:1]([C@@:2]1([H:10])[O:3][C:4]([H:11])([H:12])[C:5]([H:13])=[C:6]1[H:14])([H:7])([H:8])[H:9]>>[C:1]([C@@:2]1([H:10])[O:3][C:4]([H:11])([H:12])[C:5]([H:13])([H:14])[C:6]1)([H:7])([H:8])[H:9]"
C        1.94466605      -0.42498479       0.18875143
C        0.66473952       0.13201271      -0.39571625
O       -0.24247736      -0.92999604      -0.69363469
C       -1.55722451      -0.48532087      -0.43682930
C       -1.39259703       0.74760396       0.42336009
C       -0.06744450       1.16590265       0.37046585
H        2.40794665      -1.11676050      -0.51486888
H        2.64366641       0.38188135       0.41029817
H        1.72874949      -0.95932438       1.11525314
H        0.89286389       0.69051844      -1.32885481
H       -2.06152196      -0.23705821      -1.38184503
H       -2.12033800      -1.28532852       0.05034185
H       -2.22736310       1.42185732       0.58648688
H       -0.61366554       0.89899689       1.60679155
14
Frame=14 idx=000278 GeodesicLength=0.5339481140638341 rxn_smarts="[C:1]([C@@:2]1([H:10])[O:3][C:4]([H:11])([H:12])[C:5]([H:13])=[C:6]1[H:14])([H:7])([H:8])[H:9]>>[C:1]([C@@:2]1([H:10])[O:3][C:4]([H:11])([H:12])[C:5]([H:13])([H:14])[C:6]1)([H:7])([H:8])[H:9]"
C        1.94624722      -0.42739842       0.18656105
C        0.66397477       0.12901659      -0.39336624
O       -0.24221405      -0.93128978      -0.69387530
C       -1.55756294      -0.48670133      -0.43618401
C       -1.39582695       0.74403649       0.42816214
C       -0.06973432       1.15904644       0.37342874
H        2.41165550      -1.11212180      -0.52252607
H        2.64250613       0.38027461       0.41396552
H        1.73227465      -0.96905115       1.10918922
H        0.88925821       0.69354487      -1.32440801
H       -2.05938611      -0.23839830      -1.38242413
H       -2.12033688      -1.28860784       0.04832088
H       -2.22887491       1.42484852       0.57174425
H       -0.61198033       0.92280111       1.62141198
14
Frame=15 idx=000278 GeodesicLength=0.5720326829580747 rxn_smarts="[C:1]([C@@:2]1([H:10])[O:3][C:4]([H:11])([H:12])[C:5]([H:13])=[C:6]1[H:14])([H:7])([H:8])[H:9]>>[C:1]([C@@:2]1([H:10])[O:3][C:4]([H:11])([H:12])[C:5]([H:13])([H:14])[C:6]1)([H:7])([H:8])[H:9]"
C        1.94778429      -0.42986774       0.18437535
C        0.66319359       0.12600227      -0.39098265
O       -0.24195313      -0.93254626      -0.69424852
C       -1.55790641      -0.48812509      -0.43557335
C       -1.39910887       0.74032821       0.43304145
C       -0.07206473       1.15201343       0.37657022
H        2.41531956      -1.10737458      -0.53019212
H        2.64129454       0.37851078       0.41778734
H        1.73573932      -0.97891881       1.10297645
H        0.88564852       0.69666470      -1.31978312
H       -2.05729212      -0.23969847      -1.38297532
H       -2.12028856      -1.29198048       0.04619065
H       -2.23018373       1.42737530       0.55720529
H       -0.61018227       0.94761674       1.63560834
14
Frame=16 idx=000278 GeodesicLength=0.6101387449977947 rxn_smarts="[C:1]([C@@:2]1([H:10])[O:3][C:4]([H:11])([H:12])[C:5]([H:13])=[C:6]1[H:14])([H:7])([H:8])[H:9]>>[C:1]([C@@:2]1([H:10])[O:3][C:4]([H:11])([H:12])[C:5]([H:13])([H:14])[C:6]1)([H:7])([H:8])[H:9]"
C        1.94928087      -0.43240613       0.18219088
C        0.66239615       0.12296902      -0.38856617
O       -0.24168770      -0.93378981      -0.69476972
C       -1.55825048      -0.48961139      -0.43500176
C       -1.40244851       0.73648318       0.43802053
C       -0.07444044       1.14481253       0.37992651
H        2.41895207      -1.10252599      -0.53790061
H        2.64002718       0.37659232       0.42177952
H        1.73915186      -0.98897161       1.09661962
H        0.88203166       0.69990388      -1.31499307
H       -2.05522961      -0.24096607      -1.38352391
H       -2.12018995      -1.29548822       0.04394964
H       -2.23129872       1.42947305       0.54289008
H       -0.60829437       0.97352524       1.64937846
