19
Frame=0 idx=010401 GeodesicLength=0.0 rxn_smarts="[C:1]([C:2]1([H:11])[C:3]([H:12])([H:13])[C:4]2([C:5]([H:14])([H:15])[C:6]2([H:16])[H:17])[C:7]1([H:18])[H:19])([H:8])([H:9])[H:10]>>[C:1]([C:2][C:3]([C:4]1([C:7]([H:11])([H:18])[H:19])[C:5]([H:14])([H:15])[C:6]1([H:16])[H:17])([H:12])[H:13])([H:8])([H:9])[H:10]"
C       -2.61304163       0.12368805      -0.06700849
C       -1.36299964      -0.63548966      -0.36059773
C       -0.27298669       0.19637538      -1.02883345
C        0.81952801       0.02105155       0.00265364
C        2.04514843      -0.79423192      -0.25869115
C        2.15313146       0.68745093      -0.01666057
C       -0.00576573      -0.20223803       1.23972934
H       -3.14751024       0.12147214      -1.02610395
H       -2.48222413       1.18011871       0.21372847
H       -3.26058085      -0.37597123       0.65433306
H       -0.81477022      -1.03497005       0.79362479
H       -0.02018918      -0.17099735      -2.02627103
H       -0.54108904       1.26135917      -1.11261997
H        2.20154727      -1.15864829      -1.26584836
H        2.38906780      -1.46413418       0.51973787
H        2.38506317       1.32537291      -0.86058827
H        2.57067454       1.02300316       0.92473541
H       -0.48234524       0.69376219       1.63461586
H        0.43934197      -0.79697352       2.04006455
19
Frame=1 idx=010401 GeodesicLength=0.05855344753168642 rxn_smarts="[C:1]([C:2]1([H:11])[C:3]([H:12])([H:13])[C:4]2([C:5]([H:14])([H:15])[C:6]2([H:16])[H:17])[C:7]1([H:18])[H:19])([H:8])([H:9])[H:10]>>[C:1]([C:2][C:3]([C:4]1([C:7]([H:11])([H:18])[H:19])[C:5]([H:14])([H:15])[C:6]1([H:16])[H:17])([H:12])[H:13])([H:8])([H:9])[H:10]"
C       -2.62093890       0.12547825      -0.08015038
C       -1.36202622      -0.62499660      -0.35408252
C       -0.27255564       0.20505631      -1.02146610
C        0.82233415       0.02213634       0.00647311
C        2.04467688      -0.79547984      -0.26173168
C        2.15727311       0.68534521      -0.01598900
C       -0.00313270      -0.20354194       1.24383089
H       -3.16227571       0.09746378      -1.03447082
H       -2.50155353       1.18702223       0.18479550
H       -3.25625137      -0.36887309       0.65621998
H       -0.81375044      -1.05434262       0.80233147
H       -0.02602801      -0.16469067      -2.01988033
H       -0.53802584       1.27062381      -1.10356475
H        2.19676892      -1.15787516      -1.27030890
H        2.38975611      -1.46823262       0.51371404
H        2.38787107       1.32442171      -0.85946124
H        2.57787976       1.01730417       0.92532079
H       -0.46997447       0.69553304       1.64439502
H        0.44995283      -0.79235231       2.04402492
19
Frame=2 idx=010401 GeodesicLength=0.1171313527844951 rxn_smarts="[C:1]([C:2]1([H:11])[C:3]([H:12])([H:13])[C:4]2([C:5]([H:14])([H:15])[C:6]2([H:16])[H:17])[C:7]1([H:18])[H:19])([H:8])([H:9])[H:10]>>[C:1]([C:2][C:3]([C:4]1([C:7]([H:11])([H:18])[H:19])[C:5]([H:14])([H:15])[C:6]1([H:16])[H:17])([H:12])[H:13])([H:8])([H:9])[H:10]"
C       -2.62889104       0.12718535      -0.09363181
C       -1.36112613      -0.61422459      -0.34706421
C       -0.27218640       0.21387077      -1.01382004
C        0.82515354       0.02326651       0.01041177
C        2.04414023      -0.79665036      -0.26488631
C        2.16142076       0.68325941      -0.01526322
C       -0.00037858      -0.20499962       1.24811185
H       -3.17685359       0.07208824      -1.04248587
H       -2.52121802       1.19383850       0.15404561
H       -3.25188481      -0.36029827       0.65834187
H       -0.81263552      -1.07381762       0.81094720
H       -0.03208376      -0.15820529      -2.01322150
H       -0.53498990       1.28002990      -1.09413917
H        2.19182634      -1.15687797      -1.27492626
H        2.39044164      -1.47235716       0.50743473
H        2.39060142       1.32360608      -0.85821137
H        2.58517075       1.01148317       0.92595104
H       -0.45710550       0.69709291       1.65460021
H        0.46059857      -0.78828997       2.04780546
19
Frame=3 idx=010401 GeodesicLength=0.17572455356749994 rxn_smarts="[C:1]([C:2]1([H:11])[C:3]([H:12])([H:13])[C:4]2([C:5]([H:14])([H:15])[C:6]2([H:16])[H:17])[C:7]1([H:18])[H:19])([H:8])([H:9])[H:10]>>[C:1]([C:2][C:3]([C:4]1([C:7]([H:11])([H:18])[H:19])[C:5]([H:14])([H:15])[C:6]1([H:16])[H:17])([H:12])[H:13])([H:8])([H:9])[H:10]"
C       -2.63689337       0.12878189      -0.10746995
C       -1.36030538      -0.60315185      -0.33952710
C       -0.27188318       0.22283748      -1.00587791
C        0.82798521       0.02444566       0.01447498
C        2.04352776      -0.79774330      -0.26816103
C        2.16557645       0.68118988      -0.01448745
C        0.00250416      -0.20660198       1.25258142
H       -3.19120313       0.04530534      -1.05007243
H       -2.54120212       1.20047781       0.12139696
H       -3.24751429      -0.35016255       0.66065041
H       -0.81143067      -1.09339469       0.81946693
H       -0.03836614      -0.15151098      -2.00627996
H       -0.53198928       1.28959543      -1.08430968
H        2.18669837      -1.15565416      -1.27970617
H        2.39111418      -1.47651069       0.50088768
H        2.39325519       1.32292275      -0.85684125
H        2.59255872       1.00553081       0.92661722
H       -0.44372166       0.69843556       1.66524426
H        0.47128917      -0.78479242       2.05141306
19
Frame=4 idx=010401 GeodesicLength=0.23432760159036903 rxn_smarts="[C:1]([C:2]1([H:11])[C:3]([H:12])([H:13])[C:4]2([C:5]([H:14])([H:15])[C:6]2([H:16])[H:17])[C:7]1([H:18])[H:19])([H:8])([H:9])[H:10]>>[C:1]([C:2][C:3]([C:4]1([C:7]([H:11])([H:18])[H:19])[C:5]([H:14])([H:15])[C:6]1([H:16])[H:17])([H:12])[H:13])([H:8])([H:9])[H:10]"
C       -2.64493879       0.13023835      -0.12167553
C       -1.35957094      -0.59175280      -0.33144914
C       -0.27165140       0.23197778      -0.99761803
C        0.83082825       0.02567815       0.01866988
C        2.04282662      -0.79875841      -0.27156468
C        2.16974268       0.67913231      -0.01366613
C        0.00552599      -0.20834087       1.25725301
H       -3.20527584       0.01706881      -1.05713905
H       -2.56148846       1.20683870       0.08674364
H       -3.24318197      -0.33837144       0.66307533
H       -0.81014181      -1.11307273       0.82788921
H       -0.04488863      -0.14457360      -1.99903713
H       -0.52903353       1.29934166      -1.07403628
H        2.18135924      -1.15419875      -1.28465810
H        2.39176211      -1.48069780       0.49405536
H        2.39583242       1.32236953      -0.85535366
H        2.60005759       0.99943521       0.92730909
H       -0.42980166       0.69955448       1.67634549
H        0.48203813      -0.78186857       2.05485671
19
Frame=5 idx=010401 GeodesicLength=0.2929298605760751 rxn_smarts="[C:1]([C:2]1([H:11])[C:3]([H:12])([H:13])[C:4]2([C:5]([H:14])([H:15])[C:6]2([H:16])[H:17])[C:7]1([H:18])[H:19])([H:8])([H:9])[H:10]>>[C:1]([C:2][C:3]([C:4]1([C:7]([H:11])([H:18])[H:19])[C:5]([H:14])([H:15])[C:6]1([H:16])[H:17])([H:12])[H:13])([H:8])([H:9])[H:10]"
C       -2.65301883       0.13152549      -0.13626704
C       -1.35893053      -0.57999890      -0.32281049
C       -0.27149646       0.24131546      -0.98902112
C        0.83368079       0.02696924       0.02300258
C        2.04202239      -0.79969577      -0.27510528
C        2.17392131       0.67708216      -0.01280371
C        0.00869453      -0.21020620       1.26213664
H       -3.21901576      -0.01267271      -1.06357328
H       -2.58204494       1.21280827       0.04999614
H       -3.23893684      -0.32482909       0.66553515
H       -0.80877826      -1.13284650       0.83620872
H       -0.05166311      -0.13735764      -1.99147677
H       -0.52613243       1.30929167      -1.06328109
H        2.17578274      -1.15250788      -1.28979058
H        2.39237087      -1.48492440       0.48692115
H        2.39833395       1.32194386      -0.85375081
H        2.60768017       0.99318366       0.92801766
H       -0.41532522       0.70044463       1.68791974
H        0.49285563      -0.77952536       2.05814240
19
Frame=6 idx=010401 GeodesicLength=0.35152245323057335 rxn_smarts="[C:1]([C:2]1([H:11])[C:3]([H:12])([H:13])[C:4]2([C:5]([H:14])([H:15])[C:6]2([H:16])[H:17])[C:7]1([H:18])[H:19])([H:8])([H:9])[H:10]>>[C:1]([C:2][C:3]([C:4]1([C:7]([H:11])([H:18])[H:19])[C:5]([H:14])([H:15])[C:6]1([H:16])[H:17])([H:12])[H:13])([H:8])([H:9])[H:10]"
C       -2.66112308       0.13259900      -0.15125924
C       -1.35839039      -0.56786911      -0.31359132
C       -0.27142300       0.25086595      -0.98006768
C        0.83654093       0.02832279       0.02747791
C        2.04110259      -0.80055365      -0.27878783
C        2.17811270       0.67503675      -0.01190655
C        0.01201783      -0.21218735       1.26724142
H       -3.23238531      -0.04389254      -1.06928472
H       -2.60283383       1.21825504       0.01108158
H       -3.23482045      -0.30946379       0.66795483
H       -0.80734810      -1.15271262       0.84442088
H       -0.05869916      -0.12983808      -1.98358084
H       -0.52329860       1.31945924      -1.05200909
H        2.16994569      -1.15057855      -1.29510613
H        2.39292899      -1.48918954       0.47947482
H        2.40075857       1.32164149      -0.85203798
H        2.61543650       0.98676915       0.92873049
H       -0.40027374       0.70109870       1.69997547
H        0.50375186      -0.77776289       2.06127401
19
Frame=7 idx=010401 GeodesicLength=0.41009561212821116 rxn_smarts="[C:1]([C:2]1([H:11])[C:3]([H:12])([H:13])[C:4]2([C:5]([H:14])([H:15])[C:6]2([H:16])[H:17])[C:7]1([H:18])[H:19])([H:8])([H:9])[H:10]>>[C:1]([C:2][C:3]([C:4]1([C:7]([H:11])([H:18])[H:19])[C:5]([H:14])([H:15])[C:6]1([H:16])[H:17])([H:12])[H:13])([H:8])([H:9])[H:10]"
C       -2.66923604       0.13342447      -0.16666212
C       -1.35796221      -0.55532744      -0.30375776
C       -0.27143933       0.26065464      -0.97072927
C        0.83940620       0.02974451       0.03210485
C        2.04004876      -0.80133044      -0.28262443
C        2.18231792       0.67299099      -0.01098194
C        0.01550832      -0.21427487       1.27258447
H       -3.24530715      -0.07661841      -1.07411386
H       -2.62380111       1.22301595      -0.03012020
H       -3.23091487      -0.29216812       0.67018248
H       -0.80586268      -1.17266176       0.85252799
H       -0.06601750      -0.12197663      -1.97532331
H       -0.52054655       1.32986919      -1.04017022
H        2.16381331      -1.14840214      -1.30061790
H        2.39342003      -1.49349777       0.47169164
H        2.40310280       1.32146149      -0.85021971
H        2.62334209       0.98017655       0.92943096
H       -0.38461607       0.70151105       1.71253878
H        0.51474408      -0.77659124       2.06425954
19
Frame=8 idx=010401 GeodesicLength=0.46863801849738634 rxn_smarts="[C:1]([C:2]1([H:11])[C:3]([H:12])([H:13])[C:4]2([C:5]([H:14])([H:15])[C:6]2([H:16])[H:17])[C:7]1([H:18])[H:19])([H:8])([H:9])[H:10]>>[C:1]([C:2][C:3]([C:4]1([C:7]([H:11])([H:18])[H:19])[C:5]([H:14])([H:15])[C:6]1([H:16])[H:17])([H:12])[H:13])([H:8])([H:9])[H:10]"
C       -2.67733958       0.13396159      -0.18249438
C       -1.35766048      -0.54234570      -0.29328206
C       -0.27155434       0.27069955      -0.96098067
C        0.84227299       0.03123865       0.03689048
C        2.03884368      -0.80202223      -0.28662264
C        2.18653628       0.67094300      -0.01003536
C        0.01917519      -0.21645878       1.27817483
H       -3.25771700      -0.11081569      -1.07791399
H       -2.64487734       1.22691554      -0.07370568
H       -3.22729683      -0.27285926       0.67209822
H       -0.80433516      -1.19268555       0.86052196
H       -0.07363460      -0.11375004      -1.96667933
H       -0.51789330       1.34053800      -1.02772168
H        2.15735518      -1.14596949      -1.30632994
H        2.39382895      -1.49784651       0.46355358
H        2.40536307       1.32140209      -0.84829738
H        2.63140928       0.97339712       0.93010591
H       -0.36832381       0.70167438       1.72562202
H        0.52584782      -0.77601665       2.06709612
19
Frame=9 idx=010401 GeodesicLength=0.5271431016583302 rxn_smarts="[C:1]([C:2]1([H:11])[C:3]([H:12])([H:13])[C:4]2([C:5]([H:14])([H:15])[C:6]2([H:16])[H:17])[C:7]1([H:18])[H:19])([H:8])([H:9])[H:10]>>[C:1]([C:2][C:3]([C:4]1([C:7]([H:11])([H:18])[H:19])[C:5]([H:14])([H:15])[C:6]1([H:16])[H:17])([H:12])[H:13])([H:8])([H:9])[H:10]"
C       -2.68541911       0.13413662      -0.19869737
C       -1.35749285      -0.52887319      -0.28206270
C       -0.27177972       0.28101322      -0.95077559
C        0.84513562       0.03280681       0.04185281
C        2.03746484      -0.80262148      -0.29079536
C        2.19075121       0.66889824      -0.00908447
C        0.02304533      -0.21874837       1.28405683
H       -3.26965314      -0.14633119      -1.08059601
H       -2.66599444       1.22965190      -0.11986398
H       -3.22388449      -0.25138523       0.67344135
H       -0.80277838      -1.21278069       0.86844270
H       -0.08158621      -0.10514083      -1.95760692
H       -0.51536810       1.35147380      -1.01460102
H        2.15053151      -1.14326563      -1.31226014
H        2.39414627      -1.50223561       0.45503662
H        2.40750458       1.32147939      -0.84629090
H        2.63963764       0.96643092       0.93072664
H       -0.35133692       0.70154702       1.73927355
H        0.53707635      -0.77605571       2.06980397
19
Frame=10 idx=010401 GeodesicLength=0.5856061715243188 rxn_smarts="[C:1]([C:2]1([H:11])[C:3]([H:12])([H:13])[C:4]2([C:5]([H:14])([H:15])[C:6]2([H:16])[H:17])[C:7]1([H:18])[H:19])([H:8])([H:9])[H:10]>>[C:1]([C:2][C:3]([C:4]1([C:7]([H:11])([H:18])[H:19])[C:5]([H:14])([H:15])[C:6]1([H:16])[H:17])([H:12])[H:13])([H:8])([H:9])[H:10]"
C       -2.69343612       0.13393001      -0.21533455
C       -1.35747762      -0.51487607      -0.27011612
C       -0.27212105       0.29163267      -0.94010082
C        0.84799122       0.03446124       0.04699124
C        2.03589038      -0.80312916      -0.29515204
C        2.19497413       0.66684629      -0.00813046
C        0.02711703      -0.22111469       1.29022203
H       -3.28097007      -0.18325188      -1.08195116
H       -2.68703180       1.23110118      -0.16859506
H       -3.22091381      -0.22770652       0.67411804
H       -0.80121337      -1.23292646       0.87625436
H       -0.08987791      -0.09609944      -1.94809169
H       -0.51297721       1.36271459      -1.00077318
H        2.14330522      -1.14028661      -1.31841266
H        2.39434079      -1.50667016       0.44611838
H        2.40954726       1.32167895      -0.84419377
H        2.64805294       0.95925281       0.93128464
H       -0.33364413       0.70115312       1.75349017
H        0.54844410      -0.77670986       2.07237262
19
Frame=11 idx=010401 GeodesicLength=0.64400701703871 rxn_smarts="[C:1]([C:2]1([H:11])[C:3]([H:12])([H:13])[C:4]2([C:5]([H:14])([H:15])[C:6]2([H:16])[H:17])[C:7]1([H:18])[H:19])([H:8])([H:9])[H:10]>>[C:1]([C:2][C:3]([C:4]1([C:7]([H:11])([H:18])[H:19])[C:5]([H:14])([H:15])[C:6]1([H:16])[H:17])([H:12])[H:13])([H:8])([H:9])[H:10]"
C       -2.70136051       0.13328232      -0.23241062
C       -1.35762746      -0.50031166      -0.25739064
C       -0.27258902       0.30257820      -0.92892362
C        0.85083284       0.03620957       0.05231292
C        2.03409424      -0.80354204      -0.29970316
C        2.19919932       0.66478273      -0.00719098
C        0.03139996      -0.22354017       1.29668811
H       -3.29159455      -0.22150561      -1.08189311
H       -2.70786577       1.23106472      -0.21989371
H       -3.21847031      -0.20177758       0.67392700
H       -0.79966129      -1.25310056       0.88396276
H       -0.09853228      -0.08659789      -1.93810017
H       -0.51074167       1.37427568      -0.98619279
H        2.13563278      -1.13702810      -1.32479342
H        2.39438864      -1.51114822       0.43678144
H        2.41147940       1.32199364      -0.84202570
H        2.65666487       0.95185347       0.93175009
H       -0.31520998       0.70048698       1.76828966
H        0.55996077      -0.77797547       2.07480594
19
Frame=12 idx=010401 GeodesicLength=0.7023519545650129 rxn_smarts="[C:1]([C:2]1([H:11])[C:3]([H:12])([H:13])[C:4]2([C:5]([H:14])([H:15])[C:6]2([H:16])[H:17])[C:7]1([H:18])[H:19])([H:8])([H:9])[H:10]>>[C:1]([C:2][C:3]([C:4]1([C:7]([H:11])([H:18])[H:19])[C:5]([H:14])([H:15])[C:6]1([H:16])[H:17])([H:12])[H:13])([H:8])([H:9])[H:10]"
C       -2.70915593       0.13214193      -0.24992278
C       -1.35795957      -0.48512733      -0.24383592
C       -0.27319419       0.31387636      -0.91721229
C        0.85365233       0.03806175       0.05782663
C        2.03204621      -0.80385585      -0.30446071
C        2.20341970       0.66270525      -0.00628010
C        0.03590389      -0.22601120       1.30347443
H       -3.30146073      -0.26100703      -1.08027641
H       -2.72835077       1.22929381      -0.27380776
H       -3.21664001      -0.17354369       0.67264818
H       -0.79814705      -1.27328629       0.89157151
H       -0.10757211      -0.07660459      -1.92759877
H       -0.50868044       1.38618041      -0.97081463
H        2.12746607      -1.13347966      -1.33141267
H        2.39425986      -1.51567126       0.42700068
H        2.41328904       1.32242346      -0.83979915
H        2.66548284       0.94421987       0.93209712
H       -0.29599480       0.69954332       1.78369404
H        0.57163566      -0.77985928       2.07710859
19
Frame=13 idx=010401 GeodesicLength=0.7606294515086176 rxn_smarts="[C:1]([C:2]1([H:11])[C:3]([H:12])([H:13])[C:4]2([C:5]([H:14])([H:15])[C:6]2([H:16])[H:17])[C:7]1([H:18])[H:19])([H:8])([H:9])[H:10]>>[C:1]([C:2][C:3]([C:4]1([C:7]([H:11])([H:18])[H:19])[C:5]([H:14])([H:15])[C:6]1([H:16])[H:17])([H:12])[H:13])([H:8])([H:9])[H:10]"
C       -2.71678024       0.13045053      -0.26786387
C       -1.35849612      -0.46926103      -0.22938806
C       -0.27395243       0.32555667      -0.90492958
C        0.85644028       0.04002924       0.06354196
C        2.02971047      -0.80406869      -0.30943699
C        2.20762934       0.66060844      -0.00541590
C        0.04063977      -0.22850370       1.31059939
H       -3.31046544      -0.30164767      -1.07698636
H       -2.74832854       1.22553275      -0.33032619
H       -3.21553551      -0.14299449       0.67002490
H       -0.79669732      -1.29345076       0.89908153
H       -0.11703137      -0.06609040      -1.91654914
H       -0.50681669       1.39845514      -0.95459079
H        2.11874627      -1.12963802      -1.33827899
H        2.39391947      -1.52024219       0.41675212
H        2.41496483       1.32296110      -0.83753154
H        2.67452314       0.93633559       0.93229385
H       -0.27595103       0.69832422       1.79972309
H        0.58348112      -0.78235673       2.07928056
19
Frame=14 idx=010401 GeodesicLength=0.8188454401145553 rxn_smarts="[C:1]([C:2]1([H:11])[C:3]([H:12])([H:13])[C:4]2([C:5]([H:14])([H:15])[C:6]2([H:16])[H:17])[C:7]1([H:18])[H:19])([H:8])([H:9])[H:10]>>[C:1]([C:2][C:3]([C:4]1([C:7]([H:11])([H:18])[H:19])[C:5]([H:14])([H:15])[C:6]1([H:16])[H:17])([H:12])[H:13])([H:8])([H:9])[H:10]"
C       -2.72418043       0.12814738      -0.28622211
C       -1.35926051      -0.45265042      -0.21398348
C       -0.27487699       0.33763832      -0.89203937
C        0.85918533       0.04212287       0.06946673
C        2.02705025      -0.80417354      -0.31464032
C        2.21181750       0.65848866      -0.00461985
C        0.04561656      -0.23099536       1.31808220
H       -3.31855056      -0.34325311      -1.07194335
H       -2.76760195       1.21950535      -0.38939003
H       -3.21525380      -0.11014945       0.66579514
H       -0.79533982      -1.31356562       0.90649773
H       -0.12693751      -0.05503919      -1.90490714
H       -0.50517100       1.41111387      -0.93748411
H        2.10941751      -1.12549506      -1.34539353
H        2.39333047      -1.52485332       0.40601568
H        2.41649083       1.32359940      -0.83524422
H        2.68379236       0.92819158       0.93230009
H       -0.25503236       0.69682874       1.81638924
H        0.59550413      -0.78546109       2.08132070
19
Frame=15 idx=010401 GeodesicLength=0.8770157984305693 rxn_smarts="[C:1]([C:2]1([H:11])[C:3]([H:12])([H:13])[C:4]2([C:5]([H:14])([H:15])[C:6]2([H:16])[H:17])[C:7]1([H:18])[H:19])([H:8])([H:9])[H:10]>>[C:1]([C:2][C:3]([C:4]1([C:7]([H:11])([H:18])[H:19])[C:5]([H:14])([H:15])[C:6]1([H:16])[H:17])([H:12])[H:13])([H:8])([H:9])[H:10]"
C       -2.73129601       0.12517165      -0.30497106
C       -1.36027897      -0.43521704      -0.19755264
C       -0.27598298       0.35014978      -0.87850462
C        0.86187553       0.04435579       0.07560986
C        2.02402439      -0.80416561      -0.32008158
C        2.21597399       0.65634219      -0.00390880
C        0.05084391      -0.23346292       1.32594087
H       -3.32566798      -0.38564694      -1.06503676
H       -2.78596216       1.21090571      -0.45097037
H       -3.21588325      -0.07503499       0.65967833
H       -0.79410478      -1.33359781       0.91381557
H       -0.13732403      -0.04342721      -1.89262962
H       -0.50376245       1.42418283      -0.91945843
H        2.09941690      -1.12104027      -1.35276185
H        2.39245001      -1.52950464       0.39476728
H        2.41785258       1.32433417      -0.83295167
H        2.69330156       0.91977156       0.93208381
H       -0.23318715       0.69505446       1.83370715
H        0.60771086      -0.78917074       2.08322451
19
Frame=16 idx=010401 GeodesicLength=0.9351878416296294 rxn_smarts="[C:1]([C:2]1([H:11])[C:3]([H:12])([H:13])[C:4]2([C:5]([H:14])([H:15])[C:6]2([H:16])[H:17])[C:7]1([H:18])[H:19])([H:8])([H:9])[H:10]>>[C:1]([C:2][C:3]([C:4]1([C:7]([H:11])([H:18])[H:19])[C:5]([H:14])([H:15])[C:6]1([H:16])[H:17])([H:12])[H:13])([H:8])([H:9])[H:10]"
C       -2.73805597       0.12145574      -0.32407829
C       -1.36158025      -0.41686475      -0.18002465
C       -0.27728439       0.36313183      -0.86429050
C        0.86449693       0.04674409       0.08198180
C        2.02058768      -0.80403804      -0.32577843
C        2.22008600       0.65416786      -0.00329166
C        0.05632929      -0.23589217       1.33419813
H       -3.33180197      -0.42868976      -1.05609532
H       -2.80317782       1.19937624      -0.51509868
H       -3.21748108      -0.03760688       0.65138783
H       -0.79302789      -1.35352212       0.92102033
H       -0.14822427      -0.03121565      -1.87968198
H       -0.50260627       1.43770353      -0.90047812
H        2.08868080      -1.11625227      -1.36040312
H        2.39122855      -1.53420579       0.38297016
H        2.41903418       1.32517546      -0.83065427
H        2.70305832       0.91105160       0.93162694
H       -0.21036301       0.69298712       1.85170215
H        0.62010116      -0.79350604       2.08498767
