11
Frame=0 idx=002654 GeodesicLength=0.0 rxn_smarts="[C:1]([n:2]1[c:3]([H:10])[n:4][n:5][c:6]1[H:11])([H:7])([H:8])[H:9]>>[C:1](/[N:2]=[C:3](/[N-:4][N+:5]#[C:6][H:11])[H:10])([H:7])([H:8])[H:9]"
C       -1.66570431       0.18736611       0.03017351
N       -0.24133259      -0.04029730       0.01702606
C        0.56035530       0.94186222      -0.04604569
N        1.94228195       0.80082537      -0.08189418
N        2.15326624      -0.46814405      -0.04213844
C        1.66241833      -1.52723253      -0.02033048
H       -2.12805571      -0.31031065      -0.82525279
H       -1.93416254       1.25022518      -0.00510111
H       -2.10174015      -0.24673821       0.93267140
H        0.24651241       1.98465220      -0.08297790
H        1.50616106      -2.57220831       0.12386960
11
Frame=1 idx=002654 GeodesicLength=0.04786841399346589 rxn_smarts="[C:1]([n:2]1[c:3]([H:10])[n:4][n:5][c:6]1[H:11])([H:7])([H:8])[H:9]>>[C:1](/[N:2]=[C:3](/[N-:4][N+:5]#[C:6][H:11])[H:10])([H:7])([H:8])[H:9]"
C       -1.65840558       0.18008038       0.03027324
N       -0.23244748      -0.03922576       0.01486277
C        0.56607451       0.94985969      -0.03480509
N        1.94415732       0.80178082      -0.08343320
N        2.15501040      -0.46866320      -0.03737767
C        1.63408234      -1.51739593      -0.02577164
H       -2.11899315      -0.31960247      -0.82482295
H       -1.93276366       1.24124644      -0.00522318
H       -2.09138264      -0.25524698       0.93362117
H        0.24878486       1.99039985      -0.09100222
H        1.48588306      -2.56323285       0.12367877
11
Frame=2 idx=002654 GeodesicLength=0.0955286741430108 rxn_smarts="[C:1]([n:2]1[c:3]([H:10])[n:4][n:5][c:6]1[H:11])([H:7])([H:8])[H:9]>>[C:1](/[N:2]=[C:3](/[N-:4][N+:5]#[C:6][H:11])[H:10])([H:7])([H:8])[H:9]"
C       -1.65136654       0.17292386       0.02853768
N       -0.22394667      -0.03833280       0.00942653
C        0.57165155       0.95732008      -0.02509254
N        1.94570308       0.80228099      -0.08913696
N        2.15617749      -0.47001424      -0.04663014
C        1.60656083      -1.50763766      -0.02672992
H       -2.11089074      -0.32669890      -0.82704205
H       -1.93131623       1.23252052      -0.00459756
H       -2.08077766      -0.26553274       0.93202889
H        0.25147812       1.99641125      -0.08518508
H        1.46672678      -2.55324037       0.13442115
11
Frame=3 idx=002654 GeodesicLength=0.14327432245720895 rxn_smarts="[C:1]([n:2]1[c:3]([H:10])[n:4][n:5][c:6]1[H:11])([H:7])([H:8])[H:9]>>[C:1](/[N:2]=[C:3](/[N-:4][N+:5]#[C:6][H:11])[H:10])([H:7])([H:8])[H:9]"
C       -1.64437378       0.16588363       0.02863572
N       -0.21553173      -0.03725564       0.00645240
C        0.57700310       0.96468256      -0.01933793
N        1.94739921       0.80304201      -0.08558012
N        2.15751198      -0.47095911      -0.04259188
C        1.58029398      -1.49743326      -0.02980730
H       -2.10315826      -0.33899256      -0.82413482
H       -1.93000349       1.22364437      -0.00851471
H       -2.06974987      -0.27017504       0.93514857
H        0.25393340       2.00191442      -0.09023263
H        1.44667545      -2.54435139       0.12996270
11
Frame=4 idx=002654 GeodesicLength=0.19127846644917057 rxn_smarts="[C:1]([n:2]1[c:3]([H:10])[n:4][n:5][c:6]1[H:11])([H:7])([H:8])[H:9]>>[C:1](/[N:2]=[C:3](/[N-:4][N+:5]#[C:6][H:11])[H:10])([H:7])([H:8])[H:9]"
C       -1.63749833       0.15892420       0.02890287
N       -0.20728471      -0.03612254       0.00358670
C        0.58225816       0.97196534      -0.01459715
N        1.94914947       0.80382707      -0.08089248
N        2.15883871      -0.47188104      -0.03714500
C        1.55491040      -1.48716389      -0.03250911
H       -2.09566280      -0.35222042      -0.82037364
H       -1.92874768       1.21477853      -0.01345559
H       -2.05870736      -0.27364233       0.93901773
H        0.25632570       2.00732633      -0.09575717
H        1.42641846      -2.53579126       0.12322285
11
Frame=5 idx=002654 GeodesicLength=0.23892464477041547 rxn_smarts="[C:1]([n:2]1[c:3]([H:10])[n:4][n:5][c:6]1[H:11])([H:7])([H:8])[H:9]>>[C:1](/[N:2]=[C:3](/[N-:4][N+:5]#[C:6][H:11])[H:10])([H:7])([H:8])[H:9]"
C       -1.63085842       0.15208423       0.02739016
N       -0.19934076      -0.03513674       0.00148547
C        0.58748689       0.97870871      -0.00752204
N        1.95046198       0.80404345      -0.08309147
N        2.15955147      -0.47365258      -0.04617854
C        1.53010337      -1.47706691      -0.03285049
H       -2.08688284      -0.36522606      -0.81914977
H       -1.92740641       1.20602468      -0.02071308
H       -2.04961415      -0.27685745       0.94027982
H        0.25912658       2.01306986      -0.08686400
H        1.40737227      -2.52599120       0.12721396
11
Frame=6 idx=002654 GeodesicLength=0.28694227728072674 rxn_smarts="[C:1]([n:2]1[c:3]([H:10])[n:4][n:5][c:6]1[H:11])([H:7])([H:8])[H:9]>>[C:1](/[N:2]=[C:3](/[N-:4][N+:5]#[C:6][H:11])[H:10])([H:7])([H:8])[H:9]"
C       -1.62424297       0.14532850       0.02762284
N       -0.19141090      -0.03396215       0.00348325
C        0.59260088       0.98563486      -0.00186832
N        1.95198115       0.80457430      -0.07800951
N        2.16044346      -0.47502360      -0.04480882
C        1.50619311      -1.46665639      -0.03593717
H       -2.07725939      -0.38362737      -0.81319752
H       -1.92612919       1.19690481      -0.03323388
H       -2.04130533      -0.27418417       0.94561412
H        0.26164178       2.01838080      -0.08734613
H        1.38748739      -2.51736959       0.11768114
11
Frame=7 idx=002654 GeodesicLength=0.3349060586273926 rxn_smarts="[C:1]([n:2]1[c:3]([H:10])[n:4][n:5][c:6]1[H:11])([H:7])([H:8])[H:9]>>[C:1](/[N:2]=[C:3](/[N-:4][N+:5]#[C:6][H:11])[H:10])([H:7])([H:8])[H:9]"
C       -1.61779060       0.13865612       0.02722454
N       -0.18375117      -0.03287683       0.00240494
C        0.59765106       0.99231780       0.00322404
N        1.95335981       0.80484926      -0.07508540
N        2.16116857      -0.47659642      -0.04621421
C        1.48308037      -1.45628992      -0.03688649
H       -2.06887651      -0.39904717      -0.80896965
H       -1.92480982       1.18800954      -0.04253375
H       -2.03215779      -0.27432586       0.94936463
H        0.26422531       2.02364953      -0.08515287
H        1.36790076      -2.50834605       0.11262423
11
Frame=8 idx=002654 GeodesicLength=0.382898484187816 rxn_smarts="[C:1]([n:2]1[c:3]([H:10])[n:4][n:5][c:6]1[H:11])([H:7])([H:8])[H:9]>>[C:1](/[N:2]=[C:3](/[N-:4][N+:5]#[C:6][H:11])[H:10])([H:7])([H:8])[H:9]"
C       -1.61146048       0.13205474       0.02652877
N       -0.17629451      -0.03182979       0.00003004
C        0.60260612       0.99875022       0.00759426
N        1.95464364       0.80502233      -0.07312935
N        2.16179969      -0.47829919      -0.04843856
C        1.46069230      -1.44596050      -0.03697817
H       -2.06105838      -0.41376016      -0.80506443
H       -1.92350183       1.17917236      -0.05124353
H       -2.02266847      -0.27493554       0.95269036
H        0.26683943       2.02898834      -0.08098533
H        1.34840251      -2.49920281       0.10899596
11
Frame=9 idx=002654 GeodesicLength=0.4310592340648848 rxn_smarts="[C:1]([n:2]1[c:3]([H:10])[n:4][n:5][c:6]1[H:11])([H:7])([H:8])[H:9]>>[C:1](/[N:2]=[C:3](/[N-:4][N+:5]#[C:6][H:11])[H:10])([H:7])([H:8])[H:9]"
C       -1.60519959       0.12554910       0.02687713
N       -0.16888123      -0.03071478       0.00359110
C        0.60754604       1.00526593       0.01271563
N        1.95582023       0.80516665      -0.07034404
N        2.16246925      -0.47989545      -0.04456955
C        1.43903173      -1.43541926      -0.03952073
H       -2.05100188      -0.43447615      -0.79716641
H       -1.92201838       1.16968362      -0.06742076
H       -2.01570823      -0.26861648       0.95884168
H        0.26929447       2.03411472      -0.07863444
H        1.32864759      -2.49065788       0.09563038
11
Frame=10 idx=002654 GeodesicLength=0.4792724610555748 rxn_smarts="[C:1]([n:2]1[c:3]([H:10])[n:4][n:5][c:6]1[H:11])([H:7])([H:8])[H:9]>>[C:1](/[N:2]=[C:3](/[N-:4][N+:5]#[C:6][H:11])[H:10])([H:7])([H:8])[H:9]"
C       -1.59906276       0.11911543       0.02694189
N       -0.16165096      -0.02962030       0.00661759
C        0.61240732       1.01160683       0.01804295
N        1.95696800       0.80522576      -0.06680504
N        2.16293026      -0.48168627      -0.04441662
C        1.41790079      -1.42494785      -0.04118103
H       -2.04107513      -0.45475076      -0.78946363
H       -1.92044007       1.16007363      -0.08357083
H       -2.00894063      -0.26235137       0.96441060
H        0.27178521       2.03923766      -0.07481776
H        1.30917796      -2.48190277       0.08424186
11
Frame=11 idx=002654 GeodesicLength=0.5276691548074991 rxn_smarts="[C:1]([n:2]1[c:3]([H:10])[n:4][n:5][c:6]1[H:11])([H:7])([H:8])[H:9]>>[C:1](/[N:2]=[C:3](/[N-:4][N+:5]#[C:6][H:11])[H:10])([H:7])([H:8])[H:9]"
C       -1.59300140       0.11273757       0.02731606
N       -0.15453358      -0.02855287       0.01280910
C        0.61726338       1.01785014       0.02401826
N        1.95800314       0.80521865      -0.06352038
N        2.16330835      -0.48352489      -0.04335604
C        1.39733811      -1.41443457      -0.04438894
H       -2.02981224      -0.47800749      -0.77966426
H       -1.91850477       1.14979204      -0.10401978
H       -2.00394320      -0.25221870       0.97083501
H        0.27419259       2.04428078      -0.06978787
H        1.28968963      -2.47314066       0.06975885
11
Frame=12 idx=002654 GeodesicLength=0.576174469865024 rxn_smarts="[C:1]([n:2]1[c:3]([H:10])[n:4][n:5][c:6]1[H:11])([H:7])([H:8])[H:9]>>[C:1](/[N:2]=[C:3](/[N-:4][N+:5]#[C:6][H:11])[H:10])([H:7])([H:8])[H:9]"
C       -1.58702913       0.10641080       0.02787354
N       -0.14757505      -0.02750365       0.01931721
C        0.62204288       1.02400105       0.02959316
N        1.95899594       0.80513881      -0.05957861
N        2.16362430      -0.48542350      -0.04130845
C        1.37733274      -1.40389345      -0.04757189
H       -2.01856709      -0.50174397      -0.76882037
H       -1.91634565       1.13906789      -0.12525889
H       -1.99927727      -0.24096664       0.97739773
H        0.27655155       2.04923176      -0.06520088
H        1.27024678      -2.46431910       0.05355746
11
Frame=13 idx=002654 GeodesicLength=0.6247273627098919 rxn_smarts="[C:1]([n:2]1[c:3]([H:10])[n:4][n:5][c:6]1[H:11])([H:7])([H:8])[H:9]>>[C:1](/[N:2]=[C:3](/[N-:4][N+:5]#[C:6][H:11])[H:10])([H:7])([H:8])[H:9]"
C       -1.58116155       0.10015035       0.02814131
N       -0.14079596      -0.02651819       0.02558307
C        0.62678545       1.02996579       0.03523482
N        1.95984667       0.80495187      -0.05707614
N        2.16381999      -0.48742710      -0.04095445
C        1.35784777      -1.39343104      -0.04996058
H       -2.00735819      -0.52504057      -0.75804484
H       -1.91390440       1.12806444      -0.14665798
H       -1.99502693      -0.22956271       0.98320488
H        0.27885466       2.05419167      -0.05827204
H        1.25109250      -2.45534451       0.03880195
11
Frame=14 idx=002654 GeodesicLength=0.6732671601335786 rxn_smarts="[C:1]([n:2]1[c:3]([H:10])[n:4][n:5][c:6]1[H:11])([H:7])([H:8])[H:9]>>[C:1](/[N:2]=[C:3](/[N-:4][N+:5]#[C:6][H:11])[H:10])([H:7])([H:8])[H:9]"
C       -1.57540772       0.09397188       0.02807483
N       -0.13420395      -0.02561211       0.03126209
C        0.63148067       1.03572787       0.04085458
N        1.96052420       0.80466671      -0.05608951
N        2.16388896      -0.48952093      -0.04238658
C        1.33889984      -1.38306829      -0.05121248
H       -1.99636171      -0.54752593      -0.74759924
H       -1.91120622       1.11689906      -0.16774026
H       -1.99102972      -0.21841362       0.98814836
H        0.28110374       2.05914014      -0.04908131
H        1.23231191      -2.44626477       0.02576952
11
Frame=15 idx=002654 GeodesicLength=0.7218534531715973 rxn_smarts="[C:1]([n:2]1[c:3]([H:10])[n:4][n:5][c:6]1[H:11])([H:7])([H:8])[H:9]>>[C:1](/[N:2]=[C:3](/[N-:4][N+:5]#[C:6][H:11])[H:10])([H:7])([H:8])[H:9]"
C       -1.56975334       0.08786556       0.02800923
N       -0.12777785      -0.02476401       0.03688720
C        0.63610944       1.04135287       0.04620682
N        1.96108575       0.80431662      -0.05559731
N        2.16390238      -0.49165922      -0.04351539
C        1.32047082      -1.37276699      -0.05200702
H       -1.98550578      -0.56978040      -0.73673878
H       -1.90825776       1.10543475      -0.18892062
H       -1.98732617      -0.20685915       0.99277030
H        0.28328320       2.06399802      -0.03941283
H        1.21376930      -2.43713805       0.01231840
11
Frame=16 idx=002654 GeodesicLength=0.7704460813292967 rxn_smarts="[C:1]([n:2]1[c:3]([H:10])[n:4][n:5][c:6]1[H:11])([H:7])([H:8])[H:9]>>[C:1](/[N:2]=[C:3](/[N-:4][N+:5]#[C:6][H:11])[H:10])([H:7])([H:8])[H:9]"
C       -1.56420788       0.08183733       0.02795099
N       -0.12152077      -0.02398108       0.04215322
C        0.64066181       1.04683813       0.05112436
N        1.96152952       0.80389524      -0.05563201
N        2.16388131      -0.49384599      -0.04391513
C        1.30257094      -1.36254150      -0.05225896
H       -1.97496163      -0.59153673      -0.72559498
H       -1.90511784       1.09374798      -0.20978303
H       -1.98373482      -0.19520967       0.99705445
H        0.28540169       2.06875165      -0.02953391
H        1.19549767      -2.42795535      -0.00156499
