12
Frame=0 idx=000537 GeodesicLength=0.0 rxn_smarts="[C:1]1([H:7])([H:8])[C@:2]2([H:9])[O:3][C:4]([H:10])([H:11])[O:5][C@:6]12[H:12]>>[C:1]1([H:7])=[C:6]([H:12])[C:2]1([O:3][C:4]([O:5][H:8])([H:10])[H:11])[H:9]"
C        1.47979524       0.25198144       0.38466224
C        0.49659834      -0.86609033       0.38282947
O       -0.76837044      -0.60726199       1.02213546
C       -1.47646556       0.22203864       0.17823627
O       -0.51145076       1.06169432      -0.51060293
C        0.68430646       0.00468612      -0.78470775
H        2.55055274       0.12247542       0.44381620
H        0.20767411       1.35311013       0.24979686
H        0.71626094      -1.92663673       0.34386994
H       -2.01003937      -0.31121341      -0.61534772
H       -2.15076644       0.85589574       0.75258736
H        0.78190477      -0.16067939      -1.84727535
12
Frame=1 idx=000537 GeodesicLength=0.08760434378791782 rxn_smarts="[C:1]1([H:7])([H:8])[C@:2]2([H:9])[O:3][C:4]([H:10])([H:11])[O:5][C@:6]12[H:12]>>[C:1]1([H:7])=[C:6]([H:12])[C:2]1([O:3][C:4]([O:5][H:8])([H:10])[H:11])[H:9]"
C        1.47790626       0.24841248       0.37649359
C        0.49409140      -0.86946214       0.38197315
O       -0.76983127      -0.60908840       1.01825723
C       -1.47878788       0.22506563       0.17734254
O       -0.52073332       1.07589871      -0.50091088
C        0.68356664      -0.00367510      -0.79028686
H        2.54933089       0.13050827       0.44279589
H        0.22621563       1.36327705       0.25878847
H        0.71749905      -1.92942956       0.35268546
H       -2.00537315      -0.31011062      -0.62008944
H       -2.15987158       0.84823189       0.75507621
H        0.78598733      -0.16962822      -1.85212536
12
Frame=2 idx=000537 GeodesicLength=0.1751527235962166 rxn_smarts="[C:1]1([H:7])([H:8])[C@:2]2([H:9])[O:3][C:4]([H:10])([H:11])[O:5][C@:6]12[H:12]>>[C:1]1([H:7])=[C:6]([H:12])[C:2]1([O:3][C:4]([O:5][H:8])([H:10])[H:11])[H:9]"
C        1.47597016       0.24484146       0.36815360
C        0.49156457      -0.87281756       0.38109907
O       -0.77131661      -0.61089566       1.01433606
C       -1.48115253       0.22810539       0.17645437
O       -0.53017165       1.09039316      -0.49061330
C        0.68277656      -0.01219790      -0.79597953
H        2.54794160       0.13873696       0.44161128
H        0.24526315       1.37341217       0.26789976
H        0.71877451      -1.93209957       0.36168521
H       -2.00053115      -0.30872614      -0.62506072
H       -2.16921337       0.84021532       0.75744169
H        0.79009476      -0.17896763      -1.85702747
12
Frame=3 idx=000537 GeodesicLength=0.26267303353599025 rxn_smarts="[C:1]1([H:7])([H:8])[C@:2]2([H:9])[O:3][C:4]([H:10])([H:11])[O:5][C@:6]12[H:12]>>[C:1]1([H:7])=[C:6]([H:12])[C:2]1([O:3][C:4]([O:5][H:8])([H:10])[H:11])[H:9]"
C        1.47397806       0.24127579       0.35963246
C        0.48901972      -0.87615475       0.38020739
O       -0.77282971      -0.61269057       1.01036481
C       -1.48355803       0.23116167       0.17557189
O       -0.53977145       1.10517849      -0.47967740
C        0.68193376      -0.02089412      -0.80179255
H        2.54636122       0.14717660       0.44025605
H        0.26484306       1.38350980       0.27714205
H        0.72009620      -1.93463682       0.37087695
H       -1.99550718      -0.30703727      -0.63026912
H       -2.17879285       0.83183352       0.75967203
H        0.79422721      -0.18872233      -1.86198456
12
Frame=4 idx=000537 GeodesicLength=0.35018258286930626 rxn_smarts="[C:1]1([H:7])([H:8])[C@:2]2([H:9])[O:3][C:4]([H:10])([H:11])[O:5][C@:6]12[H:12]>>[C:1]1([H:7])=[C:6]([H:12])[C:2]1([O:3][C:4]([O:5][H:8])([H:10])[H:11])[H:9]"
C        1.47192122       0.23772448       0.35091911
C        0.48645930      -0.87947219       0.37929817
O       -0.77437445      -0.61448130       1.00633492
C       -1.48600206       0.23423895       0.17469574
O       -0.54953846       1.12025697      -0.46806347
C        0.68103636      -0.02977808      -0.80773361
H        2.54456277       0.15584388       0.43872362
H        0.28498175       1.39356204       0.28652447
H        0.72147397      -1.93702999       0.38027012
H       -1.99029348      -0.30501701      -0.63572243
H       -2.18861119       0.82307207       0.76175331
H        0.79838425      -0.19891982      -1.86699995
12
Frame=5 idx=000537 GeodesicLength=0.43770555323063937 rxn_smarts="[C:1]1([H:7])([H:8])[C@:2]2([H:9])[O:3][C:4]([H:10])([H:11])[O:5][C@:6]12[H:12]>>[C:1]1([H:7])=[C:6]([H:12])[C:2]1([O:3][C:4]([O:5][H:8])([H:10])[H:11])[H:9]"
C        1.46978996       0.23419965       0.34200501
C        0.48388563      -0.88276544       0.37837246
O       -0.77595486      -0.61627493       1.00223818
C       -1.48848314       0.23734129       0.17382551
O       -0.55948317       1.13562620      -0.45573998
C        0.68008312      -0.03885942      -0.81380837
H        2.54252402       0.16474282       0.43700382
H        0.30570173       1.40356509       0.29605745
H        0.72291946      -1.93926645       0.38987319
H       -1.98488318      -0.30264212      -0.64142903
H       -2.19866898       0.81391859       0.76367548
H        0.80256942      -0.20958529      -1.87207374
12
Frame=6 idx=000537 GeodesicLength=0.5252428465119416 rxn_smarts="[C:1]1([H:7])([H:8])[C@:2]2([H:9])[O:3][C:4]([H:10])([H:11])[O:5][C@:6]12[H:12]>>[C:1]1([H:7])=[C:6]([H:12])[C:2]1([O:3][C:4]([O:5][H:8])([H:10])[H:11])[H:9]"
C        1.46757398       0.23071349       0.33287850
C        0.48130202      -0.88603055       0.37743174
O       -0.77757595      -0.61807987       0.99806453
C       -1.49100030       0.24047332       0.17296129
O       -0.56961169       1.15129040      -0.44265469
C        0.67907247      -0.04815394      -0.82002441
H        2.54021878       0.17388367       0.43508165
H        0.32702937       1.41350814       0.30574968
H        0.72444597      -1.94132922       0.39970122
H       -1.97926573      -0.29988014      -0.64739881
H       -2.20897090       0.80435371       0.76541762
H        0.80678197      -0.22074902      -1.87720831
12
Frame=7 idx=000537 GeodesicLength=0.6128212128957055 rxn_smarts="[C:1]1([H:7])([H:8])[C@:2]2([H:9])[O:3][C:4]([H:10])([H:11])[O:5][C@:6]12[H:12]>>[C:1]1([H:7])=[C:6]([H:12])[C:2]1([O:3][C:4]([O:5][H:8])([H:10])[H:11])[H:9]"
C        1.46526313       0.22727641       0.32352756
C        0.47871178      -0.88926442       0.37647674
O       -0.77924179      -0.61990589       0.99380401
C       -1.49354966       0.24364039       0.17210419
O       -0.57993542       1.16724611      -0.42876912
C        0.67800291      -0.05767665      -0.82638891
H        2.53761288       0.18327931       0.43294801
H        0.34899154       1.42338523       0.31561431
H        0.72606745      -1.94320489       0.40976489
H       -1.97343208      -0.29670146      -0.65363970
H       -2.21951421       0.79436544       0.76696386
H        0.81102347      -0.23243959      -1.88240585
12
Frame=8 idx=000537 GeodesicLength=0.7004355782524718 rxn_smarts="[C:1]1([H:7])([H:8])[C@:2]2([H:9])[O:3][C:4]([H:10])([H:11])[O:5][C@:6]12[H:12]>>[C:1]1([H:7])=[C:6]([H:12])[C:2]1([O:3][C:4]([O:5][H:8])([H:10])[H:11])[H:9]"
C        1.46284283       0.22391226       0.31394456
C        0.47611836      -0.89245659       0.37551185
O       -0.78096093      -0.62176076       0.98944452
C       -1.49613313       0.24684734       0.17125302
O       -0.59046809       1.18349463      -0.41402616
C        0.67687399      -0.06743828      -0.83290648
H        2.53469770       0.19291418       0.43057216
H        0.37160946       1.43318519       0.32566066
H        0.72780090      -1.94486759       0.42008340
H       -1.96737072      -0.29307505      -0.66016368
H       -2.23030881       0.78393165       0.76828896
H        0.81529843      -0.24468697      -1.88766281
12
Frame=9 idx=000537 GeodesicLength=0.7880980563410147 rxn_smarts="[C:1]1([H:7])([H:8])[C@:2]2([H:9])[O:3][C:4]([H:10])([H:11])[O:5][C@:6]12[H:12]>>[C:1]1([H:7])=[C:6]([H:12])[C:2]1([O:3][C:4]([O:5][H:8])([H:10])[H:11])[H:9]"
C        1.46030174       0.22063514       0.30412130
C        0.47352508      -0.89560143       0.37453845
O       -0.78273678      -0.62365506       0.98497732
C       -1.49874934       0.25009810       0.17041021
O       -0.60122968       1.20002733      -0.39839381
C        0.67568496      -0.07744681      -0.83957992
H        2.53143984       0.20278653       0.42794726
H        0.39490996       1.44290049       0.33588731
H        0.72966319      -1.94630034       0.43066340
H       -1.96107316      -0.28897262      -0.66697715
H       -2.24134841       0.77304276       0.76938087
H        0.81961261      -0.25751410      -1.89297522
12
Frame=10 idx=000537 GeodesicLength=0.8757882006467095 rxn_smarts="[C:1]1([H:7])([H:8])[C@:2]2([H:9])[O:3][C:4]([H:10])([H:11])[O:5][C@:6]12[H:12]>>[C:1]1([H:7])=[C:6]([H:12])[C:2]1([O:3][C:4]([O:5][H:8])([H:10])[H:11])[H:9]"
C        1.45762271       0.21747255       0.29404707
C        0.47093615      -0.89868675       0.37356258
O       -0.78458044      -0.62559616       0.98038650
C       -1.50139993       0.25339915       0.16957257
O       -0.61223306       1.21684499      -0.38178968
C        0.67443658      -0.08772047      -0.84641633
H        2.52783873       0.21287593       0.42502765
H        0.41890887       1.45252263       0.34630979
H        0.73167332      -1.94747013       0.44153477
H       -1.95452150      -0.28435161      -0.67409549
H       -2.25265040       0.76166804       0.77020142
H        0.82396897      -0.27095819      -1.89834084
12
Frame=11 idx=000537 GeodesicLength=0.9635144948024881 rxn_smarts="[C:1]1([H:7])([H:8])[C@:2]2([H:9])[O:3][C:4]([H:10])([H:11])[O:5][C@:6]12[H:12]>>[C:1]1([H:7])=[C:6]([H:12])[C:2]1([O:3][C:4]([O:5][H:8])([H:10])[H:11])[H:9]"
C        1.45478784       0.21444941       0.28371310
C        0.46835538      -0.90170136       0.37258981
O       -0.78650083      -0.62759431       0.97565836
C       -1.50408523       0.25675731       0.16873945
O       -0.62350135       1.23393863      -0.36416036
C        0.67312870      -0.09827338      -0.85341878
H        2.52388191       0.22316398       0.42178141
H        0.44362731       1.46204462       0.35693916
H        0.73385219      -1.94834943       0.45271682
H       -1.94770199      -0.27917213      -0.68152886
H       -2.26421887       0.74978601       0.77072401
H        0.82837494      -0.28504935      -1.90375410
12
Frame=12 idx=000537 GeodesicLength=1.0512764150057652 rxn_smarts="[C:1]1([H:7])([H:8])[C@:2]2([H:9])[O:3][C:4]([H:10])([H:11])[O:5][C@:6]12[H:12]>>[C:1]1([H:7])=[C:6]([H:12])[C:2]1([O:3][C:4]([O:5][H:8])([H:10])[H:11])[H:9]"
C        1.45177678       0.21159745       0.27310918
C        0.46578696      -0.90463205       0.37162543
O       -0.78850896      -0.62966110       0.97077630
C       -1.50680749       0.26017810       0.16791088
O       -0.63506124       1.25130009      -0.34542991
C        0.67176153      -0.10912002      -0.86059139
H        2.51956197       0.23362222       0.41816623
H        0.46908868       1.47145485       0.36778541
H        0.73622411      -1.94890114       0.46423664
H       -1.94059790      -0.27339258      -0.68928976
H       -2.27606197       0.73737469       0.77090910
H        0.83283753      -0.29982051      -1.90920811
12
Frame=13 idx=000537 GeodesicLength=1.1390350012308554 rxn_smarts="[C:1]1([H:7])([H:8])[C@:2]2([H:9])[O:3][C:4]([H:10])([H:11])[O:5][C@:6]12[H:12]>>[C:1]1([H:7])=[C:6]([H:12])[C:2]1([O:3][C:4]([O:5][H:8])([H:10])[H:11])[H:9]"
C        1.44856898       0.20894299       0.26222574
C        0.46323482      -0.90746662       0.37067566
O       -0.79061588      -0.63180937       0.96572330
C       -1.50956823       0.26366750       0.16708636
O       -0.64693579       1.26891272      -0.32552354
C        0.67033642      -0.12027602      -0.86793630
H        2.51487199       0.24422682       0.41414715
H        0.49530419       1.48075441       0.37884358
H        0.73881024      -1.94909644       0.47611512
H       -1.93319000      -0.26696625      -0.69739122
H       -2.28818313       0.72441408       0.77072822
H        0.83736639      -0.31530382      -1.91469407
12
Frame=14 idx=000537 GeodesicLength=1.2267879002640945 rxn_smarts="[C:1]1([H:7])([H:8])[C@:2]2([H:9])[O:3][C:4]([H:10])([H:11])[O:5][C@:6]12[H:12]>>[C:1]1([H:7])=[C:6]([H:12])[C:2]1([O:3][C:4]([O:5][H:8])([H:10])[H:11])[H:9]"
C        1.44514021       0.20652258       0.25104793
C        0.46070312      -0.91018876       0.36974628
O       -0.79283454      -0.63405145       0.96047947
C       -1.51237010       0.26723406       0.16626681
O       -0.65915547       1.28676219      -0.30435073
C        0.66885408      -0.13175934      -0.87545842
H        2.50981026       0.25494260       0.40967329
H        0.52229935       1.48992851       0.39012544
H        0.74163821      -1.94888818       0.48838735
H       -1.92545758      -0.25983621      -0.70584256
H       -2.30059611       0.71087137       0.77012840
H        0.84196857      -0.33153737      -1.92020325
12
Frame=15 idx=000537 GeodesicLength=1.3145186889970875 rxn_smarts="[C:1]1([H:7])([H:8])[C@:2]2([H:9])[O:3][C:4]([H:10])([H:11])[O:5][C@:6]12[H:12]>>[C:1]1([H:7])=[C:6]([H:12])[C:2]1([O:3][C:4]([O:5][H:8])([H:10])[H:11])[H:9]"
C        1.44146139       0.20437250       0.23956364
C        0.45819595      -0.91278228       0.36884519
O       -0.79517909      -0.63640235       0.95502369
C       -1.51521656       0.27088525       0.16545245
O       -0.67175654       1.30482327      -0.28182630
C        0.66731538      -0.14358794      -0.88315877
H        2.50438141       0.26573191       0.40469580
H        0.55009020       1.49897138       0.40163418
H        0.74473516      -1.94823470       0.50108199
H       -1.91737806      -0.25194637      -0.71465516
H       -2.31330562       0.69672504       0.76906667
H        0.84665638      -0.34855571      -1.92572339
12
Frame=16 idx=000537 GeodesicLength=1.402195081098499 rxn_smarts="[C:1]1([H:7])([H:8])[C@:2]2([H:9])[O:3][C:4]([H:10])([H:11])[O:5][C@:6]12[H:12]>>[C:1]1([H:7])=[C:6]([H:12])[C:2]1([O:3][C:4]([O:5][H:8])([H:10])[H:11])[H:9]"
C        1.43750437       0.20253229       0.22775216
C        0.45571788      -0.91522950       0.36797929
O       -0.79766446      -0.63887718       0.94933152
C       -1.51811069       0.27462976       0.16464460
O       -0.68477065       1.32307023      -0.25783621
C        0.66572206      -0.15578460      -0.89104314
H        2.49858275       0.27655912       0.39915990
H        0.57869407       1.50787226       0.41337330
H        0.74812947      -1.94708604       0.51423794
H       -1.90892254      -0.24322845      -0.72384037
H       -2.32632167       0.68194520       0.76748485
H        0.85143942      -0.36640309      -1.93124383
