10
Frame=0 idx=004761 GeodesicLength=0.0 rxn_smarts="[O:1]=[C:2]([C:3]([O:4][C:5](=[O:6])[H:10])([H:8])[H:9])[H:7]>>[O:1](/[C:2](=[C:3](\[O:4][C:5](=[O:6])[H:10])[H:8])[H:7])[H:9]"
O        1.05133244       1.41426667       0.19104528
C        1.38801420       0.25522030      -0.09047512
C        0.52685519      -0.77406986      -0.47174700
O       -0.78831760      -0.33777383      -0.86963595
C       -1.48690026       0.24856066      -0.00575207
O       -1.20054192       0.33037154       1.23362277
H        2.44183880      -0.06961360       0.00022278
H        0.81077419      -1.65810159      -1.01661612
H       -0.30066924      -0.05814493       1.35388475
H       -2.44238581       0.64928464      -0.32454932
10
Frame=1 idx=004761 GeodesicLength=0.14998255103078206 rxn_smarts="[O:1]=[C:2]([C:3]([O:4][C:5](=[O:6])[H:10])([H:8])[H:9])[H:7]>>[O:1](/[C:2](=[C:3](\[O:4][C:5](=[O:6])[H:10])[H:8])[H:7])[H:9]"
O        1.07028155       1.39959523       0.24277189
C        1.39946826       0.25329519      -0.09912644
C        0.51824199      -0.76861175      -0.45862761
O       -0.78751256      -0.32520790      -0.87385239
C       -1.49817127       0.26019440      -0.01199664
O       -1.21358889       0.33499801       1.22406449
H        2.45045431      -0.08103956      -0.01853549
H        0.80066898      -1.65247074      -1.00595243
H       -0.26489480      -0.02816537       1.33259297
H       -2.47494756       0.60741249      -0.33133835
10
Frame=2 idx=004761 GeodesicLength=0.3000593441310804 rxn_smarts="[O:1]=[C:2]([C:3]([O:4][C:5](=[O:6])[H:10])([H:8])[H:9])[H:7]>>[O:1](/[C:2](=[C:3](\[O:4][C:5](=[O:6])[H:10])[H:8])[H:7])[H:9]"
O        1.08884189       1.38379648       0.29210866
C        1.40967654       0.25242464      -0.10766321
C        0.50994452      -0.76256225      -0.44593774
O       -0.78730462      -0.31433433      -0.87698066
C       -1.50978976       0.27102662      -0.01766506
O       -1.22638011       0.34169423       1.21476529
H        2.45779921      -0.09094667      -0.03704624
H        0.79143770      -1.64641215      -0.99510308
H       -0.23066530      -0.00249575       1.31187209
H       -2.50356007       0.56780918      -0.33835005
10
Frame=3 idx=004761 GeodesicLength=0.4501655072217392 rxn_smarts="[O:1]=[C:2]([C:3]([O:4][C:5](=[O:6])[H:10])([H:8])[H:9])[H:7]>>[O:1](/[C:2](=[C:3](\[O:4][C:5](=[O:6])[H:10])[H:8])[H:7])[H:9]"
O        1.10671965       1.36691395       0.33952868
C        1.41863973       0.25255404      -0.11591793
C        0.50204698      -0.75619970      -0.43349898
O       -0.78771944      -0.30555551      -0.87895092
C       -1.52189038       0.28060524      -0.02274922
O       -1.23946839       0.35054285       1.20579031
H        2.46413773      -0.09889262      -0.05626354
H        0.78330665      -1.64017999      -0.98391739
H       -0.19759334       0.01867613       1.29202084
H       -2.52817920       0.53153560      -0.34604187
10
Frame=4 idx=004761 GeodesicLength=0.6002002065388525 rxn_smarts="[O:1]=[C:2]([C:3]([O:4][C:5](=[O:6])[H:10])([H:8])[H:9])[H:7]>>[O:1](/[C:2](=[C:3](\[O:4][C:5](=[O:6])[H:10])[H:8])[H:7])[H:9]"
O        1.12405496       1.34887048       0.38547808
C        1.42648855       0.25358024      -0.12382546
C        0.49458060      -0.74963095      -0.42123513
O       -0.78867256      -0.29881950      -0.87981450
C       -1.53432354       0.28914024      -0.02740130
O       -1.25319197       0.36173662       1.19708081
H        2.46963767      -0.10486623      -0.07656584
H        0.77627839      -1.63384659      -0.97238177
H       -0.16522770       0.03551637       1.27323551
H       -2.54962441       0.49831932      -0.35457039
10
Frame=5 idx=004761 GeodesicLength=0.74975533540977 rxn_smarts="[O:1]=[C:2]([C:3]([O:4][C:5](=[O:6])[H:10])([H:8])[H:9])[H:7]>>[O:1](/[C:2](=[C:3](\[O:4][C:5](=[O:6])[H:10])[H:8])[H:7])[H:9]"
O        1.14099203       1.32955562       0.43034089
C        1.43330460       0.25543247      -0.13136664
C        0.48753561      -0.74292422      -0.40910034
O       -0.79011484      -0.29400395      -0.87962070
C       -1.54698230       0.29698039      -0.03181113
O       -1.26771666       0.37548878       1.18849772
H        2.47435896      -0.10890196      -0.09815351
H        0.77029461      -1.62744529      -0.96052410
H       -0.13323283       0.04821852       1.25568751
H       -2.56843919       0.46759964      -0.36394969
10
Frame=6 idx=004761 GeodesicLength=0.8992727757199507 rxn_smarts="[O:1]=[C:2]([C:3]([O:4][C:5](=[O:6])[H:10])([H:8])[H:9])[H:7]>>[O:1](/[C:2](=[C:3](\[O:4][C:5](=[O:6])[H:10])[H:8])[H:7])[H:9]"
O        1.15754529       1.30893892       0.47423032
C        1.43914065       0.25813496      -0.13863674
C        0.48096081      -0.73622238      -0.39704570
O       -0.79204950      -0.29131633      -0.87830295
C       -1.55977205       0.30412712      -0.03602236
O       -1.28336069       0.39167928       1.17998931
H        2.47835876      -0.11086828      -0.12110640
H        0.76546875      -1.62106414      -0.94835146
H       -0.10113696       0.05687588       1.23957865
H       -2.58515506       0.43971497      -0.37433269
10
Frame=7 idx=004761 GeodesicLength=1.0485665969095683 rxn_smarts="[O:1]=[C:2]([C:3]([O:4][C:5](=[O:6])[H:10])([H:8])[H:9])[H:7]>>[O:1](/[C:2](=[C:3](\[O:4][C:5](=[O:6])[H:10])[H:8])[H:7])[H:9]"
O        1.17375887       1.28694009       0.51729530
C        1.44400486       0.26168934      -0.14566270
C        0.47485942      -0.72961606      -0.38503935
O       -0.79448480      -0.29081327      -0.87580591
C       -1.57263827       0.31074805      -0.04012256
O       -1.30021739       0.41039687       1.17137172
H        2.48160984      -0.11069870      -0.14547428
H        0.76182838      -1.61473202      -0.93591423
H       -0.06863392       0.06155805       1.22509775
H       -2.60008698       0.41452765      -0.38574575
10
Frame=8 idx=004761 GeodesicLength=1.1975811867983928 rxn_smarts="[O:1]=[C:2]([C:3]([O:4][C:5](=[O:6])[H:10])([H:8])[H:9])[H:7]>>[O:1](/[C:2](=[C:3](\[O:4][C:5](=[O:6])[H:10])[H:8])[H:7])[H:9]"
O        1.18970151       1.26351602       0.55963206
C        1.44793388       0.26610474      -0.15243849
C        0.46923843      -0.72320024      -0.37307927
O       -0.79743844      -0.29255863      -0.87205243
C       -1.58556818       0.31700745      -0.04417394
O       -1.31836099       0.43182948       1.16239490
H        2.48411033      -0.10833655      -0.17122023
H        0.75942421      -1.60848840      -0.92333124
H       -0.03544554       0.06225762       1.21241132
H       -2.61359521       0.39186851      -0.39814269
10
Frame=9 idx=004761 GeodesicLength=1.3474342336421843 rxn_smarts="[O:1]=[C:2]([C:3]([O:4][C:5](=[O:6])[H:10])([H:8])[H:9])[H:7]>>[O:1](/[C:2](=[C:3](\[O:4][C:5](=[O:6])[H:10])[H:8])[H:7])[H:9]"
O        1.20509464       1.23864639       0.60090243
C        1.45066029       0.27145592      -0.15918027
C        0.46409089      -0.71704710      -0.36111481
O       -0.80091985      -0.29700881      -0.86678990
C       -1.59832865       0.32244949      -0.04807285
O       -1.33821484       0.45575614       1.15324783
H        2.48546073      -0.10358860      -0.19815577
H        0.75832026      -1.60217690      -0.91062487
H       -0.00081824       0.05890884       1.20169535
H       -2.62534523       0.37260462      -0.41190715
10
Frame=10 idx=004761 GeodesicLength=1.4968575022005808 rxn_smarts="[O:1]=[C:2]([C:3]([O:4][C:5](=[O:6])[H:10])([H:8])[H:9])[H:7]>>[O:1](/[C:2](=[C:3](\[O:4][C:5](=[O:6])[H:10])[H:8])[H:7])[H:9]"
O        1.22028130       1.21229745       0.64142305
C        1.45242739       0.27766056      -0.16559696
C        0.45939119      -0.71119886      -0.34923050
O       -0.80499201      -0.30377592      -0.86004538
C       -1.61113563       0.32777658      -0.05205028
O       -1.35934453       0.48306554       1.14321654
H        2.48590586      -0.09661490      -0.22609071
H        0.75845907      -1.59582991      -0.89815690
H        0.03517369       0.05132926       1.19305160
H       -2.63616631       0.35529018      -0.42652046
10
Frame=11 idx=004761 GeodesicLength=1.646091897390336 rxn_smarts="[O:1]=[C:2]([C:3]([O:4][C:5](=[O:6])[H:10])([H:8])[H:9])[H:7]>>[O:1](/[C:2](=[C:3](\[O:4][C:5](=[O:6])[H:10])[H:8])[H:7])[H:9]"
O        1.23515254       1.18442375       0.68110554
C        1.45312904       0.28471644      -0.17165172
C        0.45511628      -0.70569886      -0.33742967
O       -0.80969123      -0.31296489      -0.85163240
C       -1.62396457       0.33292708      -0.05614921
O       -1.38173613       0.51423152       1.13204917
H        2.48526893      -0.08735873      -0.25479135
H        0.75984131      -1.58929258      -0.88614317
H        0.07301269       0.03923732       1.18661032
H       -2.64612887       0.33977896      -0.44196751
10
Frame=12 idx=004761 GeodesicLength=1.7951907851167692 rxn_smarts="[O:1]=[C:2]([C:3]([O:4][C:5](=[O:6])[H:10])([H:8])[H:9])[H:7]>>[O:1](/[C:2](=[C:3](\[O:4][C:5](=[O:6])[H:10])[H:8])[H:7])[H:9]"
O        1.24964449       1.15505281       0.71989513
C        1.45272036       0.29261617      -0.17722858
C        0.45122154      -0.70060009      -0.32573798
O       -0.81507394      -0.32464053      -0.84131618
C       -1.63686704       0.33785498      -0.06035836
O       -1.40530162       0.54988825       1.11930469
H        2.48343987      -0.07577289      -0.28396292
H        0.76242487      -1.58242005      -0.87490627
H        0.11315592       0.02225437       1.18246107
H       -2.65536446       0.32576700      -0.45815061
10
Frame=13 idx=004761 GeodesicLength=1.9442907075981124 rxn_smarts="[O:1]=[C:2]([C:3]([O:4][C:5](=[O:6])[H:10])([H:8])[H:9])[H:7]>>[O:1](/[C:2](=[C:3](\[O:4][C:5](=[O:6])[H:10])[H:8])[H:7])[H:9]"
O        1.26366900       1.12410627       0.75784332
C        1.45114608       0.30129250      -0.18212786
C        0.44767131      -0.69589886      -0.31418452
O       -0.82119191      -0.33869961      -0.82886015
C       -1.64992935       0.34260456      -0.06471531
O       -1.42987645       0.59103644       1.10442957
H        2.48033227      -0.06189422      -0.31326825
H        0.76614447      -1.57495394      -0.86483752
H        0.15616923      -0.00010638       1.18058505
H       -2.66413464       0.31251326      -0.47486434
10
Frame=14 idx=004761 GeodesicLength=2.0933416607720012 rxn_smarts="[O:1]=[C:2]([C:3]([O:4][C:5](=[O:6])[H:10])([H:8])[H:9])[H:7]>>[O:1](/[C:2](=[C:3](\[O:4][C:5](=[O:6])[H:10])[H:8])[H:7])[H:9]"
O        1.27715960       1.09161189       0.79506997
C        1.44838457       0.31074053      -0.18610715
C        0.44438768      -0.69165370      -0.30277432
O       -0.82813951      -0.35518833      -0.81389700
C       -1.66329325       0.34704539      -0.06911895
O       -1.45527152       0.63865852       1.08651540
H        2.47587958      -0.04560691      -0.34239716
H        0.77086306      -1.56667961      -0.85639330
H        0.20266162      -0.02845798       1.18097864
H       -2.67263183       0.29953019      -0.49187612
10
Frame=15 idx=004761 GeodesicLength=2.242473579955512 rxn_smarts="[O:1]=[C:2]([C:3]([O:4][C:5](=[O:6])[H:10])([H:8])[H:9])[H:7]>>[O:1](/[C:2](=[C:3](\[O:4][C:5](=[O:6])[H:10])[H:8])[H:7])[H:9]"
O        1.28990139       1.05738596       0.83177220
C        1.44430097       0.32089090      -0.18882775
C        0.44131311      -0.68782099      -0.29149177
O       -0.83599252      -0.37392915      -0.79598931
C       -1.67708853       0.35116144      -0.07350253
O       -1.48113639       0.69413143       1.06430393
H        2.46990385      -0.02691263      -0.37084712
H        0.77642634      -1.55713691      -0.85008975
H        0.25351542      -0.06358737       1.18336769
H       -2.68114365       0.28581732      -0.50869560
10
Frame=16 idx=004761 GeodesicLength=2.3915476120466144 rxn_smarts="[O:1]=[C:2]([C:3]([O:4][C:5](=[O:6])[H:10])([H:8])[H:9])[H:7]>>[O:1](/[C:2](=[C:3](\[O:4][C:5](=[O:6])[H:10])[H:8])[H:7])[H:9]"
O        1.30167600       1.02125718       0.86842173
C        1.43880414       0.33175857      -0.18985296
C        0.43835706      -0.68445959      -0.28028260
O       -0.84487277      -0.39492784      -0.77452671
C       -1.69152272       0.35479359      -0.07762996
O       -1.50704464       0.75905994       1.03587819
H        2.46228495      -0.00558636      -0.39817643
H        0.78259999      -1.54590142      -0.84663032
H        0.30970800      -0.10648800       1.18745055
H       -2.68999002       0.27049392      -0.52465150
