12
Frame=0 idx=001070 GeodesicLength=0.0 rxn_smarts="[N:1]([c:2]1[c:3]([H:9])[c:4]([H:10])[c:5]([H:11])[n:6]1[H:12])([H:7])[H:8]>>[N:1]([C:2]1=[C-:3][C:4]([H:9])([H:10])[C+:5]([H:11])[N:6]1[H:12])([H:7])[H:8]"
N        2.10895580      -0.24955583       0.18294965
C        0.74565990       0.06654831      -0.00291268
C        0.12495896       1.26908553      -0.29943349
C       -1.32570584       0.84055132      -0.24618201
C       -1.40583793      -0.56455863      -0.05751694
N       -0.15420060      -0.97348168       0.11284603
H        2.54450497      -0.55530510      -0.67820522
H        2.59429807       0.58212467       0.48825281
H       -0.95741116       1.29416626       0.76404253
H       -2.14805889       1.44473767      -0.60360960
H       -2.24367713      -1.24369995      -0.03332895
H        0.11651381      -1.91061252       0.37309791
12
Frame=1 idx=001070 GeodesicLength=0.060998112147096564 rxn_smarts="[N:1]([c:2]1[c:3]([H:9])[c:4]([H:10])[c:5]([H:11])[n:6]1[H:12])([H:7])[H:8]>>[N:1]([C:2]1=[C-:3][C:4]([H:9])([H:10])[C+:5]([H:11])[N:6]1[H:12])([H:7])[H:8]"
N        2.10831247      -0.25402580       0.17872083
C        0.74532990       0.06211406      -0.01057516
C        0.12059395       1.26128303      -0.30431988
C       -1.32753584       0.83844586      -0.24317066
C       -1.40811241      -0.56534406      -0.04365674
N       -0.15587913      -0.97811952       0.11089541
H        2.55235264      -0.53101854      -0.68767006
H        2.58901389       0.56783560       0.51623951
H       -0.94718838       1.32660365       0.76448698
H       -2.14755521       1.43486187      -0.61898419
H       -2.24663875      -1.24363783      -0.01599133
H        0.11730688      -1.91899833       0.35402528
12
Frame=2 idx=001070 GeodesicLength=0.12191186288128696 rxn_smarts="[N:1]([c:2]1[c:3]([H:9])[c:4]([H:10])[c:5]([H:11])[n:6]1[H:12])([H:7])[H:8]>>[N:1]([C:2]1=[C-:3][C:4]([H:9])([H:10])[C+:5]([H:11])[N:6]1[H:12])([H:7])[H:8]"
N        2.10761317      -0.25839250       0.17454915
C        0.74494981       0.05766166      -0.01840420
C        0.11611569       1.25345497      -0.30920276
C       -1.32943528       0.83629842      -0.23983953
C       -1.41018827      -0.56619183      -0.02985912
N       -0.15750825      -0.98292429       0.10823776
H        2.56035133      -0.50610362      -0.69611287
H        2.58319736       0.55273547       0.54414572
H       -0.93637636       1.35985667       0.76388828
H       -2.14713016       1.42444427      -0.63379882
H       -2.24947269      -1.24353864       0.00214461
H        0.11788365      -1.92730056       0.33425179
12
Frame=3 idx=001070 GeodesicLength=0.1828266053496047 rxn_smarts="[N:1]([c:2]1[c:3]([H:9])[c:4]([H:10])[c:5]([H:11])[n:6]1[H:12])([H:7])[H:8]>>[N:1]([C:2]1=[C-:3][C:4]([H:9])([H:10])[C+:5]([H:11])[N:6]1[H:12])([H:7])[H:8]"
N        2.10685911      -0.26262350       0.17042991
C        0.74451583       0.05321123      -0.02638198
C        0.11150620       1.24560218      -0.31409208
C       -1.33141332       0.83410314      -0.23613342
C       -1.41204175      -0.56709336      -0.01599342
N       -0.15909920      -0.98786734       0.10496530
H        2.56844031      -0.48061304      -0.70346163
H        2.57681964       0.53675155       0.57183495
H       -0.92493275       1.39402823       0.76217087
H       -2.14683001       1.41345071      -0.64793984
H       -2.25206700      -1.24345614       0.02076844
H        0.11824293      -1.93549366       0.31383290
12
Frame=4 idx=001070 GeodesicLength=0.24377847544603254 rxn_smarts="[N:1]([c:2]1[c:3]([H:9])[c:4]([H:10])[c:5]([H:11])[n:6]1[H:12])([H:7])[H:8]>>[N:1]([C:2]1=[C-:3][C:4]([H:9])([H:10])[C+:5]([H:11])[N:6]1[H:12])([H:7])[H:8]"
N        2.10604905      -0.26669789       0.16634805
C        0.74402874       0.04877601      -0.03453205
C        0.10675380       1.23774067      -0.31897417
C       -1.33347087       0.83185755      -0.23203670
C       -1.41364314      -0.56806299      -0.00208994
N       -0.16065518      -0.99294235       0.10099345
H        2.57660566      -0.45453192      -0.70964244
H        2.56983158       0.51978295       0.59929232
H       -0.91284866       1.42914383       0.75923884
H       -2.14668414       1.40188738      -0.66132420
H       -2.25435343      -1.24340252       0.03989932
H        0.11838658      -1.94355073       0.29282754
12
Frame=5 idx=001070 GeodesicLength=0.30482035719221523 rxn_smarts="[N:1]([c:2]1[c:3]([H:9])[c:4]([H:10])[c:5]([H:11])[n:6]1[H:12])([H:7])[H:8]>>[N:1]([C:2]1=[C-:3][C:4]([H:9])([H:10])[C+:5]([H:11])[N:6]1[H:12])([H:7])[H:8]"
N        2.10520437      -0.27065605       0.16212950
C        0.74349959       0.04437909      -0.04278814
C        0.10186807       1.22994978      -0.32353130
C       -1.33558882       0.82957964      -0.22752761
C       -1.41498144      -0.56917940       0.01141089
N       -0.16215737      -0.99819576       0.09609614
H        2.58468451      -0.42787696      -0.71498016
H        2.56243317       0.50185166       0.62634247
H       -0.90023093       1.46497328       0.75523674
H       -2.14665427       1.38992851      -0.67380522
H       -2.25638172      -1.24349475       0.05893219
H        0.11830484      -1.95125902       0.27248452
12
Frame=6 idx=001070 GeodesicLength=0.3659132715630764 rxn_smarts="[N:1]([c:2]1[c:3]([H:9])[c:4]([H:10])[c:5]([H:11])[n:6]1[H:12])([H:7])[H:8]>>[N:1]([C:2]1=[C-:3][C:4]([H:9])([H:10])[C+:5]([H:11])[N:6]1[H:12])([H:7])[H:8]"
N        2.10430459      -0.27446401       0.15784122
C        0.74291189       0.04002556      -0.05120980
C        0.09682652       1.22221190      -0.32789221
C       -1.33778559       0.82727005      -0.22254869
C       -1.41603843      -0.57043131       0.02470441
N       -0.16364042      -1.00358168       0.09029045
H        2.59273971      -0.40059931      -0.71922082
H        2.55447553       0.48279579       0.65299275
H       -0.88701181       1.50169211       0.74994444
H       -2.14679593       1.37752847      -0.68533186
H       -2.25803368      -1.24372438       0.07806924
H        0.11804762      -1.95872320       0.25236088
12
Frame=7 idx=001070 GeodesicLength=0.4270998321014197 rxn_smarts="[N:1]([c:2]1[c:3]([H:9])[c:4]([H:10])[c:5]([H:11])[n:6]1[H:12])([H:7])[H:8]>>[N:1]([C:2]1=[C-:3][C:4]([H:9])([H:10])[C+:5]([H:11])[N:6]1[H:12])([H:7])[H:8]"
N        2.10333782      -0.27813302       0.15350939
C        0.74225785       0.03572189      -0.05975091
C        0.09162699       1.21453369      -0.33201197
C       -1.34005841       0.82492678      -0.21708839
C       -1.41681379      -0.57183953       0.03778467
N       -0.16512723      -1.00908130       0.08357702
H        2.60072843      -0.37268144      -0.72229321
H        2.54600144       0.46260488       0.67918672
H       -0.87320531       1.53935650       0.74322463
H       -2.14711493       1.36472992      -0.69587018
H       -2.25929259      -1.24411698       0.09735488
H        0.11765973      -1.96602140       0.23237737
12
Frame=8 idx=001070 GeodesicLength=0.48842030198457953 rxn_smarts="[N:1]([c:2]1[c:3]([H:9])[c:4]([H:10])[c:5]([H:11])[n:6]1[H:12])([H:7])[H:8]>>[N:1]([C:2]1=[C-:3][C:4]([H:9])([H:10])[C+:5]([H:11])[N:6]1[H:12])([H:7])[H:8]"
N        2.10234080      -0.28169635       0.14898071
C        0.74155039       0.03150884      -0.06820869
C        0.08628642       1.20699019      -0.33551449
C       -1.34238785       0.82255540      -0.21112590
C       -1.41733065      -0.57349366       0.05024317
N       -0.16659775      -1.01472611       0.07602419
H        2.60842069      -0.34425003      -0.72454931
H        2.53733241       0.44139971       0.70467584
H       -0.85898744       1.57778565       0.73522611
H       -2.14752797       1.35168914      -0.70538948
H       -2.26025713      -1.24479632       0.11615878
H        0.11715808      -1.97296646       0.21347906
12
Frame=9 idx=001070 GeodesicLength=0.5491190508578789 rxn_smarts="[N:1]([c:2]1[c:3]([H:9])[c:4]([H:10])[c:5]([H:11])[n:6]1[H:12])([H:7])[H:8]>>[N:1]([C:2]1=[C-:3][C:4]([H:9])([H:10])[C+:5]([H:11])[N:6]1[H:12])([H:7])[H:8]"
N        2.10127409      -0.28517723       0.14458260
C        0.74077568       0.02734221      -0.07660275
C        0.08080531       1.19945435      -0.33880415
C       -1.34476983       0.82018905      -0.20441158
C       -1.41760528      -0.57536088       0.06243623
N       -0.16808190      -1.02050562       0.06775361
H        2.61599421      -0.31541052      -0.72558039
H        2.52824926       0.41948321       0.72975598
H       -0.84417838       1.61719646       0.72528001
H       -2.14806656       1.33828623      -0.71378186
H       -2.26092409      -1.24567645       0.13531143
H        0.11652748      -1.97982080       0.19406089
12
Frame=10 idx=001070 GeodesicLength=0.6098060507743659 rxn_smarts="[N:1]([c:2]1[c:3]([H:9])[c:4]([H:10])[c:5]([H:11])[n:6]1[H:12])([H:7])[H:8]>>[N:1]([C:2]1=[C-:3][C:4]([H:9])([H:10])[C+:5]([H:11])[N:6]1[H:12])([H:7])[H:8]"
N        2.10014671      -0.28852884       0.14000480
C        0.73991830       0.02326430      -0.08507165
C        0.07515086       1.19204811      -0.34159489
C       -1.34722347       0.81781366      -0.19700974
C       -1.41760691      -0.57748664       0.07417400
N       -0.16960544      -1.02635269       0.05856114
H        2.62333903      -0.28591083      -0.72549420
H        2.51874855       0.39624713       0.75415668
H       -0.82885348       1.65755628       0.71354495
H       -2.14878733       1.32468847      -0.72086776
H       -2.26111556      -1.24689691       0.15401634
H        0.11588874      -1.98644205       0.17558031
12
Frame=11 idx=001070 GeodesicLength=0.6706013111861017 rxn_smarts="[N:1]([c:2]1[c:3]([H:9])[c:4]([H:10])[c:5]([H:11])[n:6]1[H:12])([H:7])[H:8]>>[N:1]([C:2]1=[C-:3][C:4]([H:9])([H:10])[C+:5]([H:11])[N:6]1[H:12])([H:7])[H:8]"
N        2.09898156      -0.29173991       0.13523927
C        0.73898672       0.01929808      -0.09343491
C        0.06933570       1.18477811      -0.34374737
C       -1.34973241       0.81541367      -0.18889484
C       -1.41737267      -0.57991009       0.08538735
N       -0.17115535      -1.03226206       0.04869078
H        2.63030776      -0.25585273      -0.72440014
H        2.50904496       0.37180477       0.77776087
H       -0.81308022       1.69887871       0.69992803
H       -2.14965595       1.31096568      -0.72661931
H       -2.26094316      -1.24853368       0.17200613
H        0.11528308      -1.99284055       0.15808416
12
Frame=12 idx=001070 GeodesicLength=0.7314969656385938 rxn_smarts="[N:1]([c:2]1[c:3]([H:9])[c:4]([H:10])[c:5]([H:11])[n:6]1[H:12])([H:7])[H:8]>>[N:1]([C:2]1=[C-:3][C:4]([H:9])([H:10])[C+:5]([H:11])[N:6]1[H:12])([H:7])[H:8]"
N        2.09776526      -0.29480151       0.13031592
C        0.73796834       0.01543296      -0.10178689
C        0.06334970       1.17762420      -0.34534220
C       -1.35229445       0.81298144      -0.17997284
C       -1.41688499      -0.58264496       0.09614198
N       -0.17274596      -1.03819222       0.03818989
H        2.63695123      -0.22518295      -0.72212339
H        2.49900656       0.34602943       0.80059625
H       -0.79680469       1.74124621       0.68413349
H       -2.15072447       1.29715128      -0.73086763
H       -2.26033066      -1.25061677       0.18935321
H        0.11474413      -1.99902711       0.14136221
12
Frame=13 idx=001070 GeodesicLength=0.7925250252990037 rxn_smarts="[N:1]([c:2]1[c:3]([H:9])[c:4]([H:10])[c:5]([H:11])[n:6]1[H:12])([H:7])[H:8]>>[N:1]([C:2]1=[C-:3][C:4]([H:9])([H:10])[C+:5]([H:11])[N:6]1[H:12])([H:7])[H:8]"
N        2.09652152      -0.29769873       0.12531189
C        0.73687926       0.01170322      -0.10989760
C        0.05721237       1.17059515      -0.34623679
C       -1.35488636       0.81050528      -0.17023096
C       -1.41619505      -0.58571380       0.10642693
N       -0.17435808      -1.04415270       0.02726186
H        2.64313238      -0.19408881      -0.71873736
H        2.48888611       0.31915310       0.82261025
H       -0.78013720       1.78465424       0.66598236
H       -2.15194387       1.28330011      -0.73363405
H       -2.25941572      -1.25317387       0.20603773
H        0.11430463      -2.00508319       0.12510575
12
Frame=14 idx=001070 GeodesicLength=0.8535899013790733 rxn_smarts="[N:1]([c:2]1[c:3]([H:9])[c:4]([H:10])[c:5]([H:11])[n:6]1[H:12])([H:7])[H:8]>>[N:1]([C:2]1=[C-:3][C:4]([H:9])([H:10])[C+:5]([H:11])[N:6]1[H:12])([H:7])[H:8]"
N        2.09523086      -0.30043382       0.12021888
C        0.73570708       0.00808874      -0.11793763
C        0.05090941       1.16367884      -0.34650711
C       -1.35749997       0.80798759      -0.15951027
C       -1.41527044      -0.58912739       0.11633090
N       -0.17600714      -1.05010990       0.01578342
H        2.64896305      -0.16238223      -0.71397774
H        2.47846885       0.29089396       0.84388744
H       -0.76301490       1.82917025       0.64501101
H       -2.15338234       1.26943684      -0.73468199
H       -2.25808754      -1.25622644       0.22222867
H        0.11398307      -2.01097643       0.10915442
12
Frame=15 idx=001070 GeodesicLength=0.9146648979544328 rxn_smarts="[N:1]([c:2]1[c:3]([H:9])[c:4]([H:10])[c:5]([H:11])[n:6]1[H:12])([H:7])[H:8]>>[N:1]([C:2]1=[C-:3][C:4]([H:9])([H:10])[C+:5]([H:11])[N:6]1[H:12])([H:7])[H:8]"
N        2.09389368      -0.30302061       0.11513786
C        0.73446535       0.00460048      -0.12584023
C        0.04445296       1.15687142      -0.34611099
C       -1.36010743       0.80542549      -0.14772570
C       -1.41411696      -0.59288609       0.12597233
N       -0.17769492      -1.05606539       0.00377017
H        2.65443161      -0.13007867      -0.70771266
H        2.46780653       0.26130675       0.86450956
H       -0.74548402       1.87481197       0.62077992
H       -2.15503921       1.25557110      -0.73392870
H       -2.25637564      -1.25976699       0.23818643
H        0.11376806      -2.01676946       0.09296200
12
Frame=16 idx=001070 GeodesicLength=0.9756171382547244 rxn_smarts="[N:1]([c:2]1[c:3]([H:9])[c:4]([H:10])[c:5]([H:11])[n:6]1[H:12])([H:7])[H:8]>>[N:1]([C:2]1=[C-:3][C:4]([H:9])([H:10])[C+:5]([H:11])[N:6]1[H:12])([H:7])[H:8]"
N        2.09254634      -0.30546036       0.11013124
C        0.73316707       0.00130217      -0.13329967
C        0.03787213       1.15024235      -0.34469287
C       -1.36268863       0.80282924      -0.13479494
C       -1.41278020      -0.59700037       0.13529517
N       -0.17940288      -1.06197502      -0.00852159
H        2.65936198      -0.09748970      -0.70006049
H        2.45722084       0.23063483       0.88429519
H       -0.72780045       1.92145264       0.59299967
H       -2.15682517       1.24177191      -0.73138713
H       -2.25433370      -1.26382675       0.25371552
H        0.11366269      -2.02248092       0.07631990
