16
Frame=0 idx=001487 GeodesicLength=0.0 rxn_smarts="[C:1]([C@@:2]1([H:10])[C@@:3]2([H:11])[C:4]([H:12])([H:13])[C:5]([H:14])([H:15])[C@@:6]12[H:16])([H:7])([H:8])[H:9]>>[C:1]([C:2]([C@@:6]1([H:16])[C:3][C:4]([H:12])([H:13])[C:5]1([H:14])[H:15])([H:10])[H:11])([H:7])([H:8])[H:9]"
C        1.50244278      -0.35632401       0.87624807
C        0.45471971      -1.09063222       0.06681876
C       -1.44642539      -0.72858780      -0.21670097
C       -1.44274874       0.74125194       0.26832921
C       -0.41894732       1.14076532      -0.81584634
C       -0.26228254      -0.35650825      -1.07715867
H        1.91795472      -1.01194676       1.64228269
H        1.09398921       0.52023424       1.37976641
H        2.31849377      -0.01972390       0.23373319
H        0.78857344      -2.05284656      -0.31500207
H       -0.40051141      -1.43742475       0.75982952
H       -2.44553930       1.14915681       0.12600742
H       -1.17311460       0.91624316       1.31080785
H        0.46868208       1.70598731      -0.52321722
H       -0.88888134       1.65354353      -1.65437054
H       -0.06640511      -0.77318806      -2.06152725
16
Frame=1 idx=001487 GeodesicLength=0.06437634067606325 rxn_smarts="[C:1]([C@@:2]1([H:10])[C@@:3]2([H:11])[C:4]([H:12])([H:13])[C:5]([H:14])([H:15])[C@@:6]12[H:16])([H:7])([H:8])[H:9]>>[C:1]([C:2]([C@@:6]1([H:16])[C:3][C:4]([H:12])([H:13])[C:5]1([H:14])[H:15])([H:10])[H:11])([H:7])([H:8])[H:9]"
C        1.51321682      -0.36050404       0.87189469
C        0.45456184      -1.08872579       0.07101466
C       -1.44032359      -0.72729143      -0.21492887
C       -1.45434089       0.74213148       0.26300716
C       -0.42326749       1.14455489      -0.81323825
C       -0.25582313      -0.35189675      -1.07330582
H        1.92368201      -1.01403948       1.64248924
H        1.11555034       0.52436545       1.36999079
H        2.33195705      -0.03822543       0.22530186
H        0.78368614      -2.05330291      -0.30991764
H       -0.41445650      -1.44309526       0.77007030
H       -2.45809201       1.14598556       0.11701217
H       -1.18775530       0.91651386       1.30672411
H        0.45775930       1.71562388      -0.51238110
H       -0.88864394       1.65491274      -1.65591526
H       -0.05771064      -0.76700676      -2.05781803
16
Frame=2 idx=001487 GeodesicLength=0.12967386584989501 rxn_smarts="[C:1]([C@@:2]1([H:10])[C@@:3]2([H:11])[C:4]([H:12])([H:13])[C:5]([H:14])([H:15])[C@@:6]12[H:16])([H:7])([H:8])[H:9]>>[C:1]([C:2]([C@@:6]1([H:16])[C:3][C:4]([H:12])([H:13])[C:5]1([H:14])[H:15])([H:10])[H:11])([H:7])([H:8])[H:9]"
C        1.52429443      -0.36470670       0.86735561
C        0.45469521      -1.08658107       0.07528044
C       -1.43410890      -0.72582253      -0.21279117
C       -1.46622622       0.74277032       0.25739164
C       -0.42771887       1.14840448      -0.81038587
C       -0.24931873      -0.34706017      -1.06914773
H        1.92950013      -1.01596192       1.64279644
H        1.13810870       0.52857287       1.35923437
H        2.34560805      -0.05766569       0.21669840
H        0.77883540      -2.05346000      -0.30466333
H       -0.42887381      -1.44877774       0.78040646
H       -2.47088069       1.14247991       0.10740952
H       -1.20327530       0.91676113       1.30241374
H        0.44648288       1.72522494      -0.50099992
H       -0.88800945       1.65650094      -1.65713630
H       -0.04911284      -0.76067880      -2.05386231
16
Frame=3 idx=001487 GeodesicLength=0.19451739002227367 rxn_smarts="[C:1]([C@@:2]1([H:10])[C@@:3]2([H:11])[C:4]([H:12])([H:13])[C:5]([H:14])([H:15])[C@@:6]12[H:16])([H:7])([H:8])[H:9]>>[C:1]([C:2]([C@@:6]1([H:16])[C:3][C:4]([H:12])([H:13])[C:5]1([H:14])[H:15])([H:10])[H:11])([H:7])([H:8])[H:9]"
C        1.53552603      -0.36897058       0.86270262
C        0.45490826      -1.08431831       0.07959118
C       -1.42784665      -0.72438009      -0.21060824
C       -1.47820288       0.74335906       0.25170385
C       -0.43214002       1.15229194      -0.80741107
C       -0.24279826      -0.34214550      -1.06491671
H        1.93535641      -1.01769748       1.64314314
H        1.16103849       0.53283108       1.34817462
H        2.35930011      -0.07745674       0.20798465
H        0.77388841      -2.05362405      -0.29930891
H       -0.44355554      -1.45446587       0.79081314
H       -2.48376535       1.13877803       0.09754408
H       -1.21899429       0.91700724       1.29805989
H        0.43506679       1.73481340      -0.48938558
H       -0.88732438       1.65817370      -1.65827027
H       -0.04045713      -0.75419584      -2.04981641
16
Frame=4 idx=001487 GeodesicLength=0.2593559428934108 rxn_smarts="[C:1]([C@@:2]1([H:10])[C@@:3]2([H:11])[C:4]([H:12])([H:13])[C:5]([H:14])([H:15])[C@@:6]12[H:16])([H:7])([H:8])[H:9]>>[C:1]([C:2]([C@@:6]1([H:16])[C:3][C:4]([H:12])([H:13])[C:5]1([H:14])[H:15])([H:10])[H:11])([H:7])([H:8])[H:9]"
C        1.54696400      -0.37328104       0.85790622
C        0.45527623      -1.08189466       0.08396114
C       -1.42151056      -0.72289767      -0.20826182
C       -1.49033735       0.74382824       0.24586562
C       -0.43658374       1.15622774      -0.80425961
C       -0.23625240      -0.33710093      -1.06053029
H        1.94126438      -1.01921782       1.64356407
H        1.18457505       0.53715740       1.33653173
H        2.37307237      -0.09783171       0.19914054
H        0.76889991      -2.05368234      -0.29382838
H       -0.45859689      -1.46017503       0.80128868
H       -2.49678738       1.13482258       0.08728708
H       -1.23515497       0.91723842       1.29359593
H        0.42343513       1.74437214      -0.47741558
H       -0.88646369       1.65999167      -1.65921882
H       -0.03180010      -0.74755700      -2.04562650
16
Frame=5 idx=001487 GeodesicLength=0.32418631266353 rxn_smarts="[C:1]([C@@:2]1([H:10])[C@@:3]2([H:11])[C:4]([H:12])([H:13])[C:5]([H:14])([H:15])[C@@:6]12[H:16])([H:7])([H:8])[H:9]>>[C:1]([C:2]([C@@:6]1([H:16])[C:3][C:4]([H:12])([H:13])[C:5]1([H:14])[H:15])([H:10])[H:11])([H:7])([H:8])[H:9]"
C        1.55861227      -0.37763648       0.85295988
C        0.45580316      -1.07930477       0.08839495
C       -1.41509859      -0.72136972      -0.20574385
C       -1.50262763       0.74417005       0.23987157
C       -0.44104927       1.16021314      -0.80092019
C       -0.22968198      -0.33192232      -1.05598369
H        1.94722362      -1.02049212       1.64406664
H        1.20874339       0.54154924       1.32425983
H        2.38691537      -0.11881639       0.19016841
H        0.76387171      -2.05362759      -0.28821370
H       -0.47402038      -1.46591557       0.81182570
H       -2.50994005       1.13059959       0.07662154
H       -1.25176823       0.91744997       1.28901633
H        0.41158136       1.75389484      -0.46506985
H       -0.88541911       1.66196533      -1.65996578
H       -0.02314564      -0.74075722      -2.04128780
16
Frame=6 idx=001487 GeodesicLength=0.3890172377819442 rxn_smarts="[C:1]([C@@:2]1([H:10])[C@@:3]2([H:11])[C:4]([H:12])([H:13])[C:5]([H:14])([H:15])[C@@:6]12[H:16])([H:7])([H:8])[H:9]>>[C:1]([C:2]([C@@:6]1([H:16])[C:3][C:4]([H:12])([H:13])[C:5]1([H:14])[H:15])([H:10])[H:11])([H:7])([H:8])[H:9]"
C        1.57047652      -0.38203534       0.84785562
C        0.45649472      -1.07654343       0.09289670
C       -1.40860683      -0.71979291      -0.20304566
C       -1.51507335       0.74437709       0.23371708
C       -0.44553584       1.16425047      -0.79738074
C       -0.22308707      -0.32660528      -1.05127181
H        1.95323187      -1.02148488       1.64466275
H        1.23356871       0.54601043       1.31130718
H        2.40082132      -0.14044633       0.18107075
H        0.75880832      -2.05345236      -0.28245733
H       -0.48985325      -1.47170106       0.82241491
H       -2.52321780       1.12609724       0.06553301
H       -1.26884644       0.91763497       1.28431531
H        0.39949904       1.76337546      -0.45232747
H       -0.88418311       1.66410672      -1.66049391
H       -0.01449679      -0.73379078      -2.03679642
16
Frame=7 idx=001487 GeodesicLength=0.4538537063756052 rxn_smarts="[C:1]([C@@:2]1([H:10])[C@@:3]2([H:11])[C:4]([H:12])([H:13])[C:5]([H:14])([H:15])[C@@:6]12[H:16])([H:7])([H:8])[H:9]>>[C:1]([C:2]([C@@:6]1([H:16])[C:3][C:4]([H:12])([H:13])[C:5]1([H:14])[H:15])([H:10])[H:11])([H:7])([H:8])[H:9]"
C        1.58256234      -0.38647407       0.84258551
C        0.45735625      -1.07360556       0.09747164
C       -1.40203192      -0.71816341      -0.20015857
C       -1.52767186       0.74444203       0.22739699
C       -0.45004275       1.16834172      -0.79362830
C       -0.21646787      -0.32114595      -1.04638925
H        1.95929089      -1.02215757       1.64536049
H        1.25907325       0.55053722       1.29762253
H        2.41477945      -0.16275372       0.17185031
H        0.75371297      -2.05314973      -0.27654962
H       -0.50612514      -1.47754558       0.83304585
H       -2.53661259       1.12130199       0.05400562
H       -1.28640136       0.91778887       1.27948633
H        0.38718144       1.77280730      -0.43916741
H       -0.88274698       1.66642855      -1.66078449
H       -0.00585614      -0.72665209      -2.03214763
16
Frame=8 idx=001487 GeodesicLength=0.5186918967436451 rxn_smarts="[C:1]([C@@:2]1([H:10])[C@@:3]2([H:11])[C:4]([H:12])([H:13])[C:5]([H:14])([H:15])[C@@:6]12[H:16])([H:7])([H:8])[H:9]>>[C:1]([C:2]([C@@:6]1([H:16])[C:3][C:4]([H:12])([H:13])[C:5]1([H:14])[H:15])([H:10])[H:11])([H:7])([H:8])[H:9]"
C        1.59487201      -0.39095073       0.83714264
C        0.45839343      -1.07048580       0.10212497
C       -1.39537158      -0.71647604      -0.19707100
C       -1.54042033       0.74435705       0.22090568
C       -0.45456757       1.17248916      -0.78964891
C       -0.20982560      -0.31554096      -1.04133055
H        1.96540484      -1.02247017       1.64616607
H        1.28528140       0.55512306       1.28314584
H        2.42877276      -0.18576373       0.16251488
H        0.74858933      -2.05271293      -0.27048000
H       -0.52286342      -1.48346298       0.84370785
H       -2.55011406       1.11620185       0.04201980
H       -1.30444557       0.91790471       1.27452214
H        0.37462335       1.78217952      -0.42556511
H       -0.88110026       1.66894506      -1.66081676
H        0.00277127      -0.71933707      -2.02733753
16
Frame=9 idx=001487 GeodesicLength=0.5835234576982962 rxn_smarts="[C:1]([C@@:2]1([H:10])[C@@:3]2([H:11])[C:4]([H:12])([H:13])[C:5]([H:14])([H:15])[C@@:6]12[H:16])([H:7])([H:8])[H:9]>>[C:1]([C:2]([C@@:6]1([H:16])[C:3][C:4]([H:12])([H:13])[C:5]1([H:14])[H:15])([H:10])[H:11])([H:7])([H:8])[H:9]"
C        1.60741446      -0.39546270       0.83151511
C        0.45961219      -1.06717698       0.10686488
C       -1.38862400      -0.71472621      -0.19376972
C       -1.55331672       0.74411505       0.21423537
C       -0.45910759       1.17669585      -0.78542565
C       -0.20316172      -0.30978648      -1.03608824
H        1.97158593      -1.02237547       1.64708505
H        1.31221444       0.55976140       1.26780099
H        2.44277536      -0.20950872       0.15307984
H        0.74343911      -2.05213397      -0.26423333
H       -0.54009682      -1.48946909       0.85438594
H       -2.56371162       1.11078660       0.02955216
H       -1.32299453       0.91796958       1.26941547
H        0.36181998       1.79147790      -0.41149092
H       -0.87922914       1.67167400      -1.66056654
H        0.01138068      -0.71184075      -2.02236041
16
Frame=10 idx=001487 GeodesicLength=0.6483520825687094 rxn_smarts="[C:1]([C@@:2]1([H:10])[C@@:3]2([H:11])[C:4]([H:12])([H:13])[C:5]([H:14])([H:15])[C@@:6]12[H:16])([H:7])([H:8])[H:9]>>[C:1]([C:2]([C@@:6]1([H:16])[C:3][C:4]([H:12])([H:13])[C:5]1([H:14])[H:15])([H:10])[H:11])([H:7])([H:8])[H:9]"
C        1.62018980      -0.40000489       0.82569663
C        0.46101824      -1.06367477       0.11169613
C       -1.38178385      -0.71290848      -0.19024333
C       -1.56635485       0.74370832       0.20738234
C       -0.46366144       1.18096309      -0.78094420
C       -0.19647594      -0.30387906      -1.03065717
H        1.97783128      -1.02182272       1.64812693
H        1.33989191       0.56444137       1.25153318
H        2.45677944      -0.23402280       0.14354771
H        0.73827025      -2.05140444      -0.25780192
H       -0.55786119      -1.49558335       0.86506360
H       -2.57739208       1.10504142       0.01658903
H       -1.34205843       0.91798266       1.26415854
H        0.34876573       1.80069473      -0.39692374
H       -0.87712656       1.67462763      -1.66001189
H        0.01996770      -0.70415872      -2.01721183
16
Frame=11 idx=001487 GeodesicLength=0.7131792612002992 rxn_smarts="[C:1]([C@@:2]1([H:10])[C@@:3]2([H:11])[C:4]([H:12])([H:13])[C:5]([H:14])([H:15])[C@@:6]12[H:16])([H:7])([H:8])[H:9]>>[C:1]([C:2]([C@@:6]1([H:16])[C:3][C:4]([H:12])([H:13])[C:5]1([H:14])[H:15])([H:10])[H:11])([H:7])([H:8])[H:9]"
C        1.63320265      -0.40457226       0.81967797
C        0.46261781      -1.05997410       0.11662544
C       -1.37484673      -0.71101752      -0.18647716
C       -1.57953018       0.74312933       0.20034168
C       -0.46822681       1.18529281      -0.77618817
C       -0.18976928      -0.29781534      -1.02503006
H        1.98414337      -1.02075382       1.64930243
H        1.36833640       0.56915536       1.23426720
H        2.47076453      -0.25934147       0.13393072
H        0.73309045      -2.05051547      -0.25117522
H       -0.57619435      -1.50183063       0.87571889
H       -2.59114247       1.09895516       0.00311382
H       -1.36164934       0.91793460       1.25874304
H        0.33545850       1.80981755      -0.38183524
H       -0.87478048       1.67782263      -1.65912941
H        0.02852595      -0.69628684      -2.01188592
16
Frame=12 idx=001487 GeodesicLength=0.7780013892020369 rxn_smarts="[C:1]([C@@:2]1([H:10])[C@@:3]2([H:11])[C:4]([H:12])([H:13])[C:5]([H:14])([H:15])[C@@:6]12[H:16])([H:7])([H:8])[H:9]>>[C:1]([C:2]([C@@:6]1([H:16])[C:3][C:4]([H:12])([H:13])[C:5]1([H:14])[H:15])([H:10])[H:11])([H:7])([H:8])[H:9]"
C        1.64645539      -0.40915967       0.81345013
C        0.46441774      -1.05606927       0.12165956
C       -1.36780866      -0.70904653      -0.18245640
C       -1.59283535       0.74237100       0.19310888
C       -0.47279933       1.18968715      -0.77113981
C       -0.18304264      -0.29159249      -1.01920017
H        1.99052773      -1.01910606       1.65061928
H        1.39756832       0.57388853       1.21592144
H        2.48470461      -0.28549439       0.12424793
H        0.72790637      -2.04945876      -0.24434014
H       -0.59513606      -1.50823600       0.88632630
H       -2.60494484       1.09251633      -0.01089138
H       -1.38177722       0.91781645       1.25316137
H        0.32189460       1.81883017      -0.36619803
H       -0.87217949       1.68127509      -1.65789158
H        0.03704883      -0.68822155      -2.00637739
16
Frame=13 idx=001487 GeodesicLength=0.8428064892420167 rxn_smarts="[C:1]([C@@:2]1([H:10])[C@@:3]2([H:11])[C:4]([H:12])([H:13])[C:5]([H:14])([H:15])[C@@:6]12[H:16])([H:7])([H:8])[H:9]>>[C:1]([C:2]([C@@:6]1([H:16])[C:3][C:4]([H:12])([H:13])[C:5]1([H:14])[H:15])([H:10])[H:11])([H:7])([H:8])[H:9]"
C        1.65994899      -0.41376067       0.80700417
C        0.46642374      -1.05195492       0.12680683
C       -1.36066615      -0.70698817      -0.17816382
C       -1.60626204       0.74142594       0.18567905
C       -0.47737557       1.19414786      -0.76578003
C       -0.17629778      -0.28520806      -1.01315972
H        1.99699390      -1.01681066       1.65208245
H        1.42760236       0.57862099       1.19641113
H        2.49857385      -0.31251287       0.11451873
H        0.72272597      -2.04822564      -0.23728228
H       -0.61472587      -1.51482686       0.89685707
H       -2.61877983       1.08571315      -0.02544600
H       -1.40245292       0.91762077       1.24740414
H        0.30807286       1.82771535      -0.34998157
H       -0.86931036       1.68500365      -1.65627038
H        0.04552884      -0.67995986      -2.00067977
16
Frame=14 idx=001487 GeodesicLength=0.9075818879363776 rxn_smarts="[C:1]([C@@:2]1([H:10])[C@@:3]2([H:11])[C:4]([H:12])([H:13])[C:5]([H:14])([H:15])[C@@:6]12[H:16])([H:7])([H:8])[H:9]>>[C:1]([C:2]([C@@:6]1([H:16])[C:3][C:4]([H:12])([H:13])[C:5]1([H:14])[H:15])([H:10])[H:11])([H:7])([H:8])[H:9]"
C        1.67368671      -0.41836724       0.80032800
C        0.46864278      -1.04762453       0.13207619
C       -1.35341647      -0.70483327      -0.17357919
C       -1.61979879       0.74028714       0.17804650
C       -0.48194929       1.19867686      -0.76008893
C       -0.16953754      -0.27866071      -1.00690083
H        2.00355850      -1.01379337       1.65368978
H        1.45844591       0.58332200       1.17564957
H        2.51233584      -0.34041709       0.10477305
H        0.71755564      -2.04680764      -0.22998379
H       -0.63500661      -1.52163318       0.90727683
H       -2.63262283       1.07853566      -0.04057060
H       -1.42368574       0.91733867       1.24146080
H        0.29399528       1.83645203      -0.33315700
H       -0.86615870       1.68902607      -1.65423372
H        0.05395531      -0.67150140      -1.99478665
16
Frame=15 idx=001487 GeodesicLength=0.9723217724719299 rxn_smarts="[C:1]([C@@:2]1([H:10])[C@@:3]2([H:11])[C:4]([H:12])([H:13])[C:5]([H:14])([H:15])[C@@:6]12[H:16])([H:7])([H:8])[H:9]>>[C:1]([C:2]([C@@:6]1([H:16])[C:3][C:4]([H:12])([H:13])[C:5]1([H:14])[H:15])([H:10])[H:11])([H:7])([H:8])[H:9]"
C        1.68766897      -0.42296941       0.79341265
C        0.47108190      -1.04307270       0.13747630
C       -1.34605524      -0.70257423      -0.16868200
C       -1.63343547       0.73894857       0.17020728
C       -0.48651568       1.20327583      -0.75404589
C       -0.16276418      -0.27194887      -1.00041499
H        2.01023253      -1.00996914       1.65544658
H        1.49011001       0.58796626       1.15353428
H        2.52595846      -0.36923999       0.09504233
H        0.71240607      -2.04519533      -0.22242975
H       -0.65602658      -1.52869187       0.91754586
H       -2.64645072       1.07097565      -0.05628197
H       -1.44548393       0.91695769       1.23532226
H        0.27966565       1.84501945      -0.31569190
H       -0.86271068       1.69336233      -1.65175009
H        0.06231888      -0.66284424      -1.98869097
16
Frame=16 idx=001487 GeodesicLength=1.0370145324749818 rxn_smarts="[C:1]([C@@:2]1([H:10])[C@@:3]2([H:11])[C:4]([H:12])([H:13])[C:5]([H:14])([H:15])[C@@:6]12[H:16])([H:7])([H:8])[H:9]>>[C:1]([C:2]([C@@:6]1([H:16])[C:3][C:4]([H:12])([H:13])[C:5]1([H:14])[H:15])([H:10])[H:11])([H:7])([H:8])[H:9]"
C        1.70189603      -0.42755555       0.78624706
C        0.47374866      -1.03829299       0.14301607
C       -1.33857914      -0.70020218      -0.16344886
C       -1.64715801       0.73740499       0.16215776
C       -0.49106874       1.20794672      -0.74762900
C       -0.15598083      -0.26507195      -0.99369440
H        2.01703307      -1.00524469       1.65735105
H        1.52259728       0.59251804       1.12995716
H        2.53940230      -0.39900760       0.08537212
H        0.70728699      -2.04337944      -0.21460194
H       -0.67783586      -1.53604243       0.92761740
H       -2.66023460       1.06302607      -0.07259737
H       -1.46785255       0.91646513       1.22897874
H        0.26509077       1.85339154      -0.29755497
H       -0.85895349       1.69803276      -1.64878363
H        0.07060813      -0.65398842      -1.98238719
