19
Frame=0 idx=007440 GeodesicLength=0.0 rxn_smarts="[C:1]([C:2]([C@@:3]1([H:13])[C:4]([H:14])([H:15])[C@@:5]2([H:16])[C:6]([H:17])([H:18])[C@@:7]12[H:19])([H:11])[H:12])([H:8])([H:9])[H:10]>>[C:1]([C:2]([C:3]([C@@:7]1([H:19])[C@:5]([C:4][H:15])([H:16])[C:6]1([H:17])[H:18])([H:13])[H:14])([H:11])[H:12])([H:8])([H:9])[H:10]"
C        2.48712676       0.31158889      -0.83431046
C        1.19483570      -0.49032566      -0.77094165
C        0.31245086      -0.12164777       0.40364025
C       -1.08665929       1.52606378       0.87759605
C       -1.95712714       0.29172308       0.91389303
C       -2.11611931      -0.37572985      -0.40782810
C       -1.02385925      -0.81668346       0.53211396
H        3.10650277       0.00031971      -1.67652349
H        3.07537358       0.18545482       0.07761686
H        2.27993971       1.37793019      -0.95064585
H        0.62808141      -0.37434250      -1.69871698
H        1.41507916      -1.56144217      -0.68239310
H        0.86383207      -0.13410521       1.34336361
H        0.02022210       1.04463832       0.19934788
H       -0.64932150       1.64886323       1.88389067
H       -2.70266026       0.19585292       1.69383659
H       -2.92988354      -1.07799105      -0.53391908
H       -1.86144925       0.19838101      -1.29208083
H       -1.05636455      -1.82854825       0.92206060
19
Frame=1 idx=007440 GeodesicLength=0.05779505393382922 rxn_smarts="[C:1]([C:2]([C@@:3]1([H:13])[C:4]([H:14])([H:15])[C@@:5]2([H:16])[C:6]([H:17])([H:18])[C@@:7]12[H:19])([H:11])[H:12])([H:8])([H:9])[H:10]>>[C:1]([C:2]([C:3]([C@@:7]1([H:19])[C@:5]([C:4][H:15])([H:16])[C:6]1([H:17])[H:18])([H:13])[H:14])([H:11])[H:12])([H:8])([H:9])[H:10]"
C        2.49048669       0.30623058      -0.83540802
C        1.19505852      -0.49076644      -0.77119115
C        0.31173867      -0.11216931       0.40059873
C       -1.08927802       1.51941787       0.88628335
C       -1.95848807       0.28834867       0.91933534
C       -2.11363258      -0.37604399      -0.40739956
C       -1.02069869      -0.81631302       0.52846695
H        3.10869699      -0.00783484      -1.67747659
H        3.07810767       0.17836073       0.07671151
H        2.28747691       1.37338417      -0.95178698
H        0.63010248      -0.37508845      -1.70021950
H        1.41327393      -1.56202615      -0.68060602
H        0.86499456      -0.13303067       1.33959408
H        0.02018709       1.06596032       0.18046320
H       -0.66976874       1.66053364       1.89701814
H       -2.70489936       0.18169101       1.69706593
H       -2.92893480      -1.07651060      -0.53334614
H       -1.86255131       0.20272514      -1.28950888
H       -1.05187195      -1.82686866       0.92140561
19
Frame=2 idx=007440 GeodesicLength=0.11553458022041553 rxn_smarts="[C:1]([C:2]([C@@:3]1([H:13])[C:4]([H:14])([H:15])[C@@:5]2([H:16])[C:6]([H:17])([H:18])[C@@:7]12[H:19])([H:11])[H:12])([H:8])([H:9])[H:10]>>[C:1]([C:2]([C:3]([C@@:7]1([H:19])[C@:5]([C:4][H:15])([H:16])[C:6]1([H:17])[H:18])([H:13])[H:14])([H:11])[H:12])([H:8])([H:9])[H:10]"
C        2.49367251       0.30103678      -0.83642378
C        1.19526446      -0.49125961      -0.77143444
C        0.31112616      -0.10310434       0.39769106
C       -1.09107440       1.51256000       0.89471932
C       -1.95957023       0.28507591       0.92473606
C       -2.11106088      -0.37634466      -0.40692416
C       -1.01755901      -0.81609045       0.52491617
H        3.11070116      -0.01554921      -1.67845259
H        3.08075303       0.17134580       0.07581707
H        2.29465953       1.36897709      -0.95261859
H        0.63201905      -0.37578039      -1.70164359
H        1.41156920      -1.56264997      -0.67904264
H        0.86624415      -0.13264048       1.33589405
H        0.02005204       1.08701680       0.16160659
H       -0.69084423       1.67267833       1.90971640
H       -2.70683025       0.16796964       1.70017499
H       -2.92806729      -1.07483381      -0.53262366
H       -1.86347711       0.20692233      -1.28692655
H       -1.04757790      -1.82532976       0.92081828
19
Frame=3 idx=007440 GeodesicLength=0.17321690255940048 rxn_smarts="[C:1]([C:2]([C@@:3]1([H:13])[C:4]([H:14])([H:15])[C@@:5]2([H:16])[C:6]([H:17])([H:18])[C@@:7]12[H:19])([H:11])[H:12])([H:8])([H:9])[H:10]>>[C:1]([C:2]([C:3]([C@@:7]1([H:19])[C@:5]([C:4][H:15])([H:16])[C:6]1([H:17])[H:18])([H:13])[H:14])([H:11])[H:12])([H:8])([H:9])[H:10]"
C        2.49668318       0.29601169      -0.83736570
C        1.19545882      -0.49181716      -0.77167019
C        0.31062527      -0.09448273       0.39493733
C       -1.09206033       1.50549412       0.90293888
C       -1.96037128       0.28190142       0.93010821
C       -2.10839868      -0.37662166      -0.40639941
C       -1.01444218      -0.81602652       0.52146393
H        3.11250920      -0.02280263      -1.67947169
H        3.08331830       0.16441336       0.07491893
H        2.30147386       1.36471430      -0.95313638
H        0.63382700      -0.37642981      -1.70298286
H        1.40997965      -1.56332588      -0.67770494
H        0.86758997      -0.13296143       1.33227688
H        0.01983245       1.10779922       0.14281302
H       -0.71257812       1.68534687       1.92190088
H       -2.70846708       0.15468503       1.70317423
H       -2.92727625      -1.07294402      -0.53176450
H       -1.86420678       0.21099420      -1.28432346
H       -1.04349702      -1.82394838       0.92028683
19
Frame=4 idx=007440 GeodesicLength=0.23085663191680045 rxn_smarts="[C:1]([C:2]([C@@:3]1([H:13])[C:4]([H:14])([H:15])[C@@:5]2([H:16])[C:6]([H:17])([H:18])[C@@:7]12[H:19])([H:11])[H:12])([H:8])([H:9])[H:10]>>[C:1]([C:2]([C:3]([C@@:7]1([H:19])[C@:5]([C:4][H:15])([H:16])[C:6]1([H:17])[H:18])([H:13])[H:14])([H:11])[H:12])([H:8])([H:9])[H:10]"
C        2.49953844       0.29113686      -0.83823507
C        1.19563875      -0.49242595      -0.77191009
C        0.31024627      -0.08630454       0.39234816
C       -1.09227125       1.49822388       0.91097565
C       -1.96089330       0.27880922       0.93547324
C       -2.10564302      -0.37687767      -0.40581434
C       -1.01133859      -0.81612683       0.51811236
H        3.11413758      -0.02962386      -1.68053612
H        3.08582205       0.15751587       0.07401189
H        2.30796551       1.36058488      -0.95332959
H        0.63552195      -0.37698335      -1.70424385
H        1.40847879      -1.56405001      -0.67663602
H        0.86904266      -0.13398735       1.32874453
H        0.01952533       1.12832631       0.12410835
H       -0.73505250       1.69861658       1.93347865
H       -2.70981229       0.14179130       1.70609251
H       -2.92655139      -1.07084788      -0.53076487
H       -1.86474293       0.21495700      -1.28168109
H       -1.03961205      -1.82273445       0.91980568
19
Frame=5 idx=007440 GeodesicLength=0.28845871131457435 rxn_smarts="[C:1]([C:2]([C@@:3]1([H:13])[C:4]([H:14])([H:15])[C@@:5]2([H:16])[C:6]([H:17])([H:18])[C@@:7]12[H:19])([H:11])[H:12])([H:8])([H:9])[H:10]>>[C:1]([C:2]([C:3]([C@@:7]1([H:19])[C@:5]([C:4][H:15])([H:16])[C:6]1([H:17])[H:18])([H:13])[H:14])([H:11])[H:12])([H:8])([H:9])[H:10]"
C        2.50224622       0.28640602      -0.83903614
C        1.19580569      -0.49308637      -0.77215879
C        0.31000036      -0.07858655       0.38993984
C       -1.09172707       1.49074826       0.91886845
C       -1.96113434       0.27578738       0.94085056
C       -2.10278964      -0.37710718      -0.40516126
C       -1.00824460      -0.81640094       0.51486320
H        3.11558964      -0.03601420      -1.68165717
H        3.08827690       0.15063278       0.07308595
H        2.31414747       1.35658612      -0.95318986
H        0.63709946      -0.37742136      -1.70542591
H        1.40706211      -1.56482711      -0.67585803
H        0.87061278      -0.13573332       1.32530496
H        0.01913906       1.14860504       0.10552808
H       -0.75832717       1.71255748       1.94434356
H       -2.71087123       0.12926186       1.70895078
H       -2.92588636      -1.06853686      -0.52962918
H       -1.86507677       0.21883279      -1.27898239
H       -1.03592251      -1.82170383       0.91936332
19
Frame=6 idx=007440 GeodesicLength=0.34602655343264854 rxn_smarts="[C:1]([C:2]([C@@:3]1([H:13])[C:4]([H:14])([H:15])[C@@:5]2([H:16])[C:6]([H:17])([H:18])[C@@:7]12[H:19])([H:11])[H:12])([H:8])([H:9])[H:10]>>[C:1]([C:2]([C:3]([C@@:7]1([H:19])[C@:5]([C:4][H:15])([H:16])[C:6]1([H:17])[H:18])([H:13])[H:14])([H:11])[H:12])([H:8])([H:9])[H:10]"
C        2.50481395       0.28181330      -0.83977275
C        1.19596124      -0.49379896      -0.77242078
C        0.30989873      -0.07134608       0.38772896
C       -1.09044504       1.48306297       0.92666026
C       -1.96109144       0.27282264       0.94626126
C       -2.09983449      -0.37730337      -0.40443140
C       -1.00515667      -0.81685893       0.51171785
H        3.11686825      -0.04197366      -1.68284566
H        3.09069488       0.14374407       0.07213129
H        2.32003177       1.35271525      -0.95270792
H        0.63855532      -0.37772437      -1.70652808
H        1.40572565      -1.56566170      -0.67539298
H        0.87231116      -0.13821701       1.32196567
H        0.01868159       1.16864358       0.08710923
H       -0.78246436       1.72724118       1.95437615
H       -2.71164736       0.11706884       1.71177140
H       -2.92527528      -1.06600034      -0.52836106
H       -1.86519976       0.22264587      -1.27620818
H       -1.03242814      -1.82087329       0.91894677
19
Frame=7 idx=007440 GeodesicLength=0.40356259597474414 rxn_smarts="[C:1]([C:2]([C@@:3]1([H:13])[C:4]([H:14])([H:15])[C@@:5]2([H:16])[C:6]([H:17])([H:18])[C@@:7]12[H:19])([H:11])[H:12])([H:8])([H:9])[H:10]>>[C:1]([C:2]([C:3]([C@@:7]1([H:19])[C@:5]([C:4][H:15])([H:16])[C:6]1([H:17])[H:18])([H:13])[H:14])([H:11])[H:12])([H:8])([H:9])[H:10]"
C        2.50724865       0.27735317      -0.84044804
C        1.19610690      -0.49456415      -0.77270058
C        0.30995257      -0.06460128       0.38573250
C       -1.08843970       1.47516025       0.93439836
C       -1.96076042       0.26989991       0.95172856
C       -2.09677381      -0.37745835      -0.40361470
C       -1.00207130      -0.81751174       0.50867739
H        3.11797583      -0.04750096      -1.68411179
H        3.09308758       0.13682956       0.07113846
H        2.32562997       1.34896949      -0.95187300
H        0.63988511      -0.37787192      -1.70754916
H        1.40446540      -1.56655799      -0.67526382
H        0.87414911      -0.14145931       1.31873383
H        0.01816099       1.18845167       0.06889172
H       -0.80752923       1.74274318       1.96344020
H       -2.71214195       0.10518251       1.71457874
H       -2.92471303      -1.06322573      -0.52696314
H       -1.86510394       0.22642286      -1.27333678
H       -1.02912874      -1.82026116       0.91854125
19
Frame=8 idx=007440 GeodesicLength=0.46106833355488464 rxn_smarts="[C:1]([C:2]([C@@:3]1([H:13])[C:4]([H:14])([H:15])[C@@:5]2([H:16])[C:6]([H:17])([H:18])[C@@:7]12[H:19])([H:11])[H:12])([H:8])([H:9])[H:10]>>[C:1]([C:2]([C:3]([C@@:7]1([H:19])[C@:5]([C:4][H:15])([H:16])[C:6]1([H:17])[H:18])([H:13])[H:14])([H:11])[H:12])([H:8])([H:9])[H:10]"
C        2.50955704       0.27302036      -0.84106437
C        1.19624400      -0.49538201      -0.77300276
C        0.31017333      -0.05837135       0.38396815
C       -1.08572237       1.46702861       0.94213492
C       -1.96013569       0.26700213       0.95727813
C       -2.09360400      -0.37756314      -0.40269947
C       -0.99898486      -0.81837132       0.50574274
H        3.11891386      -0.05259280      -1.68546567
H        3.09546659       0.12986758       0.07009802
H        2.33095350       1.34534614      -0.95067140
H        0.64108405      -0.37784179      -1.70848748
H        1.40327700      -1.56751971      -0.67549506
H        0.87613859      -0.14548475       1.31561630
H        0.01758550       1.20804057       0.05091901
H       -0.83359165       1.75914336       1.97137930
H       -2.71235384       0.09357114       1.71739955
H       -2.92419516      -1.06019842      -0.52543662
H       -1.86478186       0.23019291      -1.27034350
H       -1.02602403      -1.81988750       0.91813023
19
Frame=9 idx=007440 GeodesicLength=0.5185443902228691 rxn_smarts="[C:1]([C:2]([C@@:3]1([H:13])[C:4]([H:14])([H:15])[C@@:5]2([H:16])[C:6]([H:17])([H:18])[C@@:7]12[H:19])([H:11])[H:12])([H:8])([H:9])[H:10]>>[C:1]([C:2]([C:3]([C@@:7]1([H:19])[C@:5]([C:4][H:15])([H:16])[C:6]1([H:17])[H:18])([H:13])[H:14])([H:11])[H:12])([H:8])([H:9])[H:10]"
C        2.51174558       0.26881016      -0.84162215
C        1.19637382      -0.49625236      -0.77333218
C        0.31057282      -0.05267766       0.38245445
C       -1.08230057       1.45865261       0.94992602
C       -1.95920948       0.26410999       0.96293881
C       -2.09032213      -0.37760795      -0.40167160
C       -0.99589363      -0.81945125       0.50291470
H        3.11968204      -0.05723995      -1.68691820
H        3.09784427       0.12283200       0.06900064
H        2.33601390       1.34184331      -0.94908095
H        0.64214719      -0.37760869      -1.70934097
H        1.40215568      -1.56855028      -0.67611456
H        0.87829232      -0.15032365       1.31261964
H        0.01696309       1.22742173       0.03323704
H       -0.86072680       1.77652961       1.97800905
H       -2.71227761       0.08220125       1.72026494
H       -2.92371928      -1.05690108      -0.52377949
H       -1.86422720       0.23398715      -1.26720004
H       -1.02311403      -1.81977496       0.91769487
19
Frame=10 idx=007440 GeodesicLength=0.575990366387013 rxn_smarts="[C:1]([C:2]([C@@:3]1([H:13])[C:4]([H:14])([H:15])[C@@:5]2([H:16])[C:6]([H:17])([H:18])[C@@:7]12[H:19])([H:11])[H:12])([H:8])([H:9])[H:10]>>[C:1]([C:2]([C:3]([C@@:7]1([H:19])[C@:5]([C:4][H:15])([H:16])[C:6]1([H:17])[H:18])([H:13])[H:14])([H:11])[H:12])([H:8])([H:9])[H:10]"
C        2.51382023       0.26471838      -0.84212108
C        1.19649733      -0.49717447      -0.77369366
C        0.31116357      -0.04754344       0.38121148
C       -1.07817719       1.45001230       0.95783553
C       -1.95797202       0.26120182       0.96874290
C       -2.08692500      -0.37758118      -0.40051475
C       -0.99279366      -0.82076635       0.50019418
H        3.12027880      -0.06143065      -1.68848040
H        3.10023302       0.11569544       0.06783660
H        2.34082230       1.33845929      -0.94707641
H        0.64306868      -0.37714483      -1.71010658
H        1.40109617      -1.56965242      -0.67715252
H        0.88062424      -0.15601212       1.30975033
H        0.01630209       1.24660786       0.01589756
H       -0.88901746       1.79499401       1.98311483
H       -2.71190511       0.07103693       1.72320928
H       -2.92328347      -1.05331316      -0.52198796
H       -1.86343359       0.23784094      -1.26387361
H       -1.02039893      -1.81994835       0.91721427
19
Frame=11 idx=007440 GeodesicLength=0.6334045204575725 rxn_smarts="[C:1]([C:2]([C@@:3]1([H:13])[C:4]([H:14])([H:15])[C@@:5]2([H:16])[C:6]([H:17])([H:18])[C@@:7]12[H:19])([H:11])[H:12])([H:8])([H:9])[H:10]>>[C:1]([C:2]([C:3]([C@@:7]1([H:19])[C@:5]([C:4][H:15])([H:16])[C:6]1([H:17])[H:18])([H:13])[H:14])([H:11])[H:12])([H:8])([H:9])[H:10]"
C        2.51578647       0.26074181      -0.84255873
C        1.19661503      -0.49814666      -0.77409239
C        0.31195849      -0.04299474       0.38026074
C       -1.07335054       1.44108252       0.96593577
C       -1.95641109       0.25825270       0.97472764
C       -2.08341023      -0.37746942      -0.39920925
C       -0.98968109      -0.82233350       0.49758193
H        3.12070168      -0.06514863      -1.69016221
H        3.10264493       0.10842808       0.06659707
H        2.34538975       1.33519318      -0.94462600
H        0.64384188      -0.37641798      -1.71078059
H        1.40009228      -1.57082787      -0.67864331
H        0.88314921      -0.16259385       1.30701440
H        0.01561010       1.26561244      -0.00104144
H       -0.91854987       1.81463572       1.98644057
H       -2.71122416       0.06003888       1.72627260
H       -2.92288752      -1.04941067      -0.52005513
H       -1.86239596       0.24179400      -1.26032590
H       -1.01787936      -1.82043601       0.91666422
19
Frame=12 idx=007440 GeodesicLength=0.6907834479773386 rxn_smarts="[C:1]([C:2]([C@@:3]1([H:13])[C:4]([H:14])([H:15])[C@@:5]2([H:16])[C:6]([H:17])([H:18])[C@@:7]12[H:19])([H:11])[H:12])([H:8])([H:9])[H:10]>>[C:1]([C:2]([C:3]([C@@:7]1([H:19])[C@:5]([C:4][H:15])([H:16])[C:6]1([H:17])[H:18])([H:13])[H:14])([H:11])[H:12])([H:8])([H:9])[H:10]"
C        2.51764879       0.25687856      -0.84293140
C        1.19672680      -0.49916643      -0.77453326
C        0.31297151      -0.03906089       0.37962637
C       -1.06781284       1.43183217       0.97431104
C       -1.95451174       0.25523445       0.98093564
C       -2.07977518      -0.37725634      -0.39773202
C       -0.98655201      -0.82417149       0.49507900
H        3.12094636      -0.06837329      -1.69197339
H        3.10509189       0.10099924       0.06527291
H        2.34972604       1.33204495      -0.94169345
H        0.64445867      -0.37539230      -1.71135753
H        1.39913726      -1.57207722      -0.68062459
H        0.88588365      -0.17012150       1.30441802
H        0.01489492       1.28444981      -0.01751256
H       -0.94941695       1.83555742       1.98768107
H       -2.71021902       0.04916429       1.72950022
H       -2.92253216      -1.04516451      -0.51797158
H       -1.86110900       0.24589273      -1.25651182
H       -1.01555700      -1.82126965       0.91601732
19
Frame=13 idx=007440 GeodesicLength=0.7481212731782868 rxn_smarts="[C:1]([C:2]([C@@:3]1([H:13])[C:4]([H:14])([H:15])[C@@:5]2([H:16])[C:6]([H:17])([H:18])[C@@:7]12[H:19])([H:11])[H:12])([H:8])([H:9])[H:10]>>[C:1]([C:2]([C:3]([C@@:7]1([H:19])[C@:5]([C:4][H:15])([H:16])[C:6]1([H:17])[H:18])([H:13])[H:14])([H:11])[H:12])([H:8])([H:9])[H:10]"
C        2.51941046       0.25312847      -0.84323364
C        1.19683174      -0.50022988      -0.77502078
C        0.31421787      -0.03577613       0.37933619
C       -1.06154902       1.42222227       0.98306030
C       -1.95225560       0.25211464       0.98741636
C       -2.07601671      -0.37692216      -0.39605506
C       -0.98340253      -0.82630153       0.49268718
H        3.12100569      -0.07107714      -1.69392404
H        3.10758597       0.09337601       0.06385385
H        2.35383957       1.32901542      -0.93823501
H        0.64490878      -0.37402610      -1.71182901
H        1.39822335      -1.57339911      -0.68313928
H        0.88884595      -0.17865967       1.30196741
H        0.01416536       1.30313429      -0.03343539
H       -0.98171979       1.85786669       1.98646562
H       -2.70887023       0.03836650       1.73294386
H       -2.92221912      -1.04053908      -0.51572399
H       -1.85956663       0.25019142      -1.25237685
H       -1.01343511      -1.82248491       0.91524229
19
Frame=14 idx=007440 GeodesicLength=0.8054105505488736 rxn_smarts="[C:1]([C:2]([C@@:3]1([H:13])[C:4]([H:14])([H:15])[C@@:5]2([H:16])[C:6]([H:17])([H:18])[C@@:7]12[H:19])([H:11])[H:12])([H:8])([H:9])[H:10]>>[C:1]([C:2]([C:3]([C@@:7]1([H:19])[C@:5]([C:4][H:15])([H:16])[C:6]1([H:17])[H:18])([H:13])[H:14])([H:11])[H:12])([H:8])([H:9])[H:10]"
C        2.52107406       0.24949286      -0.84345816
C        1.19692785      -0.50133095      -0.77555917
C        0.31571527      -0.03318062       0.37942303
C       -1.05453460       1.41220361       0.99230285
C       -1.94961984       0.24885496       0.99422863
C       -2.07213100      -0.37644261      -0.39414383
C       -0.98022828      -0.82874788       0.49040949
H        3.12086903      -0.07322462      -1.69602559
H        3.11014082       0.08552060       0.06232751
H        2.35773864       1.32610611      -0.93419706
H        0.64517872      -0.37226892      -1.71218301
H        1.39734064      -1.57478941      -0.68623823
H        0.89205812      -0.18828725       1.29966909
H        0.01343209       1.32167999      -0.04871176
H       -1.01557592       1.88167884       1.98233698
H       -2.70715335       0.02759276       1.73666427
H       -2.92195172      -1.03549016      -0.51329395
H       -1.85776225       0.25475534      -1.24785368
H       -1.01151829      -1.82412263       0.91430259
19
Frame=15 idx=007440 GeodesicLength=0.8626561581743823 rxn_smarts="[C:1]([C:2]([C@@:3]1([H:13])[C:4]([H:14])([H:15])[C@@:5]2([H:16])[C:6]([H:17])([H:18])[C@@:7]12[H:19])([H:11])[H:12])([H:8])([H:9])[H:10]>>[C:1]([C:2]([C:3]([C@@:7]1([H:19])[C@:5]([C:4][H:15])([H:16])[C:6]1([H:17])[H:18])([H:13])[H:14])([H:11])[H:12])([H:8])([H:9])[H:10]"
C        2.52264528       0.24597155      -0.84358794
C        1.19701072      -0.50245737      -0.77615919
C        0.31748146      -0.03132194       0.37992445
C       -1.04674252       1.40171957       1.00217787
C       -1.94657678       0.24540684       1.00145086
C       -2.06811724      -0.37579472      -0.39195140
C       -0.97702346      -0.83154430       0.48825236
H        3.12051966      -0.07475363      -1.69829870
H        3.11277733       0.07735251       0.06068141
H        2.36144533       1.32332446      -0.92947319
H        0.64525435      -0.37003842      -1.71241234
H        1.39646848      -1.57624402      -0.69000152
H        0.89554367      -0.19909909       1.29753110
H        0.01270230       1.34010562      -0.06322696
H       -1.05111725       1.90715590       1.97469785
H       -2.70503156       0.01677678       1.74075011
H       -2.92173667      -1.02997425      -0.51064980
H       -1.85569543       0.25965560      -1.24286103
H       -1.00980767      -1.82624109       0.91315607
19
Frame=16 idx=007440 GeodesicLength=0.9198390670931227 rxn_smarts="[C:1]([C:2]([C@@:3]1([H:13])[C:4]([H:14])([H:15])[C@@:5]2([H:16])[C:6]([H:17])([H:18])[C@@:7]12[H:19])([H:11])[H:12])([H:8])([H:9])[H:10]>>[C:1]([C:2]([C:3]([C@@:7]1([H:19])[C@:5]([C:4][H:15])([H:16])[C:6]1([H:17])[H:18])([H:13])[H:14])([H:11])[H:12])([H:8])([H:9])[H:10]"
C        2.52412397       0.24256579      -0.84359553
C        1.19706744      -0.50358575      -0.77682760
C        0.31954333      -0.03026173       0.38088703
C       -1.03811565       1.39067564       1.01286331
C       -1.94307933       0.24170183       1.00917862
C       -2.06397325      -0.37494595      -0.38941120
C       -0.97377711      -0.83472724       0.48622227
H        3.11992160      -0.07558083      -1.70075671
H        3.11551908       0.06877436       0.05889769
H        2.36498266       1.32066946      -0.92392302
H        0.64510390      -0.36722255      -1.71249131
H        1.39557064      -1.57773843      -0.69452922
H        0.89934184      -0.21122118       1.29555407
H        0.01199338       1.35841484      -0.07682457
H       -1.08852205       1.93449090       1.96273633
H       -2.70244315       0.00583052       1.74530116
H       -2.92158612      -1.02392386      -0.50774336
H       -1.85336934       0.26498329      -1.23727749
H       -1.00830183      -1.82889910       0.91173952
