13
Frame=0 idx=002197 GeodesicLength=0.0 rxn_smarts="[C:1]([C:2](=[O:3])[C@@:4]1([H:10])[C:5]([H:11])([H:12])[N:6]1[H:13])([H:7])([H:8])[H:9]>>[C:1]([C:2]([O-:3])=[C+:4][H:10])([H:7])([H:8])[H:9].[C:5](=[N:6][H:13])([H:11])[H:12]"
C        2.46934456      -0.28190572       0.50757160
C        1.00475462      -0.03084941       0.32012084
O        0.40546222       0.95071140       0.75848831
C        0.13961623      -0.97637044      -0.27211294
C       -2.75414127       0.15843398      -0.24228952
N       -2.10187297       0.83445921      -1.08688582
H        2.81709652      -1.13787590      -0.07345399
H        2.65875132      -0.47245513       1.56506016
H        3.01475892       0.61535774       0.21455095
H       -0.06937939      -0.81333395      -1.33553459
H       -2.64570837       0.26744902       0.84080296
H       -3.46866955      -0.58703049      -0.59309055
H       -1.47001285       1.47340971      -0.60322738
13
Frame=1 idx=002197 GeodesicLength=0.08929284899092116 rxn_smarts="[C:1]([C:2](=[O:3])[C@@:4]1([H:10])[C:5]([H:11])([H:12])[N:6]1[H:13])([H:7])([H:8])[H:9]>>[C:1]([C:2]([O-:3])=[C+:4][H:10])([H:7])([H:8])[H:9].[C:5](=[N:6][H:13])([H:11])[H:12]"
C        2.46021699      -0.26673402       0.48503966
C        0.99263312      -0.01476602       0.33735791
O        0.40172176       0.96727892       0.78649919
C        0.09434987      -0.96479335      -0.19555955
C       -2.72979266       0.14972609      -0.25309335
N       -2.04598049       0.79983168      -1.10036430
H        2.81064275      -1.05326245      -0.18566834
H        2.66477700      -0.57000510       1.51319649
H        3.00482354       0.65601351       0.28565986
H       -0.07415567      -0.90561197      -1.27580056
H       -2.67627503       0.31438915       0.82679583
H       -3.46038134      -0.57878064      -0.60581455
H       -1.44257984       1.46671419      -0.61824828
13
Frame=2 idx=002197 GeodesicLength=0.17854775863373043 rxn_smarts="[C:1]([C:2](=[O:3])[C@@:4]1([H:10])[C:5]([H:11])([H:12])[N:6]1[H:13])([H:7])([H:8])[H:9]>>[C:1]([C:2]([O-:3])=[C+:4][H:10])([H:7])([H:8])[H:9].[C:5](=[N:6][H:13])([H:11])[H:12]"
C        2.45026535      -0.25192619       0.46356684
C        0.98130384       0.00254140       0.35248118
O        0.39959533       0.98659477       0.80982748
C        0.05373823      -0.94891451      -0.12521755
C       -2.70506548       0.13895236      -0.26146630
N       -1.99202374       0.76397918      -1.11090639
H        2.79927242      -0.96121101      -0.28903029
H        2.66661142      -0.66582610       1.45001781
H        2.99855919       0.68417316       0.36253585
H       -0.07962775      -0.99532470      -1.20993595
H       -2.70357279       0.35861130       0.80968596
H       -3.45270320      -0.57020384      -0.61736961
H       -1.41635284       1.45855418      -0.63418903
13
Frame=3 idx=002197 GeodesicLength=0.2680421388139587 rxn_smarts="[C:1]([C:2](=[O:3])[C@@:4]1([H:10])[C:5]([H:11])([H:12])[N:6]1[H:13])([H:7])([H:8])[H:9]>>[C:1]([C:2]([O-:3])=[C+:4][H:10])([H:7])([H:8])[H:9].[C:5](=[N:6][H:13])([H:11])[H:12]"
C        2.43924139      -0.23661684       0.44061534
C        0.96893601       0.01799341       0.37349103
O        0.39788928       1.00615914       0.83600887
C        0.01450490      -0.93146735      -0.05268604
C       -2.68117651       0.12936096      -0.27167023
N       -1.93601301       0.72933555      -1.11911041
H        2.77961896      -0.86037604      -0.38793270
H        2.67171957      -0.75751905       1.37134390
H        2.99274416       0.70150666       0.43725493
H       -0.08856898      -1.08503468      -1.12976913
H       -2.73087089       0.40035187       0.78627761
H       -3.44014818      -0.56337379      -0.63543612
H       -1.38787669       1.44968016      -0.64838705
13
Frame=4 idx=002197 GeodesicLength=0.3576798429543253 rxn_smarts="[C:1]([C:2](=[O:3])[C@@:4]1([H:10])[C:5]([H:11])([H:12])[N:6]1[H:13])([H:7])([H:8])[H:9]>>[C:1]([C:2]([O-:3])=[C+:4][H:10])([H:7])([H:8])[H:9].[C:5](=[N:6][H:13])([H:11])[H:12]"
C        2.42612115      -0.22146964       0.41823243
C        0.95545245       0.03125787       0.39584122
O        0.39430293       1.02383710       0.86164123
C       -0.02219135      -0.91356447       0.01428562
C       -2.65596163       0.12036739      -0.27989459
N       -1.88044516       0.69382083      -1.12613100
H        2.75593505      -0.75065624      -0.47760472
H        2.67342874      -0.84427821       1.28018316
H        2.98630171       0.70744768       0.51408505
H       -0.09829612      -1.17076986      -1.04410363
H       -2.75292261       0.44299109       0.75995623
H       -3.42427122      -0.55813644      -0.65054409
H       -1.35745394       1.43915290      -0.66594690
13
Frame=5 idx=002197 GeodesicLength=0.447810592027743 rxn_smarts="[C:1]([C:2](=[O:3])[C@@:4]1([H:10])[C:5]([H:11])([H:12])[N:6]1[H:13])([H:7])([H:8])[H:9]>>[C:1]([C:2]([O-:3])=[C+:4][H:10])([H:7])([H:8])[H:9].[C:5](=[N:6][H:13])([H:11])[H:12]"
C        2.41209151      -0.20716201       0.39476847
C        0.94260538       0.04492920       0.42195556
O        0.39391868       1.04551912       0.88617652
C       -0.05832400      -0.89187769       0.08342335
C       -2.63215480       0.11227598      -0.29028318
N       -1.82372765       0.66051680      -1.13017545
H        2.72454610      -0.63473784      -0.55969681
H        2.67303200      -0.92639708       1.17389907
H        2.98398719       0.69886689       0.58827158
H       -0.11277418      -1.25240353      -0.94473447
H       -2.77671959       0.48198687       0.72793321
H       -3.40003091      -0.56072677      -0.67139189
H       -1.32644974       1.42921007      -0.68014596
13
Frame=6 idx=002197 GeodesicLength=0.5383548220388307 rxn_smarts="[C:1]([C:2](=[O:3])[C@@:4]1([H:10])[C:5]([H:11])([H:12])[N:6]1[H:13])([H:7])([H:8])[H:9]>>[C:1]([C:2]([O-:3])=[C+:4][H:10])([H:7])([H:8])[H:9].[C:5](=[N:6][H:13])([H:11])[H:12]"
C        2.39567151      -0.19261552       0.37213891
C        0.92842383       0.05471650       0.44971320
O        0.38975801       1.06231837       0.91114050
C       -0.09204832      -0.87272589       0.14611619
C       -2.60581264       0.10442811      -0.29799269
N       -1.76702364       0.62423753      -1.13413145
H        2.69144324      -0.50936644      -0.62959483
H        2.66848952      -0.99935012       1.05592541
H        2.97889187       0.67948769       0.66239235
H       -0.12668123      -1.32933044      -0.84298345
H       -2.79267236       0.52324740       0.69381605
H       -3.37684031      -0.56056318      -0.68654043
H       -1.29159947       1.41551598      -0.69999976
13
Frame=7 idx=002197 GeodesicLength=0.6299470129451789 rxn_smarts="[C:1]([C:2](=[O:3])[C@@:4]1([H:10])[C:5]([H:11])([H:12])[N:6]1[H:13])([H:7])([H:8])[H:9]>>[C:1]([C:2]([O-:3])=[C+:4][H:10])([H:7])([H:8])[H:9].[C:5](=[N:6][H:13])([H:11])[H:12]"
C        2.37873611      -0.17948162       0.34837578
C        0.91624728       0.06669224       0.47981561
O        0.39072871       1.08502575       0.93356866
C       -0.12517556      -0.84817486       0.21161977
C       -2.58091991       0.09630243      -0.30858924
N       -1.70924748       0.59059885      -1.13456488
H        2.65273240      -0.38016492      -0.68886994
H        2.65687204      -1.06578700       0.92314133
H        2.98009980       0.64278597       0.73156948
H       -0.14618795      -1.39915860      -0.72755048
H       -2.81163396       0.55862840       0.65401215
H       -3.34492676      -0.57031814      -0.70777653
H       -1.25732473       1.40305149      -0.71475170
13
Frame=8 idx=002197 GeodesicLength=0.7221157168083395 rxn_smarts="[C:1]([C:2](=[O:3])[C@@:4]1([H:10])[C:5]([H:11])([H:12])[N:6]1[H:13])([H:7])([H:8])[H:9]>>[C:1]([C:2]([O-:3])=[C+:4][H:10])([H:7])([H:8])[H:9].[C:5](=[N:6][H:13])([H:11])[H:12]"
C        2.35991607      -0.16614256       0.32643839
C        0.90298538       0.07501830       0.50770956
O        0.38682967       1.10154906       0.95463572
C       -0.15542318      -0.82782764       0.26732414
C       -2.55348077       0.08801318      -0.31440577
N       -1.65343393       0.55255414      -1.13552514
H        2.61802093      -0.24502544      -0.73109286
H        2.63893900      -1.11827743       0.78370852
H        2.97689235       0.59575509       0.79908241
H       -0.16360540      -1.46324425      -0.61612407
H       -2.82028459       0.59700930       0.61458283
H       -3.31784474      -0.57467487      -0.71926361
H       -1.21951081       1.38529313      -0.73707011
13
Frame=9 idx=002197 GeodesicLength=0.8158783671995193 rxn_smarts="[C:1]([C:2](=[O:3])[C@@:4]1([H:10])[C:5]([H:11])([H:12])[N:6]1[H:13])([H:7])([H:8])[H:9]>>[C:1]([C:2]([O-:3])=[C+:4][H:10])([H:7])([H:8])[H:9].[C:5](=[N:6][H:13])([H:11])[H:12]"
C        2.33987986      -0.15395076       0.30246646
C        0.89183810       0.08517300       0.53981046
O        0.38799242       1.12241653       0.97656817
C       -0.18502294      -0.80244069       0.32764732
C       -2.52635285       0.07849233      -0.32453080
N       -1.59452698       0.51758666      -1.13239152
H        2.57744190      -0.11063506      -0.76172123
H        2.61150231      -1.15971491       0.63184912
H        2.97911860       0.53270006       0.85365863
H       -0.18634187      -1.51873449      -0.49036047
H       -2.83192972       0.62723625       0.56890509
H       -3.28229766      -0.58712502      -0.73989329
H       -1.18130117       1.36899611      -0.75200794
13
Frame=10 idx=002197 GeodesicLength=0.9098593248973897 rxn_smarts="[C:1]([C:2](=[O:3])[C@@:4]1([H:10])[C:5]([H:11])([H:12])[N:6]1[H:13])([H:7])([H:8])[H:9]>>[C:1]([C:2]([O-:3])=[C+:4][H:10])([H:7])([H:8])[H:9].[C:5](=[N:6][H:13])([H:11])[H:12]"
C        2.31930203      -0.14252558       0.27982300
C        0.88116925       0.09479085       0.56812797
O        0.38786200       1.14116445       0.99608574
C       -0.21213887      -0.77804654       0.38048069
C       -2.49854683       0.06788885      -0.33173481
N       -1.53808292       0.48141028      -1.12811646
H        2.54343060       0.02062016      -0.77555104
H        2.57552035      -1.18601455       0.47870536
H        2.97938772       0.45963380       0.90060712
H       -0.20818860      -1.56609699      -0.36747710
H       -2.83817361       0.65555187       0.52361782
H       -3.24873155      -0.59868760      -0.75567967
H       -1.14280958       1.35031101      -0.76888862
13
Frame=11 idx=002197 GeodesicLength=1.004499970811662 rxn_smarts="[C:1]([C:2](=[O:3])[C@@:4]1([H:10])[C:5]([H:11])([H:12])[N:6]1[H:13])([H:7])([H:8])[H:9]>>[C:1]([C:2]([O-:3])=[C+:4][H:10])([H:7])([H:8])[H:9].[C:5](=[N:6][H:13])([H:11])[H:12]"
C        2.29883158      -0.13262925       0.25743738
C        0.87220997       0.10675664       0.59310473
O        0.39024325       1.16245727       1.01200385
C       -0.23726565      -0.75057932       0.43024088
C       -2.47129455       0.05557549      -0.33856177
N       -1.48345036       0.44642619      -1.12167039
H        2.51683690       0.14837938      -0.77405126
H        2.52802636      -1.19923442       0.32142429
H        2.97995511       0.37172237       0.93947273
H       -0.23158427      -1.60338149      -0.24171241
H       -2.84392244       0.67858107       0.47686690
H       -3.21229253      -0.61588478      -0.77065725
H       -1.10629339       1.33181086      -0.78389770
13
Frame=12 idx=002197 GeodesicLength=1.1001774158666902 rxn_smarts="[C:1]([C:2](=[O:3])[C@@:4]1([H:10])[C:5]([H:11])([H:12])[N:6]1[H:13])([H:7])([H:8])[H:9]>>[C:1]([C:2]([O-:3])=[C+:4][H:10])([H:7])([H:8])[H:9].[C:5](=[N:6][H:13])([H:11])[H:12]"
C        2.27683332      -0.12305081       0.23480072
C        0.86335414       0.11756262       0.61860399
O        0.39134418       1.18163472       1.02869160
C       -0.26084471      -0.72446632       0.47699886
C       -2.44280801       0.04248284      -0.34426027
N       -1.42857509       0.41019163      -1.11390572
H        2.49382921       0.27099690      -0.75915989
H        2.47282565      -1.19585777       0.16328654
H        2.97705600       0.27567420       0.96551752
H       -0.25381560      -1.63344765      -0.11545893
H       -2.84560071       0.69986505       0.42851234
H       -3.17598075      -0.63235771      -0.78420474
H       -1.06761763       1.31077229      -0.79942202
13
Frame=13 idx=002197 GeodesicLength=1.1967981023525116 rxn_smarts="[C:1]([C:2](=[O:3])[C@@:4]1([H:10])[C:5]([H:11])([H:12])[N:6]1[H:13])([H:7])([H:8])[H:9]>>[C:1]([C:2]([O-:3])=[C+:4][H:10])([H:7])([H:8])[H:9].[C:5](=[N:6][H:13])([H:11])[H:12]"
C        2.25505255      -0.11537099       0.21203709
C        0.85646547       0.13165571       0.64120584
O        0.39577241       1.20464991       1.04178057
C       -0.28255653      -0.69419640       0.52201078
C       -2.41496090       0.02677500      -0.35016553
N       -1.37527901       0.37611889      -1.10364722
H        2.48146716       0.38608867      -0.72995723
H        2.40519326      -1.17778852       0.00380928
H        2.97198675       0.16465269       0.98054963
H       -0.27653414      -1.65203806       0.01367857
H       -2.84839947       0.71376694       0.37876667
H       -3.13605434      -0.65542069      -0.79844126
H       -1.03215320       1.29110685      -0.81162718
13
Frame=14 idx=002197 GeodesicLength=1.295706668319976 rxn_smarts="[C:1]([C:2](=[O:3])[C@@:4]1([H:10])[C:5]([H:11])([H:12])[N:6]1[H:13])([H:7])([H:8])[H:9]>>[C:1]([C:2]([O-:3])=[C+:4][H:10])([H:7])([H:8])[H:9].[C:5](=[N:6][H:13])([H:11])[H:12]"
C        2.23076089      -0.10807513       0.18846979
C        0.84972147       0.14444359       0.66677163
O        0.39904364       1.22577890       1.05712141
C       -0.30313919      -0.66515573       0.56571941
C       -2.38526431       0.01022519      -0.35577109
N       -1.32028684       0.34134271      -1.09169452
H        2.47103555       0.49128411      -0.69071132
H        2.32930444      -1.14212699      -0.15180790
H        2.96179341       0.04887009       0.97823335
H       -0.29711630      -1.66302159       0.14282095
H       -2.84750179       0.72523636       0.32681031
H       -3.09462562      -0.67826058      -0.81290386
H       -0.99372536       1.26945905      -0.82305816
13
Frame=15 idx=002197 GeodesicLength=1.3964452726244148 rxn_smarts="[C:1]([C:2](=[O:3])[C@@:4]1([H:10])[C:5]([H:11])([H:12])[N:6]1[H:13])([H:7])([H:8])[H:9]>>[C:1]([C:2]([O-:3])=[C+:4][H:10])([H:7])([H:8])[H:9].[C:5](=[N:6][H:13])([H:11])[H:12]"
C        2.20689478      -0.10283767       0.16530914
C        0.84456906       0.16049148       0.68855117
O        0.40454220       1.25059195       1.06763977
C       -0.32183858      -0.63283000       0.60630580
C       -2.35636335      -0.00881945      -0.36027518
N       -1.26796376       0.30833926      -1.07805712
H        2.47578899       0.58559177      -0.63690467
H        2.24346020      -1.08947881      -0.30420853
H        2.94406625      -0.08000830       0.96441433
H       -0.31622251      -1.66275135       0.27013258
H       -2.84721802       0.73027484       0.27484076
H       -3.05067411      -0.70752279      -0.82483808
H       -0.95904115       1.24895906      -0.83290996
13
Frame=16 idx=002197 GeodesicLength=1.5008276829618494 rxn_smarts="[C:1]([C:2](=[O:3])[C@@:4]1([H:10])[C:5]([H:11])([H:12])[N:6]1[H:13])([H:7])([H:8])[H:9]>>[C:1]([C:2]([O-:3])=[C+:4][H:10])([H:7])([H:8])[H:9].[C:5](=[N:6][H:13])([H:11])[H:12]"
C        2.18018155      -0.09765953       0.14215513
C        0.83901759       0.17404261       0.71279490
O        0.40715350       1.27177534       1.07961711
C       -0.33935969      -0.60381842       0.64375201
C       -2.32565192      -0.02719974      -0.36323265
N       -1.21474449       0.27373950      -1.06367250
H        2.48156670       0.66583828      -0.57599783
H        2.15400861      -1.01954675      -0.44490030
H        2.91799660      -0.20613145       0.93341442
H       -0.33188589      -1.65684450       0.39126188
H       -2.84108789       0.73549305       0.22222361
H       -3.00684160      -0.73489898      -0.83334442
H       -0.92035306       1.22521060      -0.84407136
