13
Frame=0 idx=011254 GeodesicLength=0.0 rxn_smarts="[C:1]([C@@:2]1([H:11])[O:3][C:4](=[O:5])[C:6]([H:12])=[C:7]1[H:13])([H:8])([H:9])[H:10]>>[C:1]([C@@:2]1([H:11])[O:3][C@:7]1([C:6](=[C:4]=[O:5])[H:12])[H:13])([H:8])([H:9])[H:10]"
C       -1.52352185      -0.37121286      -0.43263382
C       -0.67700231       0.21977297       0.66396612
O        0.32682405      -0.62094591       1.21174513
C        1.52718787      -0.85062433      -0.24469044
O        1.94610365      -1.92689350      -0.33431106
C        1.47530147       0.49141141      -0.50044002
C        0.52088206       1.01735514       0.39711777
H       -2.07508369      -1.22432176      -0.03505438
H       -2.24217696       0.36365361      -0.80084366
H       -0.91390369      -0.71083256      -1.27041887
H       -1.29112781       0.64012574       1.46553653
H        2.23286782       1.02186299      -1.05157447
H        0.69364942       1.95064908       0.93160113
13
Frame=1 idx=011254 GeodesicLength=0.027499416143792685 rxn_smarts="[C:1]([C@@:2]1([H:11])[O:3][C:4](=[O:5])[C:6]([H:12])=[C:7]1[H:13])([H:8])([H:9])[H:10]>>[C:1]([C@@:2]1([H:11])[O:3][C@:7]1([C:6](=[C:4]=[O:5])[H:12])[H:13])([H:8])([H:9])[H:10]"
C       -1.53044766      -0.36720517      -0.43175525
C       -0.67925738       0.21750856       0.66413060
O        0.32657917      -0.62519586       1.20437367
C        1.53580993      -0.85539978      -0.24011560
O        1.97191146      -1.92555344      -0.33231756
C        1.47845100       0.48800198      -0.49732871
C        0.52015181       1.01315103       0.39570771
H       -2.08580998      -1.21834092      -0.03530700
H       -2.24479610       0.37303733      -0.79754123
H       -0.92389765      -0.70884807      -1.27089841
H       -1.28869439       0.63482391       1.47076070
H        2.23548168       1.01985501      -1.04822405
H        0.68451810       1.95416542       0.91851513
13
Frame=2 idx=011254 GeodesicLength=0.054826082403269874 rxn_smarts="[C:1]([C@@:2]1([H:11])[O:3][C:4](=[O:5])[C:6]([H:12])=[C:7]1[H:13])([H:8])([H:9])[H:10]>>[C:1]([C@@:2]1([H:11])[O:3][C@:7]1([C:6](=[C:4]=[O:5])[H:12])[H:13])([H:8])([H:9])[H:10]"
C       -1.53738143      -0.36314878      -0.43086191
C       -0.68149227       0.21518049       0.66429594
O        0.32629402      -0.62955269       1.19692798
C        1.54466456      -0.86015377      -0.23528144
O        1.99760693      -1.92399804      -0.33033879
C        1.48162767       0.48455728      -0.49415728
C        0.51944766       1.00888744       0.39433897
H       -2.09657712      -1.21227219      -0.03555598
H       -2.24735277       0.38249161      -0.79417322
H       -0.93394574      -0.70679248      -1.27138697
H       -1.28619724       0.62940115       1.47597881
H        2.23803714       1.01783559      -1.04490345
H        0.67526858       1.95756440       0.90511736
13
Frame=3 idx=011254 GeodesicLength=0.0819192524259841 rxn_smarts="[C:1]([C@@:2]1([H:11])[O:3][C:4](=[O:5])[C:6]([H:12])=[C:7]1[H:13])([H:8])([H:9])[H:10]>>[C:1]([C@@:2]1([H:11])[O:3][C@:7]1([C:6](=[C:4]=[O:5])[H:12])[H:13])([H:8])([H:9])[H:10]"
C       -1.54427667      -0.35907177      -0.42995437
C       -0.68371127       0.21282560       0.66445179
O        0.32596623      -0.63394391       1.18943982
C        1.55375967      -0.86483047      -0.23013673
O        2.02298074      -1.92231760      -0.32846077
C        1.48484322       0.48111196      -0.49089957
C        0.51875914       1.00461113       0.39300873
H       -2.10727956      -1.20617647      -0.03579994
H       -2.24984703       0.39192971      -0.79075413
H       -0.94398117      -0.70465927      -1.27188386
H       -1.28367629       0.62391038       1.48114390
H        2.24049441       1.01581485      -1.04167702
H        0.66596858       1.96079585       0.89152215
13
Frame=4 idx=011254 GeodesicLength=0.10861791297106764 rxn_smarts="[C:1]([C@@:2]1([H:11])[O:3][C:4](=[O:5])[C:6]([H:12])=[C:7]1[H:13])([H:8])([H:9])[H:10]>>[C:1]([C@@:2]1([H:11])[O:3][C@:7]1([C:6](=[C:4]=[O:5])[H:12])[H:13])([H:8])([H:9])[H:10]"
C       -1.55107389      -0.35503974      -0.42902794
C       -0.68589482       0.21045600       0.66461006
O        0.32563021      -0.63830666       1.18199225
C        1.56319931      -0.86938075      -0.22451343
O        2.04755192      -1.92055164      -0.32705695
C        1.48814286       0.47770146      -0.48749145
C        0.51808856       1.00036824       0.39172671
H       -2.11786568      -1.20010584      -0.03600232
H       -2.25221812       0.40126185      -0.78734879
H       -0.95390919      -0.70255724      -1.27234364
H       -1.28114367       0.61838623       1.48623580
H        2.24292564       1.01381910      -1.03845637
H        0.65656687       1.96394900       0.87767608
13
Frame=5 idx=011254 GeodesicLength=0.13504039262468076 rxn_smarts="[C:1]([C@@:2]1([H:11])[O:3][C:4](=[O:5])[C:6]([H:12])=[C:7]1[H:13])([H:8])([H:9])[H:10]>>[C:1]([C@@:2]1([H:11])[O:3][C@:7]1([C:6](=[C:4]=[O:5])[H:12])[H:13])([H:8])([H:9])[H:10]"
C       -1.55778950      -0.35102570      -0.42809078
C       -0.68806160       0.20809749       0.66475333
O        0.32525661      -0.64262928       1.17455250
C        1.57288508      -0.87379512      -0.21848861
O        2.07157134      -1.91876756      -0.32591808
C        1.49149359       0.47432934      -0.48396337
C        0.51742310       0.99616903       0.39047503
H       -2.12828969      -1.19408276      -0.03619369
H       -2.25452803       0.41048830      -0.78391859
H       -0.96376639      -0.70039061      -1.27281414
H       -1.27861483       0.61285316       1.49123783
H        2.24525274       1.01183123      -1.03534851
H        0.64716758       1.96692248       0.86371708
13
Frame=6 idx=011254 GeodesicLength=0.16128401765059575 rxn_smarts="[C:1]([C@@:2]1([H:11])[O:3][C:4](=[O:5])[C:6]([H:12])=[C:7]1[H:13])([H:8])([H:9])[H:10]>>[C:1]([C@@:2]1([H:11])[O:3][C@:7]1([C:6](=[C:4]=[O:5])[H:12])[H:13])([H:8])([H:9])[H:10]"
C       -1.56446702      -0.34700552      -0.42715014
C       -0.69021689       0.20573253       0.66488282
O        0.32484717      -0.64696022       1.16708726
C        1.58282960      -0.87809961      -0.21207700
O        2.09523375      -1.91692376      -0.32494595
C        1.49488470       0.47097598      -0.48033509
C        0.51676879       0.99199187       0.38925959
H       -2.13863113      -1.18806701      -0.03638730
H       -2.25679746       0.41967266      -0.78046077
H       -0.97360669      -0.69815867      -1.27330379
H       -1.27607580       0.60728575       1.49617455
H        2.24745667       1.00984330      -1.03237612
H        0.63777431       1.96971270       0.84963194
13
Frame=7 idx=011254 GeodesicLength=0.18714113663319087 rxn_smarts="[C:1]([C@@:2]1([H:11])[O:3][C:4](=[O:5])[C:6]([H:12])=[C:7]1[H:13])([H:8])([H:9])[H:10]>>[C:1]([C@@:2]1([H:11])[O:3][C@:7]1([C:6](=[C:4]=[O:5])[H:12])[H:13])([H:8])([H:9])[H:10]"
C       -1.57106613      -0.34301290      -0.42619847
C       -0.69234718       0.20335533       0.66500098
O        0.32441415      -0.65127263       1.15963051
C        1.59310004      -0.88227817      -0.20517634
O        2.11821697      -1.91491557      -0.32433619
C        1.49834365       0.46763833      -0.47657288
C        0.51612940       0.98783796       0.38807788
H       -2.14886288      -1.18207130      -0.03655820
H       -2.25897258       0.42876850      -0.77700317
H       -0.98336726      -0.69591945      -1.27377894
H       -1.27352976       0.60168437       1.50103223
H        2.24958459       1.00784535      -1.02948355
H        0.62835699       1.97234020       0.83536615
13
Frame=8 idx=011254 GeodesicLength=0.21265665592330013 rxn_smarts="[C:1]([C@@:2]1([H:11])[O:3][C:4](=[O:5])[C:6]([H:12])=[C:7]1[H:13])([H:8])([H:9])[H:10]>>[C:1]([C@@:2]1([H:11])[O:3][C@:7]1([C:6](=[C:4]=[O:5])[H:12])[H:13])([H:8])([H:9])[H:10]"
C       -1.57749120      -0.33912569      -0.42522824
C       -0.69445039       0.20103858       0.66510753
O        0.32397836      -0.65540316       1.15229170
C        1.60370445      -0.88618473      -0.19764279
O        2.14006889      -1.91312661      -0.32450687
C        1.50189688       0.46441862      -0.47260564
C        0.51547354       0.98382072       0.38692029
H       -2.15880586      -1.17621864      -0.03667224
H       -2.26102493       0.43760225      -0.77360565
H       -0.99290955      -0.69373391      -1.27420428
H       -1.27103720       0.59615762       1.50574744
H        2.25168067       1.00589544      -1.02661055
H        0.61891634       1.97485951       0.82100930
13
Frame=9 idx=011254 GeodesicLength=0.23781877002162738 rxn_smarts="[C:1]([C@@:2]1([H:11])[O:3][C:4](=[O:5])[C:6]([H:12])=[C:7]1[H:13])([H:8])([H:9])[H:10]>>[C:1]([C@@:2]1([H:11])[O:3][C@:7]1([C:6](=[C:4]=[O:5])[H:12])[H:13])([H:8])([H:9])[H:10]"
C       -1.58375137      -0.33536386      -0.42424251
C       -0.69652331       0.19877974       0.66520590
O        0.32356234      -0.65935093       1.14508607
C        1.61470766      -0.88982047      -0.18940861
O        2.16068289      -1.91151786      -0.32557665
C        1.50556064       0.46131444      -0.46842073
C        0.51480748       0.97994717       0.38578846
H       -2.16849533      -1.17051040      -0.03671907
H       -2.26295309       0.44616920      -0.77030063
H       -1.00223161      -0.69166563      -1.27456417
H       -1.26859868       0.59071453       1.51032565
H        2.25378755       1.00399996      -1.02370488
H        0.60944482       1.97730410       0.80653118
13
Frame=10 idx=011254 GeodesicLength=0.26270937259742644 rxn_smarts="[C:1]([C@@:2]1([H:11])[O:3][C:4](=[O:5])[C:6]([H:12])=[C:7]1[H:13])([H:8])([H:9])[H:10]>>[C:1]([C@@:2]1([H:11])[O:3][C@:7]1([C:6](=[C:4]=[O:5])[H:12])[H:13])([H:8])([H:9])[H:10]"
C       -1.58989048      -0.33167736      -0.42324886
C       -0.69857317       0.19655314       0.66529302
O        0.32314375      -0.66318451       1.13795690
C        1.62607380      -0.89322344      -0.18052603
O        2.18036946      -1.90998808      -0.32731713
C        1.50930976       0.45828474      -0.46404850
C        0.51413566       0.97616846       0.38468142
H       -2.17799196      -1.16489553      -0.03672994
H       -2.26478654       0.45455474      -0.76704335
H       -1.01140078      -0.68964146      -1.27489176
H       -1.26619162       0.58531000       1.51479480
H        2.25584321       1.00211829      -1.02084295
H        0.59995891       1.97962102       0.79192239
13
Frame=11 idx=011254 GeodesicLength=0.2874146044695067 rxn_smarts="[C:1]([C@@:2]1([H:11])[O:3][C:4](=[O:5])[C:6]([H:12])=[C:7]1[H:13])([H:8])([H:9])[H:10]>>[C:1]([C@@:2]1([H:11])[O:3][C@:7]1([C:6](=[C:4]=[O:5])[H:12])[H:13])([H:8])([H:9])[H:10]"
C       -1.59596256      -0.32801995      -0.42225100
C       -0.70060742       0.19433071       0.66536368
O        0.32270900      -0.66697356       1.13083425
C        1.63777130      -0.89642864      -0.17106754
O        2.19944055      -1.90843523      -0.32949510
C        1.51311415       0.45529248      -0.45953825
C        0.51346172       0.97243833       0.38359015
H       -2.18737932      -1.15931411      -0.03672318
H       -2.26655599       0.46284455      -0.76379466
H       -1.02049991      -0.68761151      -1.27521138
H       -1.26378821       0.57989260       1.51918531
H        2.25782012       1.00022268      -1.01805922
H        0.59047659       1.98176165       0.77716695
13
Frame=12 idx=011254 GeodesicLength=0.3120679506921062 rxn_smarts="[C:1]([C@@:2]1([H:11])[O:3][C:4](=[O:5])[C:6]([H:12])=[C:7]1[H:13])([H:8])([H:9])[H:10]>>[C:1]([C@@:2]1([H:11])[O:3][C@:7]1([C:6](=[C:4]=[O:5])[H:12])[H:13])([H:8])([H:9])[H:10]"
C       -1.60206359      -0.32430645      -0.42125538
C       -0.70264019       0.19206496       0.66540784
O        0.32222988      -0.67084588       1.12359004
C        1.64971798      -0.89951627      -0.16120516
O        2.21849641      -1.90667833      -0.33163773
C        1.51691790       0.45227298      -0.45498523
C        0.51279139       0.96867688       0.38250020
H       -2.19680173      -1.15365947      -0.03673103
H       -2.26831403       0.47119607      -0.76048365
H       -1.02968260      -0.68547937      -1.27557380
H       -1.26134036       0.57437692       1.52354630
H        2.25964654       0.99826709      -1.01545105
H        0.58104241       1.98363087       0.76227866
13
Frame=13 idx=011254 GeodesicLength=0.33654398510045597 rxn_smarts="[C:1]([C@@:2]1([H:11])[O:3][C:4](=[O:5])[C:6]([H:12])=[C:7]1[H:13])([H:8])([H:9])[H:10]>>[C:1]([C@@:2]1([H:11])[O:3][C@:7]1([C:6](=[C:4]=[O:5])[H:12])[H:13])([H:8])([H:9])[H:10]"
C       -1.60812035      -0.32060166      -0.42025536
C       -0.70464917       0.18976504       0.66543930
O        0.32174544      -0.67473140       1.11630954
C        1.66203908      -0.90241098      -0.15074044
O        2.23699391      -1.90478928      -0.33416138
C        1.52077693       0.44926570      -0.45029936
C        0.51212849       0.96492761       0.38143495
H       -2.20619653      -1.14797652      -0.03672245
H       -2.26997940       0.47951724      -0.75717945
H       -1.03882979      -0.68335103      -1.27592332
H       -1.25886749       0.56878671       1.52785696
H        2.26138867       0.99627899      -1.01292184
H        0.57157021       1.98531958       0.74716284
13
Frame=14 idx=011254 GeodesicLength=0.36065000976204975 rxn_smarts="[C:1]([C@@:2]1([H:11])[O:3][C:4](=[O:5])[C:6]([H:12])=[C:7]1[H:13])([H:8])([H:9])[H:10]>>[C:1]([C@@:2]1([H:11])[O:3][C@:7]1([C:6](=[C:4]=[O:5])[H:12])[H:13])([H:8])([H:9])[H:10]"
C       -1.61386702      -0.31713069      -0.41925090
C       -0.70660124       0.18756618       0.66548236
O        0.32133502      -0.67827371       1.10934248
C        1.67494504      -0.90484397      -0.13911774
O        2.25336100      -1.90330091      -0.33835726
C        1.52484284       0.44645367      -0.44518908
C        0.51144445       0.96141917       0.38042723
H       -2.21516227      -1.14255978      -0.03663827
H       -2.27140949       0.48739316      -0.75409197
H       -1.04751542      -0.68147710      -1.27614294
H       -1.25651140       0.56336654       1.53198162
H        2.26315608       0.99434594      -1.01031694
H        0.56198241       1.98704150       0.73187140
13
Frame=15 idx=011254 GeodesicLength=0.38438186093958443 rxn_smarts="[C:1]([C@@:2]1([H:11])[O:3][C:4](=[O:5])[C:6]([H:12])=[C:7]1[H:13])([H:8])([H:9])[H:10]>>[C:1]([C@@:2]1([H:11])[O:3][C@:7]1([C:6](=[C:4]=[O:5])[H:12])[H:13])([H:8])([H:9])[H:10]"
C       -1.61927870      -0.31393135      -0.41824131
C       -0.70848459       0.18547030       0.66553969
O        0.32102628      -0.68144583       1.10272509
C        1.68848891      -0.90679054      -0.12625605
O        2.26731459      -1.90218165      -0.34441798
C        1.52915229       0.44384871      -0.43960620
C        0.51074663       0.95816831       0.37947721
H       -2.22368054      -1.13743999      -0.03646262
H       -2.27258549       0.49477731      -0.75124967
H       -1.05569455      -0.67991713      -1.27621227
H       -1.25427839       0.55813495       1.53591227
H        2.26501709       0.99247820      -1.00754826
H        0.55225647       1.98882870       0.71634011
13
Frame=16 idx=011254 GeodesicLength=0.4079000203853359 rxn_smarts="[C:1]([C@@:2]1([H:11])[O:3][C:4](=[O:5])[C:6]([H:12])=[C:7]1[H:13])([H:8])([H:9])[H:10]>>[C:1]([C@@:2]1([H:11])[O:3][C@:7]1([C:6](=[C:4]=[O:5])[H:12])[H:13])([H:8])([H:9])[H:10]"
C       -1.62452221      -0.31085609      -0.41723440
C       -0.71031534       0.18339711       0.66558793
O        0.32077812      -0.68446950       1.09622080
C        1.70247670      -0.90842111      -0.11255109
O        2.27986761      -1.90105991      -0.35141436
C        1.53361436       0.44133450      -0.43372422
C        0.51005453       0.95503167       0.37855043
H       -2.23196182      -1.13246243      -0.03625629
H       -2.27363390       0.50192459      -0.74849075
H       -1.06364773      -0.67845912      -1.27624214
H       -1.25206911       0.55294043       1.53973306
H        2.26686817       0.99059484      -1.00476563
H        0.54249062       1.99050501       0.70058665
