14
Frame=0 idx=005575 GeodesicLength=0.0 rxn_smarts="[C:1]1([H:7])([H:8])[C@:2]2([H:9])[C:3]([H:10])([H:11])[C:4]([H:12])([H:13])[C@@:5]1([H:14])[O:6]2>>[C@@:1]12([H:8])[C@@:2]([H:9])([C:3]([H:10])([H:11])[C:4]([H:12])=[C:5]1[H:14])[O:6]2.[H:7][H:13]"
C        1.10252234       0.28702412      -0.37821794
C        0.23148010       1.03975168       0.53625972
C       -1.15512025       0.41683319       0.35002209
C       -0.74909519      -1.01104544      -0.05214722
C        0.61938567      -1.06243183       0.07250916
O        1.00050605       0.31234881       1.45835684
H        0.38858593       0.22548287      -1.69756912
H        2.12579988       0.56265696      -0.59404824
H        0.31155597       2.12106591       0.62419360
H       -1.70818386       0.40481090       1.29098680
H       -1.75118847       0.94905240      -0.39538894
H       -1.39546149      -1.85561906       0.14242225
H       -0.26934163      -0.45059409      -1.49549855
H        1.24855500      -1.93933647       0.13811955
14
Frame=1 idx=005575 GeodesicLength=0.08018350749587584 rxn_smarts="[C:1]1([H:7])([H:8])[C@:2]2([H:9])[C:3]([H:10])([H:11])[C:4]([H:12])([H:13])[C@@:5]1([H:14])[O:6]2>>[C@@:1]12([H:8])[C@@:2]([H:9])([C:3]([H:10])([H:11])[C:4]([H:12])=[C:5]1[H:14])[O:6]2.[H:7][H:13]"
C        1.10580550       0.28867147      -0.37519943
C        0.22943902       1.04140026       0.53646538
C       -1.15576079       0.41661334       0.35230838
C       -0.74908640      -1.00848853      -0.05778712
C        0.62172227      -1.05964250       0.07883335
O        1.00014468       0.30761817       1.45472357
H        0.39433745       0.22406115      -1.70620261
H        2.13223389       0.56211658      -0.58250343
H        0.31026719       2.12219523       0.62878057
H       -1.70948158       0.40538880       1.29287842
H       -1.75194708       0.94920256      -0.39251932
H       -1.39023565      -1.85320911       0.15526218
H       -0.28643557      -0.45715166      -1.52220517
H        1.24899709      -1.93877575       0.13716522
14
Frame=2 idx=005575 GeodesicLength=0.15878814524048052 rxn_smarts="[C:1]1([H:7])([H:8])[C@:2]2([H:9])[C:3]([H:10])([H:11])[C:4]([H:12])([H:13])[C@@:5]1([H:14])[O:6]2>>[C@@:1]12([H:8])[C@@:2]([H:9])([C:3]([H:10])([H:11])[C:4]([H:12])=[C:5]1[H:14])[O:6]2.[H:7][H:13]"
C        1.10919907       0.29042038      -0.37209404
C        0.22746475       1.04309867       0.53671446
C       -1.15633079       0.41637299       0.35465678
C       -0.74894726      -1.00590682      -0.06360435
C        0.62410253      -1.05682770       0.08535003
O        0.99982750       0.30300263       1.45114219
H        0.39991904       0.22174488      -1.71474357
H        2.13858732       0.56165361      -0.57094934
H        0.30900019       2.12332646       0.63339571
H       -1.71075236       0.40587966       1.29477237
H       -1.75258805       0.94933380      -0.38966103
H       -1.38484497      -1.85057855       0.16748938
H       -0.30412003      -0.46336968      -1.54877347
H        1.24948306      -1.93815031       0.13630489
14
Frame=3 idx=005575 GeodesicLength=0.23617283189205535 rxn_smarts="[C:1]1([H:7])([H:8])[C@:2]2([H:9])[C:3]([H:10])([H:11])[C:4]([H:12])([H:13])[C@@:5]1([H:14])[O:6]2>>[C@@:1]12([H:8])[C@@:2]([H:9])([C:3]([H:10])([H:11])[C:4]([H:12])=[C:5]1[H:14])[O:6]2.[H:7][H:13]"
C        1.11267080       0.29218053      -0.36888394
C        0.22554720       1.04482386       0.53705553
C       -1.15682603       0.41609254       0.35713891
C       -0.74876255      -1.00332798      -0.06939668
C        0.62650616      -1.05403154       0.09206736
O        0.99948301       0.29856193       1.44763861
H        0.40543622       0.21885565      -1.72323163
H        2.14470926       0.56119072      -0.55950871
H        0.30777192       2.12450782       0.63798153
H       -1.71197915       0.40634459       1.29674258
H       -1.75312905       0.94939068      -0.38679112
H       -1.37932440      -1.84771761       0.17904851
H       -0.32210701      -0.46942272      -1.57534923
H        1.25000362      -1.93744848       0.13548827
14
Frame=4 idx=005575 GeodesicLength=0.3120454510749095 rxn_smarts="[C:1]1([H:7])([H:8])[C@:2]2([H:9])[C:3]([H:10])([H:11])[C:4]([H:12])([H:13])[C@@:5]1([H:14])[O:6]2>>[C@@:1]12([H:8])[C@@:2]([H:9])([C:3]([H:10])([H:11])[C:4]([H:12])=[C:5]1[H:14])[O:6]2.[H:7][H:13]"
C        1.11627730       0.29409426      -0.36553888
C        0.22370278       1.04662809       0.53739535
C       -1.15726430       0.41580616       0.35969389
C       -0.74846943      -1.00071301      -0.07532897
C        0.62900656      -1.05117890       0.09899309
O        0.99920936       0.29425534       1.44422336
H        0.41071153       0.21493606      -1.73158952
H        2.15074709       0.56076305      -0.54809288
H        0.30654411       2.12568743       0.64262880
H       -1.71316305       0.40670070       1.29875162
H       -1.75357691       0.94942673      -0.38391210
H       -1.37361267      -1.84457946       0.18982758
H       -0.34065294      -0.47515987      -1.60183645
H        1.25054056      -1.93666658       0.13478511
14
Frame=5 idx=005575 GeodesicLength=0.38713292088241025 rxn_smarts="[C:1]1([H:7])([H:8])[C@:2]2([H:9])[C:3]([H:10])([H:11])[C:4]([H:12])([H:13])[C@@:5]1([H:14])[O:6]2>>[C@@:1]12([H:8])[C@@:2]([H:9])([C:3]([H:10])([H:11])[C:4]([H:12])=[C:5]1[H:14])[O:6]2.[H:7][H:13]"
C        1.12004093       0.29599731      -0.36205330
C        0.22193225       1.04846756       0.53785662
C       -1.15764118       0.41550826       0.36231413
C       -0.74802405      -0.99813873      -0.08122301
C        0.63158803      -1.04835936       0.10610452
O        0.99905278       0.29013083       1.44083636
H        0.41571987       0.21077613      -1.74002741
H        2.15679309       0.56034426      -0.53667243
H        0.30534353       2.12693836       0.64713759
H       -1.71429046       0.40694652       1.30080237
H       -1.75392675       0.94941359      -0.38109202
H       -1.36796235      -1.84131395       0.19973188
H       -0.35972724      -0.48093016      -1.62798911
H        1.25110156      -1.93578063       0.13427381
14
Frame=6 idx=005575 GeodesicLength=0.4606591911613096 rxn_smarts="[C:1]1([H:7])([H:8])[C@:2]2([H:9])[C:3]([H:10])([H:11])[C:4]([H:12])([H:13])[C@@:5]1([H:14])[O:6]2>>[C@@:1]12([H:8])[C@@:2]([H:9])([C:3]([H:10])([H:11])[C:4]([H:12])=[C:5]1[H:14])[O:6]2.[H:7][H:13]"
C        1.12386361       0.29794306      -0.35848536
C        0.22025951       1.05028714       0.53840754
C       -1.15793806       0.41519441       0.36496024
C       -0.74745214      -0.99554336      -0.08702249
C        0.63424609      -1.04554683       0.11346396
O        0.99892898       0.28620970       1.43753495
H        0.42040634       0.20595369      -1.74840479
H        2.16272639       0.55998312      -0.52538373
H        0.30419835       2.12818799       0.65163447
H       -1.71537119       0.40711981       1.30284945
H       -1.75416755       0.94938236      -0.37828342
H       -1.36224844      -1.83792134       0.20877670
H       -0.37915546      -0.48640968      -1.65399717
H        1.25170356      -1.93484007       0.13394965
14
Frame=7 idx=005575 GeodesicLength=0.5329426962863345 rxn_smarts="[C:1]1([H:7])([H:8])[C@:2]2([H:9])[C:3]([H:10])([H:11])[C:4]([H:12])([H:13])[C@@:5]1([H:14])[O:6]2>>[C@@:1]12([H:8])[C@@:2]([H:9])([C:3]([H:10])([H:11])[C:4]([H:12])=[C:5]1[H:14])[O:6]2.[H:7][H:13]"
C        1.12777073       0.29994277      -0.35478215
C        0.21866101       1.05212435       0.53904055
C       -1.15816349       0.41487466       0.36762121
C       -0.74669145      -0.99297296      -0.09277021
C        0.63696795      -1.04275655       0.12098542
O        0.99886777       0.28244499       1.43431438
H        0.42490590       0.20039289      -1.75671980
H        2.16859999       0.55965561      -0.51416792
H        0.30306508       2.12946988       0.65617313
H       -1.71643715       0.40720709       1.30490282
H       -1.75429154       0.94926513      -0.37557082
H       -1.35650862      -1.83429430       0.21709192
H       -0.39916310      -0.49155631      -1.67986950
H        1.25241691      -1.93379725       0.13375099
14
Frame=8 idx=005575 GeodesicLength=0.6039926066128356 rxn_smarts="[C:1]1([H:7])([H:8])[C@:2]2([H:9])[C:3]([H:10])([H:11])[C:4]([H:12])([H:13])[C@@:5]1([H:14])[O:6]2>>[C@@:1]12([H:8])[C@@:2]([H:9])([C:3]([H:10])([H:11])[C:4]([H:12])=[C:5]1[H:14])[O:6]2.[H:7][H:13]"
C        1.13181648       0.30197496      -0.35093969
C        0.21717709       1.05399650       0.53974618
C       -1.15830759       0.41453563       0.37034393
C       -0.74577797      -0.99036124      -0.09859315
C        0.63975900      -1.03996199       0.12870896
O        0.99880721       0.27887275       1.43121840
H        0.42919686       0.19423289      -1.76496568
H        2.17435849       0.55940387      -0.50306842
H        0.30195970       2.13074990       0.66066755
H       -1.71743731       0.40720313       1.30693847
H       -1.75430869       0.94910009      -0.37288099
H       -1.35076078      -1.83053731       0.22464563
H       -0.41964626      -0.49651699      -1.70549557
H        1.25316377      -1.93269219       0.13367438
14
Frame=9 idx=005575 GeodesicLength=0.6748515960947679 rxn_smarts="[C:1]1([H:7])([H:8])[C@:2]2([H:9])[C:3]([H:10])([H:11])[C:4]([H:12])([H:13])[C@@:5]1([H:14])[O:6]2>>[C@@:1]12([H:8])[C@@:2]([H:9])([C:3]([H:10])([H:11])[C:4]([H:12])=[C:5]1[H:14])[O:6]2.[H:7][H:13]"
C        1.13597233       0.30408378      -0.34705577
C        0.21573790       1.05586433       0.54055417
C       -1.15840550       0.41422456       0.37298895
C       -0.74475461      -0.98764636      -0.10444332
C        0.64264234      -1.03709688       0.13656915
O        0.99883768       0.27534046       1.42808606
H        0.43325543       0.18793024      -1.77340474
H        2.18019700       0.55912378      -0.49167758
H        0.30089762       2.13205635       0.66533692
H       -1.71845616       0.40721360       1.30886995
H       -1.75418754       0.94891346      -0.37042891
H       -1.34492818      -1.82677489       0.23187097
H       -0.44088340      -0.50165388      -1.73087448
H        1.25407508      -1.93157855       0.13360861
14
Frame=10 idx=005575 GeodesicLength=0.7445810605544596 rxn_smarts="[C:1]1([H:7])([H:8])[C@:2]2([H:9])[C:3]([H:10])([H:11])[C:4]([H:12])([H:13])[C@@:5]1([H:14])[O:6]2>>[C@@:1]12([H:8])[C@@:2]([H:9])([C:3]([H:10])([H:11])[C:4]([H:12])=[C:5]1[H:14])[O:6]2.[H:7][H:13]"
C        1.14030924       0.30623082      -0.34303460
C        0.21441583       1.05776656       0.54140020
C       -1.15839559       0.41389472       0.37565785
C       -0.74356597      -0.98489833      -0.11042207
C        0.64562133      -1.03422283       0.14467174
O        0.99893052       0.27196256       1.42504685
H        0.43702022       0.18094826      -1.78178769
H        2.18591633       0.55894774      -0.48033025
H        0.29984574       2.13335580       0.67000173
H       -1.71941852       0.40710979       1.31078415
H       -1.75394468       0.94868264      -0.36802129
H       -1.33907959      -1.82289098       0.23836592
H       -0.46265300      -0.50650777      -1.75607316
H        1.25499813      -1.93037898       0.13374061
14
Frame=11 idx=005575 GeodesicLength=0.813481830393291 rxn_smarts="[C:1]1([H:7])([H:8])[C@:2]2([H:9])[C:3]([H:10])([H:11])[C:4]([H:12])([H:13])[C@@:5]1([H:14])[O:6]2>>[C@@:1]12([H:8])[C@@:2]([H:9])([C:3]([H:10])([H:11])[C:4]([H:12])=[C:5]1[H:14])[O:6]2.[H:7][H:13]"
C        1.14477276       0.30841744      -0.33892433
C        0.21313012       1.05970052       0.54231766
C       -1.15833264       0.41354383       0.37830723
C       -0.74220917      -0.98207008      -0.11659818
C        0.64865136      -1.03134494       0.15298113
O        0.99904349       0.26867717       1.42207882
H        0.44071387       0.17347755      -1.79012559
H        2.19164814       0.55881328      -0.46897349
H        0.29879334       2.13469198       0.67467488
H       -1.72034623       0.40692135       1.31266680
H       -1.75360554       0.94841054      -0.36569209
H       -1.33320381      -1.81889583       0.24438297
H       -0.48505392      -0.51123851      -1.78099431
H        1.25599823      -1.92910432       0.13389851
14
Frame=12 idx=005575 GeodesicLength=0.8813661600011684 rxn_smarts="[C:1]1([H:7])([H:8])[C@:2]2([H:9])[C:3]([H:10])([H:11])[C:4]([H:12])([H:13])[C@@:5]1([H:14])[O:6]2>>[C@@:1]12([H:8])[C@@:2]([H:9])([C:3]([H:10])([H:11])[C:4]([H:12])=[C:5]1[H:14])[O:6]2.[H:7][H:13]"
C        1.14933886       0.31064144      -0.33465340
C        0.21195745       1.06163426       0.54331409
C       -1.15818628       0.41315647       0.38103684
C       -0.74066142      -0.97922911      -0.12275563
C        0.65175480      -1.02849618       0.16151344
O        0.99918797       0.26563620       1.41921137
H        0.44416234       0.16542446      -1.79838971
H        2.19731461       0.55871682      -0.45770188
H        0.29780537       2.13606202       0.67927207
H       -1.72124793       0.40664019       1.31449776
H       -1.75313584       0.94810155      -0.36337810
H       -1.32732631      -1.81480825       0.24947287
H       -0.50803998      -0.51575689      -1.80568781
H        1.25707637      -1.92772299       0.13424809
14
Frame=13 idx=005575 GeodesicLength=0.9484528057993673 rxn_smarts="[C:1]1([H:7])([H:8])[C@:2]2([H:9])[C:3]([H:10])([H:11])[C:4]([H:12])([H:13])[C@@:5]1([H:14])[O:6]2>>[C@@:1]12([H:8])[C@@:2]([H:9])([C:3]([H:10])([H:11])[C:4]([H:12])=[C:5]1[H:14])[O:6]2.[H:7][H:13]"
C        1.15403760       0.31291857      -0.33032564
C        0.21084451       1.06358452       0.54438144
C       -1.15795072       0.41277014       0.38366832
C       -0.73890424      -0.97635502      -0.12888519
C        0.65495273      -1.02562174       0.17017686
O        0.99938170       0.26263113       1.41643898
H        0.44735510       0.15669938      -1.80667484
H        2.20294269       0.55870241      -0.44636315
H        0.29682387       2.13740483       0.68405649
H       -1.72215721       0.40630616       1.31623451
H       -1.75251470       0.94776354      -0.36126510
H       -1.32137185      -1.81056976       0.25406947
H       -0.53173233      -0.51999934      -1.83024151
H        1.25829286      -1.92623484       0.13472936
14
Frame=14 idx=005575 GeodesicLength=1.0145840014490035 rxn_smarts="[C:1]1([H:7])([H:8])[C@:2]2([H:9])[C:3]([H:10])([H:11])[C:4]([H:12])([H:13])[C@@:5]1([H:14])[O:6]2>>[C@@:1]12([H:8])[C@@:2]([H:9])([C:3]([H:10])([H:11])[C:4]([H:12])=[C:5]1[H:14])[O:6]2.[H:7][H:13]"
C        1.15884577       0.31525904      -0.32583979
C        0.20984602       1.06554729       0.54547086
C       -1.15761996       0.41235364       0.38630733
C       -0.73695621      -0.97340280      -0.13514960
C        0.65823610      -1.02276174       0.17911960
O        0.99963426       0.25979573       1.41376642
H        0.45022092       0.14734850      -1.81490967
H        2.20855027       0.55872347      -0.43509653
H        0.29585227       2.13875988       0.68880167
H       -1.72301509       0.40583682       1.31794409
H       -1.75179113       0.94738516      -0.35918361
H       -1.31538254      -1.80628279       0.25790706
H       -0.55594417      -0.52390770      -1.85460241
H        1.25952348      -1.92465448       0.13546459
14
Frame=15 idx=005575 GeodesicLength=1.0799292364076758 rxn_smarts="[C:1]1([H:7])([H:8])[C@:2]2([H:9])[C:3]([H:10])([H:11])[C:4]([H:12])([H:13])[C@@:5]1([H:14])[O:6]2>>[C@@:1]12([H:8])[C@@:2]([H:9])([C:3]([H:10])([H:11])[C:4]([H:12])=[C:5]1[H:14])[O:6]2.[H:7][H:13]"
C        1.16377579       0.31760783      -0.32124378
C        0.20889708       1.06752942       0.54660189
C       -1.15723340       0.41190194       0.38891142
C       -0.73480948      -0.97041117      -0.14150323
C        0.66155799      -1.01990279       0.18812659
O        0.99994920       0.25707301       1.41113572
H        0.45289630       0.13748927      -1.82313632
H        2.21418311       0.55880749      -0.42373720
H        0.29487941       2.14014566       0.69358362
H       -1.72382483       0.40528670       1.31960312
H       -1.75096410       0.94699298      -0.35716892
H       -1.30940305      -1.80189359       0.26117870
H       -0.58077618      -0.52764895      -1.87873608
H        1.26087216      -1.92297779       0.13638446
14
Frame=16 idx=005575 GeodesicLength=1.1444724936766109 rxn_smarts="[C:1]1([H:7])([H:8])[C@:2]2([H:9])[C:3]([H:10])([H:11])[C:4]([H:12])([H:13])[C@@:5]1([H:14])[O:6]2>>[C@@:1]12([H:8])[C@@:2]([H:9])([C:3]([H:10])([H:11])[C:4]([H:12])=[C:5]1[H:14])[O:6]2.[H:7][H:13]"
C        1.16885814       0.32001074      -0.31647706
C        0.20802456       1.06954196       0.54783520
C       -1.15675967       0.41143302       0.39149856
C       -0.73246940      -0.96736416      -0.14801427
C        0.66496873      -1.01703124       0.19737063
O        1.00030112       0.25449780       1.40860741
H        0.45530304       0.12699345      -1.83124643
H        2.21977993       0.55893908      -0.41243903
H        0.29392741       2.14153030       0.69833850
H       -1.72464418       0.40464737       1.32115198
H       -1.75000023       0.94651345      -0.35530710
H       -1.30336505      -1.79746386       0.26389216
H       -0.60620863      -0.53099175      -1.90260823
H        1.26228421      -1.92125616       0.13739768
