15
Frame=0 idx=009020 GeodesicLength=0.0 rxn_smarts="[C:1]([C@@:2]12[O:3][C@@:4]3([H:11])[C:5]([H:12])([H:13])[C@:6]1([H:14])[C@@:7]23[H:15])([H:8])([H:9])[H:10]>>[C:1]([C:2](=[O:3])[C@:6]1([H:14])[C:5]([H:12])([H:13])[C:4]([H:11])=[C:7]1[H:15])([H:8])([H:9])[H:10]"
C        2.09062262       0.12910998      -0.27698104
C        0.61166153       0.16186904      -0.20956793
O       -0.01927050       1.19360186      -0.70496634
C       -1.40205027       0.77522691       0.09935957
C       -1.56814645      -0.61134052      -0.48898707
C       -0.26784881      -0.87456368       0.30394343
C       -0.78954952       0.19257656       1.31233012
H        2.52610270       1.06321917       0.07541778
H        2.49567094      -0.71162970       0.28305930
H        2.36398858       0.01243449      -1.33027719
H       -2.06093081       1.62857719      -0.01458388
H       -2.39475200      -1.15084537      -0.03586360
H       -1.54805230      -0.71532320      -1.57595847
H        0.13047544      -1.85169807       0.56152639
H       -0.16792110       0.75878539       2.00154894
15
Frame=1 idx=009020 GeodesicLength=0.09359859291172279 rxn_smarts="[C:1]([C@@:2]12[O:3][C@@:4]3([H:11])[C:5]([H:12])([H:13])[C@:6]1([H:14])[C@@:7]23[H:15])([H:8])([H:9])[H:10]>>[C:1]([C:2](=[O:3])[C@:6]1([H:14])[C:5]([H:12])([H:13])[C:4]([H:11])=[C:7]1[H:15])([H:8])([H:9])[H:10]"
C        2.09633421       0.13984276      -0.26038585
C        0.61489547       0.14543755      -0.24339221
O       -0.01004482       1.16497721      -0.77117607
C       -1.40028989       0.77672454       0.09915708
C       -1.59041934      -0.61226316      -0.47796976
C       -0.27268703      -0.88196082       0.28286386
C       -0.75641241       0.19567719       1.29353416
H        2.50254146       1.07977799       0.11150206
H        2.49786597      -0.69425837       0.31225334
H        2.40973735       0.03044478      -1.30295270
H       -2.05886284       1.63247875       0.00268109
H       -2.41170264      -1.14664017      -0.00885951
H       -1.60361552      -0.71505831      -1.56509456
H        0.11834228      -1.86316943       0.53448990
H       -0.13568224       0.74798949       1.99334916
15
Frame=2 idx=009020 GeodesicLength=0.18667194801254428 rxn_smarts="[C:1]([C@@:2]12[O:3][C@@:4]3([H:11])[C:5]([H:12])([H:13])[C@:6]1([H:14])[C@@:7]23[H:15])([H:8])([H:9])[H:10]>>[C:1]([C:2](=[O:3])[C@:6]1([H:14])[C:5]([H:12])([H:13])[C:4]([H:11])=[C:7]1[H:15])([H:8])([H:9])[H:10]"
C        2.10092674       0.15072509      -0.24488945
C        0.61906741       0.12890595      -0.27461859
O        0.00019603       1.13425718      -0.83634026
C       -1.39745634       0.77856477       0.09883616
C       -1.61079448      -0.61244604      -0.46712801
C       -0.27748315      -0.88926150       0.26296517
C       -0.72463744       0.19827415       1.27450824
H        2.47752715       1.09661183       0.14324566
H        2.49958681      -0.67606137       0.34050172
H        2.45155109       0.04806285      -1.27591345
H       -2.05492349       1.63692278       0.01927892
H       -2.42718248      -1.14175382       0.01654792
H       -1.65572098      -0.71340721      -1.55351581
H        0.10597614      -1.87441775       0.50914556
H       -0.10663301       0.73502310       1.98737621
15
Frame=3 idx=009020 GeodesicLength=0.2793058347475981 rxn_smarts="[C:1]([C@@:2]12[O:3][C@@:4]3([H:11])[C:5]([H:12])([H:13])[C@:6]1([H:14])[C@@:7]23[H:15])([H:8])([H:9])[H:10]>>[C:1]([C:2](=[O:3])[C@:6]1([H:14])[C:5]([H:12])([H:13])[C:4]([H:11])=[C:7]1[H:15])([H:8])([H:9])[H:10]"
C        2.10460642       0.16177931      -0.23048909
C        0.62408791       0.11230125      -0.30342845
O        0.01147269       1.10136010      -0.90050772
C       -1.39368337       0.78074400       0.09844407
C       -1.62944762      -0.61190151      -0.45648285
C       -0.28224668      -0.89643742       0.24420365
C       -0.69413974       0.20042971       1.25538251
H        2.45141449       1.11375608       0.17080514
H        2.50093983      -0.65697027       0.36791060
H        2.48984704       0.06526450      -1.24936297
H       -2.04938110       1.64183809       0.03533745
H       -2.44138264      -1.13621345       0.04043727
H       -1.70462397      -0.71036007      -1.54137119
H        0.09337851      -1.88542371       0.48540830
H       -0.08084178       0.71983339       1.98371328
15
Frame=4 idx=009020 GeodesicLength=0.37156285158793306 rxn_smarts="[C:1]([C@@:2]12[O:3][C@@:4]3([H:11])[C:5]([H:12])([H:13])[C@:6]1([H:14])[C@@:7]23[H:15])([H:8])([H:9])[H:10]>>[C:1]([C:2](=[O:3])[C@:6]1([H:14])[C:5]([H:12])([H:13])[C:4]([H:11])=[C:7]1[H:15])([H:8])([H:9])[H:10]"
C        2.10754185       0.17303723      -0.21717382
C        0.62987776       0.09562200      -0.33002095
O        0.02381516       1.06617029      -0.96374236
C       -1.38907250       0.78326387       0.09802643
C       -1.64653828      -0.61063647      -0.44604504
C       -0.28698604      -0.90346888       0.22653218
C       -0.66480563       0.20220945       1.23625669
H        2.42446870       1.13125279       0.19434542
H        2.50200625      -0.63690849       0.39456911
H        2.52502058       0.08205913      -1.22345256
H       -2.04245470       1.64716572       0.05099769
H       -2.45447263      -1.13002988       0.06289712
H       -1.75056350      -0.70590715      -1.52878226
H        0.08054093      -1.89617814       0.46319461
H       -0.05837794       0.70234854       1.98239774
15
Frame=5 idx=009020 GeodesicLength=0.46348969293692954 rxn_smarts="[C:1]([C@@:2]12[O:3][C@@:4]3([H:11])[C:5]([H:12])([H:13])[C@:6]1([H:14])[C@@:7]23[H:15])([H:8])([H:9])[H:10]>>[C:1]([C:2](=[O:3])[C@:6]1([H:14])[C:5]([H:12])([H:13])[C:4]([H:11])=[C:7]1[H:15])([H:8])([H:9])[H:10]"
C        2.10987022       0.18453305      -0.20493791
C        0.63637066       0.07884921      -0.35458909
O        0.03726531       1.02854091      -1.02610432
C       -1.38369689       0.78613191       0.09763174
C       -1.66219860      -0.60864978      -0.43581645
C       -0.29170466      -0.91033909       0.20991045
C       -0.63650529       0.20368172       1.21721032
H        2.39688210       1.14913584       0.21402375
H        2.50285188      -0.61579939       0.42052938
H        2.55742853       0.09848254      -1.19830315
H       -2.03432165       1.65285689       0.06641124
H       -2.46659232      -1.12319757       0.08401611
H       -1.79373980      -0.70003099      -1.51584576
H        0.06745255      -1.90667425       0.44243545
H       -0.03936206       0.68247899       1.98342824
15
Frame=6 idx=009020 GeodesicLength=0.5551180303717856 rxn_smarts="[C:1]([C@@:2]12[O:3][C@@:4]3([H:11])[C:5]([H:12])([H:13])[C@:6]1([H:14])[C@@:7]23[H:15])([H:8])([H:9])[H:10]>>[C:1]([C:2](=[O:3])[C@:6]1([H:14])[C:5]([H:12])([H:13])[C:4]([H:11])=[C:7]1[H:15])([H:8])([H:9])[H:10]"
C        2.11170295       0.19630182      -0.19378597
C        0.64351187       0.06195983      -0.37729653
O        0.05187333       0.98830163      -1.08763208
C       -1.37761026       0.78935927       0.09731225
C       -1.67653504      -0.60593162      -0.42579968
C       -0.29640226      -0.91702992       0.19431466
C       -0.60910781       0.20491382       1.19831416
H        2.36881010       1.16743263       0.22995820
H        2.50353613      -0.59356268       0.44581707
H        2.58737048       0.11458195      -1.17402341
H       -2.02512876       1.65886640       0.08173471
H       -2.47785833      -1.11570345       0.10386112
H       -1.83430306      -0.69270052      -1.50265042
H        0.05409845      -1.91690244       0.42308748
H       -0.02395780       0.66011328       1.98678844
15
Frame=7 idx=009020 GeodesicLength=0.6464795428199634 rxn_smarts="[C:1]([C@@:2]12[O:3][C@@:4]3([H:11])[C:5]([H:12])([H:13])[C@:6]1([H:14])[C@@:7]23[H:15])([H:8])([H:9])[H:10]>>[C:1]([C:2](=[O:3])[C@:6]1([H:14])[C:5]([H:12])([H:13])[C:4]([H:11])=[C:7]1[H:15])([H:8])([H:9])[H:10]"
C        2.11313223       0.20837854      -0.18373513
C        0.65125749       0.04492547      -0.39828730
O        0.06770026       0.94525815      -1.14834011
C       -1.37084663       0.79296162       0.09713182
C       -1.68962784      -0.60246348      -0.41599362
C       -0.30107294      -0.92352339       0.17973224
C       -0.58247660       0.20596942       1.17963537
H        2.34036550       1.18616309       0.24223813
H        2.50411393      -0.57011364       0.47042846
H        2.61510840       0.13040892      -1.15071489
H       -2.01499383       1.66515549       0.09714280
H       -2.48836318      -1.10752440       0.12248746
H       -1.87235848      -0.68387132      -1.48927357
H        0.04046454      -1.92685280       0.40512200
H       -0.01240285       0.63512830       1.99242633
15
Frame=8 idx=009020 GeodesicLength=0.737612943117363 rxn_smarts="[C:1]([C@@:2]12[O:3][C@@:4]3([H:11])[C:5]([H:12])([H:13])[C@:6]1([H:14])[C@@:7]23[H:15])([H:8])([H:9])[H:10]>>[C:1]([C:2](=[O:3])[C@:6]1([H:14])[C:5]([H:12])([H:13])[C:4]([H:11])=[C:7]1[H:15])([H:8])([H:9])[H:10]"
C        2.11423712       0.22079953      -0.17481684
C        0.65957347       0.02772034      -0.41767876
O        0.08481535       0.89919745      -1.20821342
C       -1.36342501       0.79695942       0.09716764
C       -1.70153577      -0.59821911      -0.40639731
C       -0.30570592      -0.92980023       0.16616559
C       -0.55647348       0.20690851       1.16124501
H        2.31164516       1.20534479       0.25091380
H        2.50464230      -0.54536053       0.49433775
H        2.64086254       0.14601137      -1.12848401
H       -2.00401106       1.67169096       0.11282698
H       -2.49818203      -1.09863339       0.13993252
H       -1.90796751      -0.67348751      -1.47579079
H        0.02653670      -1.93651475       0.38852703
H       -0.00501186       0.60738315       2.00026481
15
Frame=9 idx=009020 GeodesicLength=0.8285725678171374 rxn_smarts="[C:1]([C@@:2]12[O:3][C@@:4]3([H:11])[C:5]([H:12])([H:13])[C@:6]1([H:14])[C@@:7]23[H:15])([H:8])([H:9])[H:10]>>[C:1]([C:2](=[O:3])[C@:6]1([H:14])[C:5]([H:12])([H:13])[C:4]([H:11])=[C:7]1[H:15])([H:8])([H:9])[H:10]"
C        2.11508825       0.23360139      -0.16707636
C        0.66843382       0.01031738      -0.43556920
O        0.10329776       0.84988196      -1.26720495
C       -1.35534522       0.80137358       0.09752024
C       -1.71229632      -0.59316262      -0.39700316
C       -0.31028443      -0.93583984       0.15363070
C       -0.53094862       0.20777913       1.14322796
H        2.28272116       1.22498573       0.25600544
H        2.50518157      -0.51920171       0.51749637
H        2.66482927       0.16144178      -1.10744187
H       -1.99224573       1.67843991       0.12900431
H       -2.50737230      -1.08899542       0.15622668
H       -1.94115553      -0.66147162      -1.46226947
H        0.01230346      -1.94587514       0.37330237
H       -0.00220715       0.57672549       2.01015093
15
Frame=10 idx=009020 GeodesicLength=0.9194211502583147 rxn_smarts="[C:1]([C@@:2]12[O:3][C@@:4]3([H:11])[C:5]([H:12])([H:13])[C@:6]1([H:14])[C@@:7]23[H:15])([H:8])([H:9])[H:10]>>[C:1]([C:2](=[O:3])[C@:6]1([H:14])[C:5]([H:12])([H:13])[C:4]([H:11])=[C:7]1[H:15])([H:8])([H:9])[H:10]"
C        2.11574303       0.24682187      -0.16056229
C        0.67781494      -0.00730666      -0.45202584
O        0.12322575       0.79705849      -1.32521942
C       -1.34660269       0.80622262       0.09831559
C       -1.72193502      -0.58725588      -0.38781032
C       -0.31479226      -0.94162734       0.14215778
C       -0.50576364       0.20860975       1.12568722
H        2.25365455       1.24508790       0.25752089
H        2.50579629      -0.49153788       0.53983799
H        2.68716288       0.17676192      -1.08770071
H       -1.97974832       1.68536851       0.14591804
H       -2.51598869      -1.07858595       0.17136506
H       -1.97190844      -0.64773163      -1.44878776
H       -0.00225206      -1.95492960       0.35945911
H       -0.00440633       0.54304386       2.02184466
15
Frame=11 idx=009020 GeodesicLength=1.0102122955762542 rxn_smarts="[C:1]([C@@:2]12[O:3][C@@:4]3([H:11])[C:5]([H:12])([H:13])[C@:6]1([H:14])[C@@:7]23[H:15])([H:8])([H:9])[H:10]>>[C:1]([C:2](=[O:3])[C@:6]1([H:14])[C:5]([H:12])([H:13])[C:4]([H:11])=[C:7]1[H:15])([H:8])([H:9])[H:10]"
C        2.11623128       0.26049112      -0.15532501
C        0.68769040      -0.02517586      -0.46709000
O        0.14467783       0.74044853      -1.38209471
C       -1.33718229       0.81151392       0.09972172
C       -1.73044608      -0.58044949      -0.37881384
C       -0.31920302      -0.94714732       0.13178076
C       -0.48078646       0.20939670       1.10874408
H        2.22445772       1.26563189       0.25545532
H        2.50653601      -0.46226716       0.56127478
H        2.70797749       0.19202369      -1.06936270
H       -1.96654974       1.69242934       0.16385813
H       -2.52405462      -1.06737265       0.18531699
H       -2.00015367      -0.63214645      -1.43541114
H       -0.01713336      -1.96366798       0.34699313
H       -0.01206148       0.50629172       2.03495250
15
Frame=12 idx=009020 GeodesicLength=1.1010089696084304 rxn_smarts="[C:1]([C@@:2]12[O:3][C@@:4]3([H:11])[C:5]([H:12])([H:13])[C@:6]1([H:14])[C@@:7]23[H:15])([H:8])([H:9])[H:10]>>[C:1]([C:2](=[O:3])[C@:6]1([H:14])[C:5]([H:12])([H:13])[C:4]([H:11])=[C:7]1[H:15])([H:8])([H:9])[H:10]"
C        2.11655525       0.27463788      -0.15140374
C        0.69802736      -0.04331713      -0.48077657
O        0.16773345       0.67974754      -1.43760406
C       -1.32706282       0.81724054       0.10194964
C       -1.73781148      -0.57269064      -0.37001078
C       -0.32349207      -0.95239571       0.12253628
C       -0.45590058       0.21009068       1.09255137
H        2.19509007       1.28657786       0.24982110
H        2.50743601      -0.43128745       0.58170898
H        2.72735299       0.20729921      -1.05250742
H       -1.95266206       1.69956200       0.18315285
H       -2.53158880      -1.05532894       0.19801892
H       -2.02578285      -0.61456698      -1.42220443
H       -0.03234683      -1.97209287       0.33588465
H       -0.02554767       0.46652403       2.04888322
15
Frame=13 idx=009020 GeodesicLength=1.1919362959370148 rxn_smarts="[C:1]([C@@:2]12[O:3][C@@:4]3([H:11])[C:5]([H:12])([H:13])[C@:6]1([H:14])[C@@:7]23[H:15])([H:8])([H:9])[H:10]>>[C:1]([C:2](=[O:3])[C@:6]1([H:14])[C:5]([H:12])([H:13])[C:4]([H:11])=[C:7]1[H:15])([H:8])([H:9])[H:10]"
C        2.11670830       0.28931226      -0.14876022
C        0.70876987      -0.06177986      -0.49308594
O        0.19247366       0.61466908      -1.49149566
C       -1.31623455       0.82334525       0.10527528
C       -1.74409393      -0.56396756      -0.36144537
C       -0.32770769      -0.95744876       0.11445643
C       -0.43102956       0.21049265       1.07737649
H        2.16546593       1.30788772       0.24075493
H        2.50852316      -0.39849990       0.60113795
H        2.74538132       0.22277265      -1.03715288
H       -1.93807237       1.70666947       0.20419884
H       -2.53873999      -1.04252258       0.20932421
H       -2.04876219      -0.59480155      -1.40933308
H       -0.04800096      -1.98031419       0.32609009
H       -0.04468100       0.42418530       2.06265893
15
Frame=14 idx=009020 GeodesicLength=1.2829602539462546 rxn_smarts="[C:1]([C@@:2]12[O:3][C@@:4]3([H:11])[C:5]([H:12])([H:13])[C@:6]1([H:14])[C@@:7]23[H:15])([H:8])([H:9])[H:10]>>[C:1]([C:2](=[O:3])[C@:6]1([H:14])[C:5]([H:12])([H:13])[C:4]([H:11])=[C:7]1[H:15])([H:8])([H:9])[H:10]"
C        2.11653829       0.30451857      -0.14733425
C        0.71981954      -0.08061271      -0.50395971
O        0.21896929       0.54486380      -1.54335759
C       -1.30473004       0.82974579       0.10999847
C       -1.74926279      -0.55424124      -0.35319208
C       -0.33187316      -0.96236322       0.10753122
C       -0.40622062       0.21037535       1.06341435
H        2.13530473       1.32944395       0.22842036
H        2.50969157      -0.36385085       0.61949117
H        2.76198961       0.23856310      -1.02324179
H       -1.92282700       1.71360830       0.22742252
H       -2.54554892      -1.02897455       0.21895330
H       -2.06885714      -0.57263823      -1.39692991
H       -0.06414956      -1.98839033       0.31748977
H       -0.06884380       0.37995226       2.07529416
15
Frame=15 idx=009020 GeodesicLength=1.3740957849419162 rxn_smarts="[C:1]([C@@:2]12[O:3][C@@:4]3([H:11])[C:5]([H:12])([H:13])[C@:6]1([H:14])[C@@:7]23[H:15])([H:8])([H:9])[H:10]>>[C:1]([C:2](=[O:3])[C@:6]1([H:14])[C:5]([H:12])([H:13])[C:4]([H:11])=[C:7]1[H:15])([H:8])([H:9])[H:10]"
C        2.11587642       0.32028312      -0.14698059
C        0.73104834      -0.09989460      -0.51334269
O        0.24732158       0.46999604      -1.59277464
C       -1.29263496       0.83629605       0.11644090
C       -1.75340573      -0.54351771      -0.34541596
C       -0.33611814      -0.96728155       0.10172065
C       -0.38160664       0.20935831       1.05092451
H        2.10426129       1.35112375       0.21309838
H        2.51080431      -0.32727586       0.63682508
H        2.77712650       0.25490210      -1.01064290
H       -1.90700160       1.72016505       0.25328396
H       -2.55225065      -1.01479687       0.22648182
H       -2.08592318      -0.54782621      -1.38527650
H       -0.08099001      -1.99647841       0.30994548
H       -0.09650754       0.33494680       2.08571250
15
Frame=16 idx=009020 GeodesicLength=1.4653356425305748 rxn_smarts="[C:1]([C@@:2]12[O:3][C@@:4]3([H:11])[C:5]([H:12])([H:13])[C@:6]1([H:14])[C@@:7]23[H:15])([H:8])([H:9])[H:10]>>[C:1]([C:2](=[O:3])[C@:6]1([H:14])[C:5]([H:12])([H:13])[C:4]([H:11])=[C:7]1[H:15])([H:8])([H:9])[H:10]"
C        2.11448160       0.33664167      -0.14758560
C        0.74231014      -0.11970783      -0.52118160
O        0.27767483       0.38965361      -1.63931193
C       -1.28004517       0.84287929       0.12488107
C       -1.75658355      -0.53178429      -0.33833322
C       -0.34059138      -0.97234472       0.09697038
C       -0.35736392       0.20711136       1.04009512
H        2.07189717       1.37281330       0.19500663
H        2.51164805      -0.28867859       0.65317548
H        2.79064544       0.27201270      -0.99924979
H       -1.89068017       1.72614948       0.28218099
H       -2.55907083      -1.00006051       0.23138887
H       -2.09971341      -0.52012603      -1.37470654
H       -0.09875716      -2.00473223       0.30334939
H       -0.12585163       0.29017277       2.09332075
