17
Frame=0 idx=011168 GeodesicLength=0.0 rxn_smarts="[C:1]1([H:8])([H:9])[C@:2]2([H:10])[C@@:3]1([H:11])[C@:4]1([H:12])[C:5]([H:13])([H:14])[C:6]([H:15])([H:16])[C@:7]21[H:17]>>[C:1]1([H:8])([H:9])[C:2]([H:10])([H:17])[C:3]1([C@@:4]1([H:12])[C:5]([H:13])([H:14])[C:6]([H:15])([H:16])[C:7]1)[H:11]"
C        1.26291411      -0.20388672       1.04480031
C        1.43592676       0.81649633      -0.00977650
C        1.13127651      -0.60314790      -0.39821102
C       -0.23884008      -0.48805683      -1.02449404
C       -1.45878193      -0.80944693      -0.13093212
C       -1.50276153       0.68581874       0.27545773
C       -0.50311177       1.02507645      -0.83620907
H        2.18269195      -0.51850966       1.52355467
H        0.40922761      -0.19580730       1.71112006
H        2.35190389       1.36975161      -0.17832537
H        1.87790545      -1.27108319      -0.81089460
H       -0.25789814      -0.86873358      -2.04731870
H       -1.29698338      -1.53946800       0.66453329
H       -2.33305808      -1.11629968      -0.70496596
H       -2.45498161       1.20291922       0.13674622
H       -1.17981354       0.89421447       1.29714729
H        0.57438377       1.62016300      -0.51223224
17
Frame=1 idx=011168 GeodesicLength=0.08002990230359971 rxn_smarts="[C:1]1([H:8])([H:9])[C@:2]2([H:10])[C@@:3]1([H:11])[C@:4]1([H:12])[C:5]([H:13])([H:14])[C:6]([H:15])([H:16])[C@:7]21[H:17]>>[C:1]1([H:8])([H:9])[C:2]([H:10])([H:17])[C:3]1([C@@:4]1([H:12])[C:5]([H:13])([H:14])[C:6]([H:15])([H:16])[C:7]1)[H:11]"
C        1.27446661      -0.20816127       1.04289128
C        1.44432520       0.81458603      -0.01135057
C        1.13607490      -0.60515916      -0.39964274
C       -0.23672846      -0.48474464      -1.01960245
C       -1.45878841      -0.80694645      -0.12661436
C       -1.52193041       0.68881222       0.27550391
C       -0.50136457       1.02031769      -0.81308384
H        2.19435105      -0.52703693       1.51851333
H        0.42310022      -0.19601046       1.71204380
H        2.36667907       1.35700638      -0.18074765
H        1.87840972      -1.27392434      -0.81832851
H       -0.26682401      -0.85668502      -2.04522487
H       -1.29664961      -1.53095668       0.67380179
H       -2.32634511      -1.12454949      -0.70463493
H       -2.47682036       1.19238598       0.10847603
H       -1.21837577       0.90377233       1.30163651
H        0.58641993       1.63729381      -0.51363673
17
Frame=2 idx=011168 GeodesicLength=0.16008965312649245 rxn_smarts="[C:1]1([H:8])([H:9])[C@:2]2([H:10])[C@@:3]1([H:11])[C@:4]1([H:12])[C:5]([H:13])([H:14])[C:6]([H:15])([H:16])[C@:7]21[H:17]>>[C:1]1([H:8])([H:9])[C:2]([H:10])([H:17])[C:3]1([C@@:4]1([H:12])[C:5]([H:13])([H:14])[C:6]([H:15])([H:16])[C:7]1)[H:11]"
C        1.28643480      -0.21273899       1.04093730
C        1.45286820       0.81259269      -0.01282020
C        1.14088346      -0.60720953      -0.40112047
C       -0.23469245      -0.48115902      -1.01443723
C       -1.45875352      -0.80438183      -0.12188973
C       -1.54163770       0.69181915       0.27516824
C       -0.49942054       1.01562791      -0.78879320
H        2.20651711      -0.53595392       1.51313437
H        0.43750806      -0.19658398       1.71305112
H        2.38136341       1.34423598      -0.18325084
H        1.87875987      -1.27670535      -0.82613597
H       -0.27598704      -0.84372530      -2.04291810
H       -1.29618319      -1.52208191       0.68364708
H       -2.31934145      -1.13311192      -0.70376707
H       -2.49813972       1.18164449       0.07872134
H       -1.25883243       0.91351313       1.30566425
H        0.59865312       1.65421841      -0.51519089
17
Frame=3 idx=011168 GeodesicLength=0.24018331063901358 rxn_smarts="[C:1]1([H:8])([H:9])[C@:2]2([H:10])[C@@:3]1([H:11])[C@:4]1([H:12])[C:5]([H:13])([H:14])[C:6]([H:15])([H:16])[C@:7]21[H:17]>>[C:1]1([H:8])([H:9])[C:2]([H:10])([H:17])[C:3]1([C@@:4]1([H:12])[C:5]([H:13])([H:14])[C:6]([H:15])([H:16])[C:7]1)[H:11]"
C        1.29885044      -0.21765248       1.03892979
C        1.46155362       0.81051519      -0.01416459
C        1.14569653      -0.60928930      -0.40265262
C       -0.23274017      -0.47727496      -1.00897443
C       -1.45867775      -0.80174400      -0.11672217
C       -1.56190023       0.69484796       0.27439493
C       -0.49728805       1.01098681      -0.76324967
H        2.21923502      -0.54529599       1.50737125
H        0.45250361      -0.19760317       1.71415822
H        2.39594772       1.33145503      -0.18584171
H        1.87893602      -1.27939710      -0.83435629
H       -0.28541364      -0.82980813      -2.04033841
H       -1.29558354      -1.51279677       0.69412760
H       -2.31202464      -1.14200658      -0.70231283
H       -2.51882444       1.17068265       0.04736758
H       -1.30131178       0.92345316       1.30912104
H        0.61104128       1.67092767      -0.51685767
17
Frame=4 idx=011168 GeodesicLength=0.32031687693897676 rxn_smarts="[C:1]1([H:8])([H:9])[C@:2]2([H:10])[C@@:3]1([H:11])[C@:4]1([H:12])[C:5]([H:13])([H:14])[C:6]([H:15])([H:16])[C@:7]21[H:17]>>[C:1]1([H:8])([H:9])[C:2]([H:10])([H:17])[C:3]1([C@@:4]1([H:12])[C:5]([H:13])([H:14])[C:6]([H:15])([H:16])[C:7]1)[H:11]"
C        1.31175079      -0.22294149       1.03685777
C        1.47037577       0.80835152      -0.01535747
C        1.15050728      -0.61138772      -0.40424836
C       -0.23088225      -0.47306775      -1.00318408
C       -1.45856369      -0.79901956      -0.11106664
C       -1.58273416       0.69790788       0.27311784
C       -0.49497645       1.00636961      -0.73635290
H        2.23255813      -0.55510365       1.50116583
H        0.46814935      -0.19915952       1.71538425
H        2.41041644       1.31868196      -0.18852532
H        1.87891627      -1.28196324      -0.84303686
H       -0.29513527      -0.81488252      -2.03742459
H       -1.29485387      -1.50304218       0.70531495
H       -2.30436789      -1.15125361      -0.70020948
H       -2.53874106       1.15947976       0.01427789
H       -1.34595024       0.93361777       1.31186977
H        0.62353084       1.68741272      -0.51858260
17
Frame=5 idx=011168 GeodesicLength=0.40048772082612893 rxn_smarts="[C:1]1([H:8])([H:9])[C@:2]2([H:10])[C@@:3]1([H:11])[C@:4]1([H:12])[C:5]([H:13])([H:14])[C:6]([H:15])([H:16])[C@:7]21[H:17]>>[C:1]1([H:8])([H:9])[C:2]([H:10])([H:17])[C:3]1([C@@:4]1([H:12])[C:5]([H:13])([H:14])[C:6]([H:15])([H:16])[C:7]1)[H:11]"
C        1.32516914      -0.22864367       1.03470901
C        1.47932365       0.80610297      -0.01637653
C        1.15530971      -0.61349477      -0.40591815
C       -0.22913086      -0.46851435      -0.99703627
C       -1.45841670      -0.79620419      -0.10488179
C       -1.60414807       0.70100813       0.27125684
C       -0.49250108       1.00173972      -0.70800281
H        2.24653893      -0.56541522       1.49446523
H        0.48450233      -0.20134341       1.71674983
H        2.42474657       1.30594233      -0.19130584
H        1.87868383      -1.28436781      -0.85222562
H       -0.30517545      -0.79890392      -2.03411089
H       -1.29400040      -1.49276588       0.71727856
H       -2.29635210      -1.16087290      -0.69739979
H       -2.55772878       1.14803649      -0.02064259
H       -1.39287488       0.94403194       1.31375312
H        0.63605416       1.70366455      -0.52031233
17
Frame=6 idx=011168 GeodesicLength=0.4806996073599182 rxn_smarts="[C:1]1([H:8])([H:9])[C@:2]2([H:10])[C@@:3]1([H:11])[C@:4]1([H:12])[C:5]([H:13])([H:14])[C:6]([H:15])([H:16])[C@:7]21[H:17]>>[C:1]1([H:8])([H:9])[C:2]([H:10])([H:17])[C:3]1([C@@:4]1([H:12])[C:5]([H:13])([H:14])[C:6]([H:15])([H:16])[C:7]1)[H:11]"
C        1.33914924      -0.23480874       1.03246726
C        1.48838305       0.80376791      -0.01718742
C        1.16009461      -0.61559640      -0.40767429
C       -0.22749835      -0.46359239      -0.99049167
C       -1.45824394      -0.79328085      -0.09811083
C       -1.62614534       0.70416435       0.26871824
C       -0.48987487       0.99705687      -0.67808531
H        2.26124056      -0.57627498       1.48719176
H        0.50163873      -0.20427631       1.71827559
H        2.43890896       1.29326607      -0.19418572
H        1.87821275      -1.28655917      -0.86198114
H       -0.31556582      -0.78182516      -2.03032232
H       -1.29303762      -1.48188553       0.73011068
H       -2.28795204      -1.17088107      -0.69380461
H       -2.57560120       1.13632262      -0.05751266
H       -1.44224089       0.95472791       1.31455461
H        0.64853216       1.71967488      -0.52196217
17
Frame=7 idx=011168 GeodesicLength=0.5609430650018559 rxn_smarts="[C:1]1([H:8])([H:9])[C@:2]2([H:10])[C@@:3]1([H:11])[C@:4]1([H:12])[C:5]([H:13])([H:14])[C:6]([H:15])([H:16])[C@:7]21[H:17]>>[C:1]1([H:8])([H:9])[C:2]([H:10])([H:17])[C:3]1([C@@:4]1([H:12])[C:5]([H:13])([H:14])[C:6]([H:15])([H:16])[C:7]1)[H:11]"
C        1.35373177      -0.24148472       1.03011089
C        1.49753138       0.80134911      -0.01775826
C        1.16485248      -0.61767870      -0.40952938
C       -0.22599800      -0.45828594      -0.98350759
C       -1.45805546      -0.79023895      -0.09069712
C       -1.64871216       0.70738486       0.26540108
C       -0.48711605       0.99226478      -0.64648646
H        2.27672367      -0.58772280       1.47926636
H        0.51963492      -0.20808601       1.71998170
H        2.45286081       1.28069308      -0.19716148
H        1.87747685      -1.28848025      -0.87236401
H       -0.32633214      -0.76361264      -2.02597779
H       -1.29198269      -1.47032793       0.74390071
H       -2.27915095      -1.18128839      -0.68934676
H       -2.59216103       1.12433700      -0.09644265
H       -1.49417070       0.96574011       1.31405194
H        0.66086731       1.73543740      -0.52344120
17
Frame=8 idx=011168 GeodesicLength=0.6412062968050333 rxn_smarts="[C:1]1([H:8])([H:9])[C@:2]2([H:10])[C@@:3]1([H:11])[C@:4]1([H:12])[C:5]([H:13])([H:14])[C:6]([H:15])([H:16])[C@:7]21[H:17]>>[C:1]1([H:8])([H:9])[C:2]([H:10])([H:17])[C:3]1([C@@:4]1([H:12])[C:5]([H:13])([H:14])[C:6]([H:15])([H:16])[C:7]1)[H:11]"
C        1.36895872      -0.24872555       1.02761722
C        1.50673903       0.79885005      -0.01804936
C        1.16957119      -0.61972715      -0.41149545
C       -0.22464384      -0.45258092      -0.97603402
C       -1.45786332      -0.78706279      -0.08257625
C       -1.67182162       0.71068437       0.26118667
C       -0.48424814       0.98730115      -0.61308952
H        2.29305157      -0.59979747       1.47059258
H        0.53857097      -0.21291677       1.72189141
H        2.46655282       1.26827049      -0.20023646
H        1.87644768      -1.29007043      -0.88343580
H       -0.33750197      -0.74423615      -2.02098857
H       -1.29086104      -1.45800059       0.75874577
H       -2.26992963      -1.19209202      -0.68393661
H       -2.60717049       1.11205629      -0.13750496
H       -1.54879780       0.97709898       1.31194632
H        0.67294584       1.75094851      -0.52463296
17
Frame=9 idx=011168 GeodesicLength=0.7215507743139423 rxn_smarts="[C:1]1([H:8])([H:9])[C@:2]2([H:10])[C@@:3]1([H:11])[C@:4]1([H:12])[C:5]([H:13])([H:14])[C:6]([H:15])([H:16])[C@:7]21[H:17]>>[C:1]1([H:8])([H:9])[C:2]([H:10])([H:17])[C:3]1([C@@:4]1([H:12])[C:5]([H:13])([H:14])[C:6]([H:15])([H:16])[C:7]1)[H:11]"
C        1.38492555      -0.25663634       1.02492308
C        1.51598607       0.79625492      -0.01797164
C        1.17425978      -0.62171585      -0.41360072
C       -0.22344424      -0.44648608      -0.96797680
C       -1.45769931      -0.78367711      -0.07360952
C       -1.69542177       0.71411930       0.25585554
C       -0.48125152       0.98206064      -0.57773499
H        2.31035328      -0.61257799       1.46100986
H        0.55861814      -0.21905498       1.72397324
H        2.47992135       1.25605246      -0.20332013
H        1.87511684      -1.29120301      -0.89530830
H       -0.34909093      -0.72362122      -2.01530312
H       -1.28973911      -1.44464532       0.77489159
H       -2.26027760      -1.20330998      -0.67739566
H       -2.62056468       1.09935862      -0.18076090
H       -1.60635016       0.98889297       1.30767165
H        0.68465830       1.76618898      -0.52534318
17
Frame=10 idx=011168 GeodesicLength=0.8018606010405556 rxn_smarts="[C:1]1([H:8])([H:9])[C@:2]2([H:10])[C@@:3]1([H:11])[C@:4]1([H:12])[C:5]([H:13])([H:14])[C:6]([H:15])([H:16])[C@:7]21[H:17]>>[C:1]1([H:8])([H:9])[C:2]([H:10])([H:17])[C:3]1([C@@:4]1([H:12])[C:5]([H:13])([H:14])[C:6]([H:15])([H:16])[C:7]1)[H:11]"
C        1.40161020      -0.26522311       1.02202421
C        1.52518613       0.79359824      -0.01751131
C        1.17887621      -0.62362391      -0.41584793
C       -0.22243570      -0.43999271      -0.95930995
C       -1.45759247      -0.78012911      -0.06377603
C       -1.71941370       0.71765652       0.24937310
C       -0.47821676       0.97645332      -0.54033610
H        2.32863107      -0.62604429       1.45046080
H        0.57977202      -0.22658364       1.72627935
H        2.49286324       1.24413018      -0.20646506
H        1.87343544      -1.29181647      -0.90801538
H       -0.36115197      -0.70180338      -2.00877399
H       -1.28864673      -1.43031101       0.79232329
H       -2.25021414      -1.21491248      -0.66968102
H       -2.63182189       1.08634772      -0.22635498
H       -1.66668909       1.00108562       1.30109504
H        0.69580814       1.78116850      -0.52548404
17
Frame=11 idx=011168 GeodesicLength=0.8820885090436233 rxn_smarts="[C:1]1([H:8])([H:9])[C@:2]2([H:10])[C@@:3]1([H:11])[C@:4]1([H:12])[C:5]([H:13])([H:14])[C:6]([H:15])([H:16])[C@:7]21[H:17]>>[C:1]1([H:8])([H:9])[C:2]([H:10])([H:17])[C:3]1([C@@:4]1([H:12])[C:5]([H:13])([H:14])[C:6]([H:15])([H:16])[C:7]1)[H:11]"
C        1.41901996      -0.27452335       1.01888633
C        1.53425774       0.79090145      -0.01661929
C        1.18339916      -0.62542631      -0.41824670
C       -0.22163984      -0.43312202      -0.94997730
C       -1.45758561      -0.77642077      -0.05301799
C       -1.74366272       0.72130863       0.24162683
C       -0.47519856       0.97035640      -0.50082187
H        2.34792086      -0.64019425       1.43884832
H        0.60207890      -0.23568518       1.72881309
H        2.50526830       1.23259813      -0.20964519
H        1.87138350      -1.29181204      -0.92161361
H       -0.37369669      -0.67882446      -2.00130169
H       -1.28764882      -1.41493994       0.81111395
H       -2.23977317      -1.22686787      -0.66071393
H       -2.64061107       1.07303677      -0.27427184
H       -1.72971644       1.01372430       1.29186317
H        0.70620451       1.79589050      -0.52492227
17
Frame=12 idx=011168 GeodesicLength=0.9621886255885793 rxn_smarts="[C:1]1([H:8])([H:9])[C@:2]2([H:10])[C@@:3]1([H:11])[C@:4]1([H:12])[C:5]([H:13])([H:14])[C:6]([H:15])([H:16])[C@:7]21[H:17]>>[C:1]1([H:8])([H:9])[C:2]([H:10])([H:17])[C:3]1([C@@:4]1([H:12])[C:5]([H:13])([H:14])[C:6]([H:15])([H:16])[C:7]1)[H:11]"
C        1.43715181      -0.28456785       1.01547079
C        1.54309995       0.78819083      -0.01523842
C        1.18780233      -0.62709084      -0.42080669
C       -0.22107898      -0.42591748      -0.93991952
C       -1.45773238      -0.77255294      -0.04127565
C       -1.76797481       0.72508480       0.23250331
C       -0.47225883       0.96362514      -0.45915260
H        2.36824370      -0.65499786       1.42606491
H        0.62557573      -0.24655896       1.73156623
H        2.51700094       1.22157204      -0.21282643
H        1.86894146      -1.29107307      -0.93614523
H       -0.38672761      -0.65477350      -1.99278165
H       -1.28683550      -1.39846436       0.83132588
H       -2.22901004      -1.23910852      -0.65041640
H       -2.64658114       1.05945410      -0.32442759
H       -1.79525266       1.02681822       1.27956766
H        0.71563603       1.81036026      -0.52350859
17
Frame=13 idx=011168 GeodesicLength=1.0420883255011333 rxn_smarts="[C:1]1([H:8])([H:9])[C@:2]2([H:10])[C@@:3]1([H:11])[C@:4]1([H:12])[C:5]([H:13])([H:14])[C:6]([H:15])([H:16])[C@:7]21[H:17]>>[C:1]1([H:8])([H:9])[C:2]([H:10])([H:17])[C:3]1([C@@:4]1([H:12])[C:5]([H:13])([H:14])[C:6]([H:15])([H:16])[C:7]1)[H:11]"
C        1.45597682      -0.29535500       1.01173469
C        1.55159809       0.78549344      -0.01330481
C        1.19207223      -0.62858292      -0.42352673
C       -0.22076695      -0.41846769      -0.92908663
C       -1.45811565      -0.76850976      -0.02850492
C       -1.79207234       0.72899609       0.22192627
C       -0.46944937       0.95609271      -0.41536868
H        2.38959038      -0.67036260       1.41203509
H        0.65027408      -0.25940389       1.73447689
H        2.52790552       1.21117837      -0.21592287
H        1.86612114      -1.28946400      -0.95161628
H       -0.40021460      -0.62979898      -1.98317357
H       -1.28634622      -1.38081761       0.85299348
H       -2.21804813      -1.25150768      -0.63874454
H       -2.64944762       1.04560735      -0.37654146
H       -1.86297194       1.04033979       1.26376406
H        0.72389454       1.82456237      -0.52114001
17
Frame=14 idx=011168 GeodesicLength=1.1217515989215472 rxn_smarts="[C:1]1([H:8])([H:9])[C@:2]2([H:10])[C@@:3]1([H:11])[C@:4]1([H:12])[C:5]([H:13])([H:14])[C:6]([H:15])([H:16])[C@:7]21[H:17]>>[C:1]1([H:8])([H:9])[C:2]([H:10])([H:17])[C:3]1([C@@:4]1([H:12])[C:5]([H:13])([H:14])[C:6]([H:15])([H:16])[C:7]1)[H:11]"
C        1.47538454      -0.30683169       1.00767315
C        1.55958923       0.78287345      -0.01080099
C        1.19616655      -0.62987572      -0.42639301
C       -0.22073120      -0.41085815      -0.91747495
C       -1.45880829      -0.76436368      -0.01474562
C       -1.81564157       0.73302390       0.20991812
C       -0.46689557       0.94759276      -0.36961842
H        2.41186648      -0.68616141       1.39675649
H        0.67605119      -0.27429133       1.73755269
H        2.53780651       1.20156621      -0.21892582
H        1.86292346      -1.28690490      -0.96798779
H       -0.41412404      -0.60413282      -1.97238739
H       -1.28628340      -1.36214686       0.87598608
H       -2.20702310      -1.26393879      -0.62575623
H       -2.64874557       1.03162204      -0.43028464
H       -1.93225895       1.05429266       1.24426387
H        0.73072373       1.83853431      -0.51777553
17
Frame=15 idx=011168 GeodesicLength=1.2011447356292686 rxn_smarts="[C:1]1([H:8])([H:9])[C@:2]2([H:10])[C@@:3]1([H:11])[C@:4]1([H:12])[C:5]([H:13])([H:14])[C:6]([H:15])([H:16])[C@:7]21[H:17]>>[C:1]1([H:8])([H:9])[C:2]([H:10])([H:17])[C:3]1([C@@:4]1([H:12])[C:5]([H:13])([H:14])[C:6]([H:15])([H:16])[C:7]1)[H:11]"
C        1.49523666      -0.31890633       1.00327686
C        1.56691073       0.78038774      -0.00770230
C        1.20005850      -0.63093926      -0.42938084
C       -0.22098094      -0.40322862      -0.90509770
C       -1.45990365      -0.76016519      -0.00006260
C       -1.83829731       0.73716133       0.19655851
C       -0.46469286       0.93795611      -0.32216624
H        2.43493668      -0.70219745       1.38027088
H        0.70275229      -0.29126740       1.74072907
H        2.54652824       1.19287938      -0.22176499
H        1.85938711      -1.28330784      -0.98516355
H       -0.42837811      -0.57807552      -1.96041836
H       -1.28679326      -1.34260359       0.90013724
H       -2.19613542      -1.27621834      -0.61156256
H       -2.64419745       1.01760474      -0.48509810
H       -2.00233750       1.06862932       1.22088339
H        0.73590628       1.85229093      -0.51343869
17
Frame=16 idx=011168 GeodesicLength=1.2802537111464458 rxn_smarts="[C:1]1([H:8])([H:9])[C@:2]2([H:10])[C@@:3]1([H:11])[C@:4]1([H:12])[C:5]([H:13])([H:14])[C:6]([H:15])([H:16])[C@:7]21[H:17]>>[C:1]1([H:8])([H:9])[C:2]([H:10])([H:17])[C:3]1([C@@:4]1([H:12])[C:5]([H:13])([H:14])[C:6]([H:15])([H:16])[C:7]1)[H:11]"
C        1.51533917      -0.33143088       0.99856000
C        1.57340056       0.77809800      -0.00400949
C        1.20372971      -0.63175340      -0.43244792
C       -0.22150888      -0.39574994      -0.89201756
C       -1.46149494      -0.75597508       0.01540874
C       -1.85961223       0.74138925       0.18203157
C       -0.46293364       0.92703808      -0.27341912
H        2.45858582      -0.71820830       1.36270531
H        0.73013209      -0.31026780       1.74391969
H        2.55391419       1.18524482      -0.22436146
H        1.85557984      -1.27862603      -1.00297159
H       -0.44285393      -0.55201278      -1.94732958
H       -1.28802411      -1.32243363       0.92516159
H       -2.18561871      -1.28811500      -0.59637603
H       -2.63567915       1.00369351      -0.54020578
H       -2.07223456       1.08326214       1.19362285
H        0.73927876       1.86584703      -0.50827122
