18
Frame=0 idx=011582 GeodesicLength=0.0 rxn_smarts="[C:1]([C:2]([C@@:3]([C:4]([H:14])([H:15])[H:16])([N:5]([C:6](=[O:7])[H:18])[H:17])[H:13])([H:11])[H:12])([H:8])([H:9])[H:10]>>[C:1]([C:2]([O+:7]=[C:6]([N:5]([C-:3]([C:4]([H:14])([H:15])[H:16])[H:13])[H:17])[H:18])([H:11])[H:12])([H:8])([H:9])[H:10]"
C       -1.60298110      -0.09063539      -1.57439062
C       -1.35733375      -0.83028255      -0.30596346
C        0.80461527       0.57152284       0.25488028
C        0.94479091       1.91678604       0.88716504
N        1.33659703      -0.50428658       0.89895233
C        1.04551952      -1.74182800       0.49190062
O        0.30784021      -1.84807583      -0.52334936
H       -1.52817552       0.98883904      -1.44156831
H       -0.86732398      -0.38993713      -2.32860981
H       -2.58825636      -0.33003415      -1.98761704
H       -1.50474648      -0.29764044       0.62360600
H       -1.76324771      -1.83239277      -0.27758601
H        0.77645574       0.48298928      -0.81993749
H        0.26323197       2.62345644       0.41071414
H        0.68627097       1.89549171       1.95049069
H        1.95397820       2.34358492       0.80138278
H        1.76671662      -0.38427956       1.80342248
H        1.32604850      -2.57327782       1.13650772
18
Frame=1 idx=011582 GeodesicLength=0.08249831521548787 rxn_smarts="[C:1]([C:2]([C@@:3]([C:4]([H:14])([H:15])[H:16])([N:5]([C:6](=[O:7])[H:18])[H:17])[H:13])([H:11])[H:12])([H:8])([H:9])[H:10]>>[C:1]([C:2]([O+:7]=[C:6]([N:5]([C-:3]([C:4]([H:14])([H:15])[H:16])[H:13])[H:17])[H:18])([H:11])[H:12])([H:8])([H:9])[H:10]"
C       -1.61095971      -0.10627280      -1.58958645
C       -1.33708715      -0.80376043      -0.30181288
C        0.79695592       0.57310639       0.26354339
C        0.94597879       1.91528193       0.90209856
N        1.32878856      -0.50647885       0.90567844
C        1.06927691      -1.74251762       0.47261069
O        0.33262649      -1.84604739      -0.54525065
H       -1.51384131       0.97603836      -1.50229050
H       -0.90967664      -0.45138906      -2.35643277
H       -2.61410010      -0.33877418      -1.96148554
H       -1.51086187      -0.24282335       0.60721623
H       -1.76058414      -1.79765770      -0.22902126
H        0.78752044       0.49587699      -0.81298108
H        0.27127385       2.63077827       0.42885756
H        0.68523400       1.89011395       1.96477377
H        1.95873588       2.33334622       0.81962961
H        1.71632708      -0.39936044       1.83085094
H        1.36439301      -2.57946031       1.10360194
18
Frame=2 idx=011582 GeodesicLength=0.16496073604525102 rxn_smarts="[C:1]([C:2]([C@@:3]([C:4]([H:14])([H:15])[H:16])([N:5]([C:6](=[O:7])[H:18])[H:17])[H:13])([H:11])[H:12])([H:8])([H:9])[H:10]>>[C:1]([C:2]([O+:7]=[C:6]([N:5]([C-:3]([C:4]([H:14])([H:15])[H:16])[H:13])[H:17])[H:18])([H:11])[H:12])([H:8])([H:9])[H:10]"
C       -1.61940745      -0.12357652      -1.60471668
C       -1.31680660      -0.77706770      -0.29889621
C        0.78933348       0.57551794       0.27227344
C        0.94764483       1.91391620       0.91829660
N        1.32082656      -0.50834263       0.91184013
C        1.09339241      -1.74169130       0.45291249
O        0.35858696      -1.84262783      -0.56814655
H       -1.49753527       0.95902218      -1.56559213
H       -0.95634572      -0.51806551      -2.38125438
H       -2.63996039      -0.34453349      -1.93355394
H       -1.51701499      -0.18811594       0.58773143
H       -1.75558366      -1.76142863      -0.18162001
H        0.79844313       0.51023056      -0.80555845
H        0.27980827       2.63868275       0.44921283
H        0.68506800       1.88399537       1.98037838
H        1.96392735       2.32309070       0.83909073
H        1.66537131      -0.41567270       1.85548342
H        1.40025177      -2.58333347       1.07211888
18
Frame=3 idx=011582 GeodesicLength=0.24706208078995923 rxn_smarts="[C:1]([C:2]([C@@:3]([C:4]([H:14])([H:15])[H:16])([N:5]([C:6](=[O:7])[H:18])[H:17])[H:13])([H:11])[H:12])([H:8])([H:9])[H:10]>>[C:1]([C:2]([O+:7]=[C:6]([N:5]([C-:3]([C:4]([H:14])([H:15])[H:16])[H:13])[H:17])[H:18])([H:11])[H:12])([H:8])([H:9])[H:10]"
C       -1.62815477      -0.14243214      -1.61960524
C       -1.29659695      -0.75024374      -0.29722107
C        0.78167510       0.57871005       0.28098366
C        0.94953561       1.91262278       0.93565737
N        1.31280050      -0.50988131       0.91724471
C        1.11774259      -1.73937575       0.43288260
O        0.38577906      -1.83773867      -0.59208538
H       -1.47929326       0.93741203      -1.63113878
H       -1.00702332      -0.58933902      -2.40195875
H       -2.66517029      -0.34687222      -1.90441018
H       -1.52304099      -0.13386251       0.56528719
H       -1.74850998      -1.72377195      -0.13567077
H        0.80928760       0.52603218      -0.79773467
H        0.28828774       2.64692049       0.47186751
H        0.68578223       1.87695652       1.99724746
H        1.96917997       2.31301482       0.85937830
H        1.61508089      -0.43299405       1.87673475
H        1.43263827      -2.58515751       1.04254129
18
Frame=4 idx=011582 GeodesicLength=0.3285366792894693 rxn_smarts="[C:1]([C:2]([C@@:3]([C:4]([H:14])([H:15])[H:16])([N:5]([C:6](=[O:7])[H:18])[H:17])[H:13])([H:11])[H:12])([H:8])([H:9])[H:10]>>[C:1]([C:2]([O+:7]=[C:6]([N:5]([C-:3]([C:4]([H:14])([H:15])[H:16])[H:13])[H:17])[H:18])([H:11])[H:12])([H:8])([H:9])[H:10]"
C       -1.63707600      -0.16270111      -1.63404468
C       -1.27656238      -0.72333563      -0.29672007
C        0.77397747       0.58262827       0.28954840
C        0.95146797       1.91136601       0.95401495
N        1.30483824      -0.51110963       0.92172034
C        1.14221133      -1.73564684       0.41256182
O        0.41420149      -1.83132430      -0.61713415
H       -1.45933239       0.91089357      -1.69847618
H       -1.06129618      -0.66432027      -2.41747555
H       -2.68910156      -0.34561447      -1.87476745
H       -1.52875186      -0.08035091       0.54013206
H       -1.73967544      -1.68477138      -0.09131018
H        0.82010586       0.54324612      -0.78961718
H        0.29637683       2.65531776       0.49667444
H        0.68725798       1.86889615       2.01521288
H        1.97424950       2.30328634       0.88024315
H        1.56614097      -0.45112883       1.89443302
H        1.46096819      -2.58533085       1.01500439
18
Frame=5 idx=011582 GeodesicLength=0.409993495897213 rxn_smarts="[C:1]([C:2]([C@@:3]([C:4]([H:14])([H:15])[H:16])([N:5]([C:6](=[O:7])[H:18])[H:17])[H:13])([H:11])[H:12])([H:8])([H:9])[H:10]>>[C:1]([C:2]([O+:7]=[C:6]([N:5]([C-:3]([C:4]([H:14])([H:15])[H:16])[H:13])[H:17])[H:18])([H:11])[H:12])([H:8])([H:9])[H:10]"
C       -1.64614664      -0.18400814      -1.64765060
C       -1.25661175      -0.69629634      -0.29701814
C        0.76648666       0.58720716       0.29756943
C        0.95332958       1.91017160       0.97292382
N        1.29733690      -0.51220173       0.92510600
C        1.16735248      -1.73077196       0.39171427
O        0.44436237      -1.82343476      -0.64357234
H       -1.43847062       0.87957676      -1.76705552
H       -1.11868560      -0.74183773      -2.42695461
H       -2.71137633      -0.34075713      -1.84484228
H       -1.53389399      -0.02763624       0.51296580
H       -1.72900745      -1.64448731      -0.04810958
H        0.83115195       0.56179461      -0.78174184
H        0.30435803       2.66411825       0.52258086
H        0.68848311       1.85997155       2.03379545
H        1.97923344       2.29363895       0.90182538
H        1.51636769      -0.47051404       1.90935497
H        1.48573014      -2.58453350       0.98910892
18
Frame=6 idx=011582 GeodesicLength=0.489164489800859 rxn_smarts="[C:1]([C:2]([C@@:3]([C:4]([H:14])([H:15])[H:16])([N:5]([C:6](=[O:7])[H:18])[H:17])[H:13])([H:11])[H:12])([H:8])([H:9])[H:10]>>[C:1]([C:2]([O+:7]=[C:6]([N:5]([C-:3]([C:4]([H:14])([H:15])[H:16])[H:13])[H:17])[H:18])([H:11])[H:12])([H:8])([H:9])[H:10]"
C       -1.65470088      -0.20672951      -1.66037709
C       -1.23733085      -0.66903290      -0.29846147
C        0.75853036       0.59220231       0.30551018
C        0.95491222       1.90863614       0.99259390
N        1.28915727      -0.51282198       0.92741563
C        1.19088166      -1.72437327       0.37106495
O        0.47441025      -1.81393244      -0.67056701
H       -1.41582250       0.84230671      -1.83582632
H       -1.17789662      -0.82138666      -2.42878055
H       -2.73059864      -0.33251029      -1.81643194
H       -1.53843615       0.02427415       0.48316258
H       -1.71796195      -1.60232275      -0.00707120
H        0.84186932       0.58112218      -0.77309557
H        0.31131275       2.67207124       0.55088357
H        0.69096178       1.84976509       2.05300899
H        1.98332860       2.28441325       0.92323738
H        1.47003373      -0.48959478       1.91992805
H        1.50734965      -2.58208649       0.96380592
18
Frame=7 idx=011582 GeodesicLength=0.5680121010142621 rxn_smarts="[C:1]([C:2]([C@@:3]([C:4]([H:14])([H:15])[H:16])([N:5]([C:6](=[O:7])[H:18])[H:17])[H:13])([H:11])[H:12])([H:8])([H:9])[H:10]>>[C:1]([C:2]([O+:7]=[C:6]([N:5]([C-:3]([C:4]([H:14])([H:15])[H:16])[H:13])[H:17])[H:18])([H:11])[H:12])([H:8])([H:9])[H:10]"
C       -1.66316506      -0.23022903      -1.67211089
C       -1.21864657      -0.64149828      -0.30045819
C        0.75068030       0.59761679       0.31284648
C        0.95607119       1.90699877       1.01258104
N        1.28130308      -0.51349325       0.92866038
C        1.21426017      -1.71728034       0.35038211
O        0.50556036      -1.80318018      -0.69857282
H       -1.39273258       0.79982663      -1.90484664
H       -1.23855514      -0.90139924      -2.42322772
H       -2.74732277      -0.32106315      -1.78983705
H       -1.54250007       0.07561457       0.45171200
H       -1.70641459      -1.55848994       0.03295638
H        0.85272355       0.60140649      -0.76471200
H        0.31740252       2.67997629       0.58014788
H        0.69313362       1.83850728       2.07263718
H        1.98688013       2.27549510       0.94481757
H        1.42493178      -0.50946903       1.92757799
H        1.52639008      -2.57933947       0.93944630
18
Frame=8 idx=011582 GeodesicLength=0.6459927327914804 rxn_smarts="[C:1]([C:2]([C@@:3]([C:4]([H:14])([H:15])[H:16])([N:5]([C:6](=[O:7])[H:18])[H:17])[H:13])([H:11])[H:12])([H:8])([H:9])[H:10]>>[C:1]([C:2]([O+:7]=[C:6]([N:5]([C-:3]([C:4]([H:14])([H:15])[H:16])[H:13])[H:17])[H:18])([H:11])[H:12])([H:8])([H:9])[H:10]"
C       -1.67131302      -0.25463037      -1.68263402
C       -1.20066103      -0.61368285      -0.30297780
C        0.74279044       0.60337041       0.31963802
C        0.95678609       1.90510633       1.03282748
N        1.27342213      -0.51411896       0.92875995
C        1.23684994      -1.70939563       0.32966442
O        0.53731404      -1.79102345      -0.72748676
H       -1.36927985       0.75171422      -1.97315781
H       -1.29972561      -0.98091975      -2.40976352
H       -2.76107173      -0.30715396      -1.76581726
H       -1.54595396       0.12644341       0.41851730
H       -1.69486095      -1.51273113       0.07189266
H        0.86352630       0.62249639      -0.75634463
H        0.32264030       2.68748609       0.61045355
H        0.69516812       1.82607700       2.09245624
H        1.98976282       2.26683135       0.96644430
H        1.38178553      -0.52970865       1.93207314
H        1.54282044      -2.57616045       0.91545472
18
Frame=9 idx=011582 GeodesicLength=0.7233237824959743 rxn_smarts="[C:1]([C:2]([C@@:3]([C:4]([H:14])([H:15])[H:16])([N:5]([C:6](=[O:7])[H:18])[H:17])[H:13])([H:11])[H:12])([H:8])([H:9])[H:10]>>[C:1]([C:2]([O+:7]=[C:6]([N:5]([C-:3]([C:4]([H:14])([H:15])[H:16])[H:13])[H:17])[H:18])([H:11])[H:12])([H:8])([H:9])[H:10]"
C       -1.67903424      -0.28001503      -1.69173940
C       -1.18327578      -0.58543502      -0.30589786
C        0.73497297       0.60947350       0.32578272
C        0.95714084       1.90291164       1.05330570
N        1.26551312      -0.51465164       0.92760391
C        1.25860082      -1.70071455       0.30864234
O        0.56961943      -1.77737311      -0.75747103
H       -1.34583024       0.69766832      -2.04026520
H       -1.36090516      -1.05955994      -2.38801143
H       -2.77172844      -0.29143153      -1.74459424
H       -1.54854436       0.17708894       0.38362824
H       -1.68332666      -1.46468041       0.10994945
H        0.87423623       0.64432261      -0.74805741
H        0.32733423       2.69458325       0.64169580
H        0.69690343       1.81251897       2.11231534
H        1.99206508       2.25821394       0.98838864
H        1.33921453      -0.55039372       1.93360775
H        1.55704421      -2.57252624       0.89111667
18
Frame=10 idx=011582 GeodesicLength=0.80021019779494 rxn_smarts="[C:1]([C:2]([C@@:3]([C:4]([H:14])([H:15])[H:16])([N:5]([C:6](=[O:7])[H:18])[H:17])[H:13])([H:11])[H:12])([H:8])([H:9])[H:10]>>[C:1]([C:2]([O+:7]=[C:6]([N:5]([C-:3]([C:4]([H:14])([H:15])[H:16])[H:13])[H:17])[H:18])([H:11])[H:12])([H:8])([H:9])[H:10]"
C       -1.68641957      -0.30630650      -1.69941069
C       -1.16667143      -0.55676635      -0.30913171
C        0.72726228       0.61589433       0.33129585
C        0.95716174       1.90040051       1.07394883
N        1.25762732      -0.51519757       0.92529181
C        1.27949059      -1.69143647       0.28742763
O        0.60247332      -1.76224205      -0.78846639
H       -1.32286825       0.63782759      -2.10551930
H       -1.42127496      -1.13625648      -2.35820757
H       -2.77954223      -0.27471552      -1.72688041
H       -1.55044005       0.22764678       0.34701180
H       -1.67232094      -1.41419922       0.14728310
H        0.88489217       0.66689414      -0.73989222
H        0.33140913       2.70125921       0.67374060
H        0.69834977       1.79777352       2.13218732
H        1.99391664       2.24968524       1.01053088
H        1.29769512      -0.57152278       1.93235421
H        1.56925936      -2.56873838       0.86643625
18
Frame=11 idx=011582 GeodesicLength=0.8764685755208316 rxn_smarts="[C:1]([C:2]([C@@:3]([C:4]([H:14])([H:15])[H:16])([N:5]([C:6](=[O:7])[H:18])[H:17])[H:13])([H:11])[H:12])([H:8])([H:9])[H:10]>>[C:1]([C:2]([O+:7]=[C:6]([N:5]([C-:3]([C:4]([H:14])([H:15])[H:16])[H:13])[H:17])[H:18])([H:11])[H:12])([H:8])([H:9])[H:10]"
C       -1.69329072      -0.33342862      -1.70550141
C       -1.15092680      -0.52770116      -0.31263523
C        0.71946707       0.62251114       0.33622137
C        0.95678134       1.89749847       1.09462221
N        1.24951848      -0.51581077       0.92178544
C        1.29908827      -1.68176338       0.26608195
O        0.63562723      -1.74574978      -0.82037683
H       -1.30079947       0.57264272      -2.16760680
H       -1.47945653      -1.20993004      -2.32082151
H       -2.78443341      -0.25801529      -1.71318448
H       -1.55161687       0.27809415       0.30871283
H       -1.66222945      -1.36105438       0.18372675
H        0.89533797       0.68993105      -0.73175547
H        0.33463806       2.70731917       0.70663912
H        0.69980002       1.78188572       2.15197099
H        1.99515102       2.24121669       1.03238320
H        1.25822832      -0.59269759       1.92835393
H        1.57911549      -2.56494811       0.84138392
18
Frame=12 idx=011582 GeodesicLength=0.9524965068157766 rxn_smarts="[C:1]([C:2]([C@@:3]([C:4]([H:14])([H:15])[H:16])([N:5]([C:6](=[O:7])[H:18])[H:17])[H:13])([H:11])[H:12])([H:8])([H:9])[H:10]>>[C:1]([C:2]([O+:7]=[C:6]([N:5]([C-:3]([C:4]([H:14])([H:15])[H:16])[H:13])[H:17])[H:18])([H:11])[H:12])([H:8])([H:9])[H:10]"
C       -1.69954408      -0.36159242      -1.70967000
C       -1.13571733      -0.49804145      -0.31633490
C        0.71189880       0.62946520       0.34045385
C        0.95612810       1.89419412       1.11544128
N        1.24124248      -0.51640102       0.91693518
C        1.31750895      -1.67153680       0.24416062
O        0.66920414      -1.72757961      -0.85343958
H       -1.27973260       0.50171535      -2.22642265
H       -1.53558797      -1.28078400      -2.27557147
H       -2.78650703      -0.24218999      -1.70295921
H       -1.55160087       0.32891993       0.26833828
H       -1.65271795      -1.30475345       0.21957458
H        0.90570691       0.71366229      -0.72365107
H        0.33768143       2.71286798       0.74020745
H        0.70063720       1.76480810       2.17144546
H        1.99594230       2.23259869       1.05485660
H        1.21878049      -0.61430069       1.92148696
H        1.58667701      -2.56105222       0.81514861
18
Frame=13 idx=011582 GeodesicLength=1.028690164291129 rxn_smarts="[C:1]([C:2]([C@@:3]([C:4]([H:14])([H:15])[H:16])([N:5]([C:6](=[O:7])[H:18])[H:17])[H:13])([H:11])[H:12])([H:8])([H:9])[H:10]>>[C:1]([C:2]([O+:7]=[C:6]([N:5]([C-:3]([C:4]([H:14])([H:15])[H:16])[H:13])[H:17])[H:18])([H:11])[H:12])([H:8])([H:9])[H:10]"
C       -1.70544831      -0.39077938      -1.71214410
C       -1.12130213      -0.46772205      -0.32026442
C        0.70457110       0.63672489       0.34407993
C        0.95528319       1.89045593       1.13647554
N        1.23295503      -0.51707795       0.91096604
C        1.33493109      -1.66098033       0.22183584
O        0.70342835      -1.70775470      -0.88769707
H       -1.26017131       0.42543081      -2.28157231
H       -1.58899201      -1.34823174      -2.22333763
H       -2.78655974      -0.22806048      -1.69669043
H       -1.55072406       0.38026364       0.22568408
H       -1.64436161      -1.24490017       0.25489843
H        0.91611755       0.73802223      -0.71571535
H        0.34027896       2.71787573       0.77456327
H        0.70116412       1.74650341       2.19095269
H        1.99653872       2.22380424       1.07770516
H        1.18015374      -0.63622814       1.91221839
H        1.59213731      -2.55734594       0.78804195
18
Frame=14 idx=011582 GeodesicLength=1.1047730751373914 rxn_smarts="[C:1]([C:2]([C@@:3]([C:4]([H:14])([H:15])[H:16])([N:5]([C:6](=[O:7])[H:18])[H:17])[H:13])([H:11])[H:12])([H:8])([H:9])[H:10]>>[C:1]([C:2]([O+:7]=[C:6]([N:5]([C-:3]([C:4]([H:14])([H:15])[H:16])[H:13])[H:17])[H:18])([H:11])[H:12])([H:8])([H:9])[H:10]"
C       -1.71062722      -0.42099318      -1.71255485
C       -1.10759607      -0.43677363      -0.32443924
C        0.69722359       0.64428726       0.34714879
C        0.95419231       1.88622068       1.15758959
N        1.22421964      -0.51783796       0.90367792
C        1.35078237      -1.65014157       0.19900883
O        0.73803235      -1.68616240      -0.92301215
H       -1.24190717       0.34431168      -2.33181170
H       -1.63850951      -1.41184465      -2.16433542
H       -2.78436905      -0.21658640      -1.69417040
H       -1.54875359       0.43196563       0.18048852
H       -1.63727032      -1.18127416       0.28931619
H        0.92637718       0.76299943      -0.70766572
H        0.34229460       2.72217535       0.80995257
H        0.70177851       1.72684815       2.21022765
H        1.99668700       2.21488606       1.10043640
H        1.14279186      -0.65820393       1.90034791
H        1.59465352      -2.55387636       0.75979512
18
Frame=15 idx=011582 GeodesicLength=1.181212497121101 rxn_smarts="[C:1]([C:2]([C@@:3]([C:4]([H:14])([H:15])[H:16])([N:5]([C:6](=[O:7])[H:18])[H:17])[H:13])([H:11])[H:12])([H:8])([H:9])[H:10]>>[C:1]([C:2]([O+:7]=[C:6]([N:5]([C-:3]([C:4]([H:14])([H:15])[H:16])[H:13])[H:17])[H:18])([H:11])[H:12])([H:8])([H:9])[H:10]"
C       -1.71511073      -0.45240669      -1.71064498
C       -1.09435265      -0.40496949      -0.32888874
C        0.69025671       0.65220255       0.34956966
C        0.95287559       1.88143446       1.17895775
N        1.21520558      -0.51864916       0.89504444
C        1.36524921      -1.63896725       0.17538816
O        0.77318281      -1.66265444      -0.95956132
H       -1.22522389       0.25817433      -2.37698344
H       -1.68439132      -1.47177558      -2.09865636
H       -2.78034128      -0.20855311      -1.69466109
H       -1.54517240       0.48448727       0.13214397
H       -1.63125604      -1.11309065       0.32292393
H        0.93685241       0.78863213      -0.69958778
H        0.34420782       2.72577318       0.84601148
H        0.70154454       1.70585687       2.22918523
H        1.99653754       2.20557775       1.12413772
H        1.10542879      -0.68048254       1.88576672
H        1.59450729      -2.55058963       0.72985465
18
Frame=16 idx=011582 GeodesicLength=1.2583662621024354 rxn_smarts="[C:1]([C:2]([C@@:3]([C:4]([H:14])([H:15])[H:16])([N:5]([C:6](=[O:7])[H:18])[H:17])[H:13])([H:11])[H:12])([H:8])([H:9])[H:10]>>[C:1]([C:2]([O+:7]=[C:6]([N:5]([C-:3]([C:4]([H:14])([H:15])[H:16])[H:13])[H:17])[H:18])([H:11])[H:12])([H:8])([H:9])[H:10]"
C       -1.71889889      -0.48515319      -1.70631563
C       -1.08163008      -0.37217862      -0.33369789
C        0.68360164       0.66053530       0.35140838
C        0.95134693       1.87604247       1.20069092
N        1.20583815      -0.51955051       0.88506288
C        1.37831589      -1.62751108       0.15087102
O        0.80903801      -1.63704384      -0.99744037
H       -1.20992142       0.16699080      -2.41670974
H       -1.72628840      -1.52804156      -2.02645089
H       -2.77484426      -0.20449796      -1.69801728
H       -1.53995143       0.53791959       0.08005701
H       -1.62657621      -1.03970798       0.35555122
H        0.94759197       0.81503366      -0.69144621
H        0.34576077       2.72859896       0.88312650
H        0.70079813       1.68334137       2.24803740
H        1.99612375       2.19587066       1.14862949
H        1.06822411      -0.70303445       1.86858156
H        1.59147135      -2.54761363       0.69806163
