16
Frame=0 idx=002556 GeodesicLength=0.0 rxn_smarts="[C:1]([C:2]([C:3]([H:11])([H:12])[H:13])([C@@:4]1([H:14])[C:5]([H:15])([H:16])[O:6]1)[H:10])([H:7])([H:8])[H:9]>>[C:1]([H:7])([H:8])([H:9])[H:11].[C:2](=[C:3]([H:12])[H:13])([C@@:4]1([H:14])[C:5]([H:15])([H:16])[O:6]1)[H:10]"
C       -0.61009307       1.49832388      -0.67325054
C       -0.53817116      -0.39517864       0.29708295
C       -1.49069542      -1.28047928      -0.28688727
C        0.91772626      -0.62761530       0.07306984
C        1.92775202       0.00676628       0.90541155
O        1.54341782      -1.34358795       1.12165527
H       -0.42082626       2.16901014       0.16245079
H       -1.57698628       1.74598510      -1.13017556
H        0.18459605       1.54490654      -1.41711719
H       -0.78430386       0.03931551       1.25863203
H       -1.24489611       0.09533507      -0.66881128
H       -2.46487953      -1.39352757       0.16155266
H       -1.17661723      -1.95576596      -1.06934877
H        1.18364704      -0.95823991      -0.92864519
H        2.93188015       0.14829064       0.51740030
H        1.61844961       0.70646142       1.67698037
16
Frame=1 idx=002556 GeodesicLength=0.09747719363805253 rxn_smarts="[C:1]([C:2]([C:3]([H:11])([H:12])[H:13])([C@@:4]1([H:14])[C:5]([H:15])([H:16])[O:6]1)[H:10])([H:7])([H:8])[H:9]>>[C:1]([H:7])([H:8])([H:9])[H:11].[C:2](=[C:3]([H:12])[H:13])([C@@:4]1([H:14])[C:5]([H:15])([H:16])[O:6]1)[H:10]"
C       -0.61260645       1.50269250      -0.68241259
C       -0.53810343      -0.39351591       0.29717124
C       -1.48811384      -1.27911456      -0.29013156
C        0.91751683      -0.63142296       0.07870390
C        1.92600175       0.00373009       0.91298683
O        1.54277619      -1.34692125       1.12815707
H       -0.39319423       2.17643055       0.14392746
H       -1.58143381       1.77778233      -1.11815902
H        0.16793207       1.53870670      -1.44205744
H       -0.78404926       0.02763167       1.26527839
H       -1.27311684       0.10795166      -0.68722869
H       -2.44348554      -1.42987466       0.18756609
H       -1.17425483      -1.94199246      -1.08393739
H        1.18748105      -0.96039831      -0.92258677
H        2.93045165       0.14703194       0.52637485
H        1.61619869       0.70128267       1.68634765
16
Frame=2 idx=002556 GeodesicLength=0.19464192064620278 rxn_smarts="[C:1]([C:2]([C:3]([H:11])([H:12])[H:13])([C@@:4]1([H:14])[C:5]([H:15])([H:16])[O:6]1)[H:10])([H:7])([H:8])[H:9]>>[C:1]([H:7])([H:8])([H:9])[H:11].[C:2](=[C:3]([H:12])[H:13])([C@@:4]1([H:14])[C:5]([H:15])([H:16])[O:6]1)[H:10]"
C       -0.61550902       1.50675622      -0.69163962
C       -0.53797683      -0.39187219       0.29799186
C       -1.48583449      -1.27697204      -0.29335028
C        0.91725952      -0.63523384       0.08459779
C        1.92435262       0.00061275       0.92070501
O        1.54230078      -1.35036873       1.13471004
H       -0.36524116       2.18324475       0.12417502
H       -1.58494179       1.80976807      -1.10605377
H        0.15022479       1.53198045      -1.46702034
H       -0.78372681       0.01566077       1.27253972
H       -1.30282341       0.12110212      -0.70539506
H       -2.42021734      -1.46664638       0.21202923
H       -1.17208434      -1.92745953      -1.09811893
H        1.19102697      -0.96234304      -0.91638430
H        2.92904684       0.14575207       0.53532050
H        1.61414368       0.69601854       1.69589316
16
Frame=3 idx=002556 GeodesicLength=0.2916827630461202 rxn_smarts="[C:1]([C:2]([C:3]([H:11])([H:12])[H:13])([C@@:4]1([H:14])[C:5]([H:15])([H:16])[O:6]1)[H:10])([H:7])([H:8])[H:9]>>[C:1]([H:7])([H:8])([H:9])[H:11].[C:2](=[C:3]([H:12])[H:13])([C@@:4]1([H:14])[C:5]([H:15])([H:16])[O:6]1)[H:10]"
C       -0.61884936       1.51046673      -0.70090682
C       -0.53775898      -0.39027059       0.29962587
C       -1.48387497      -1.27398885      -0.29648526
C        0.91698194      -0.63905595       0.09077928
C        1.92284507      -0.00258400       0.92856918
O        1.54204664      -1.35392957       1.14133168
H       -0.33705890       2.18936116       0.10315645
H       -1.58749752       1.84188119      -1.09390112
H        0.13143366       1.52469665      -1.49194022
H       -0.78329501       0.00337689       1.28048958
H       -1.33407560       0.13479044      -0.72340297
H       -2.39512681      -1.50367521       0.23470351
H       -1.17009044      -1.91212084      -1.11183495
H        1.19428919      -0.96408667      -0.91001627
H        2.92769673       0.14445887       0.54421818
H        1.61233435       0.69067977       1.70561389
16
Frame=4 idx=002556 GeodesicLength=0.3886981509637244 rxn_smarts="[C:1]([C:2]([C:3]([H:11])([H:12])[H:13])([C@@:4]1([H:14])[C:5]([H:15])([H:16])[O:6]1)[H:10])([H:7])([H:8])[H:9]>>[C:1]([H:7])([H:8])([H:9])[H:11].[C:2](=[C:3]([H:12])[H:13])([C@@:4]1([H:14])[C:5]([H:15])([H:16])[O:6]1)[H:10]"
C       -0.62269560       1.51377087      -0.71017707
C       -0.53740515      -0.38873368       0.30216303
C       -1.48224893      -1.27009413      -0.29948124
C        0.91672227      -0.64290041       0.09727684
C        1.92153543      -0.00586369       0.93657650
O        1.54208278      -1.35760662       1.14803690
H       -0.30882208       2.19469578       0.08085797
H       -1.58909529       1.87401386      -1.08180540
H        0.11154373       1.51684965      -1.51670568
H       -0.78269609      -0.00926039       1.28921627
H       -1.36689498       0.14900094      -0.74135469
H       -2.36833458      -1.54072309       0.25534430
H       -1.16825529      -1.89593251      -1.12502265
H        1.19727725      -0.96564555      -0.90346100
H        2.92644582       0.14315198       0.55303773
H        1.61084070       0.68527698       1.71549819
16
Frame=5 idx=002556 GeodesicLength=0.4858020933395174 rxn_smarts="[C:1]([C:2]([C:3]([H:11])([H:12])[H:13])([C@@:4]1([H:14])[C:5]([H:15])([H:16])[O:6]1)[H:10])([H:7])([H:8])[H:9]>>[C:1]([H:7])([H:8])([H:9])[H:11].[C:2](=[C:3]([H:12])[H:13])([C@@:4]1([H:14])[C:5]([H:15])([H:16])[O:6]1)[H:10]"
C       -0.62711574       1.51661232      -0.71940380
C       -0.53686836      -0.38729865       0.30570292
C       -1.48096116      -1.26520513      -0.30227393
C        0.91652345      -0.64678485       0.10412099
C        1.92049062      -0.00922735       0.94472194
O        1.54249228      -1.36140192       1.15484395
H       -0.28075376       2.19915316       0.05728117
H       -1.58973466       1.90604396      -1.06988553
H        0.09054240       1.50844467      -1.54118065
H       -0.78187162      -0.02231056       1.29881927
H       -1.40125837       0.16371175      -0.75942390
H       -2.34000506      -1.57751288       0.27371150
H       -1.16657640      -1.87884264      -1.13760988
H        1.20000373      -0.96704483      -0.89669729
H        2.92534946       0.14183668       0.56174051
H        1.60974320       0.67982626       1.72553272
16
Frame=6 idx=002556 GeodesicLength=0.5830570304129233 rxn_smarts="[C:1]([C:2]([C:3]([H:11])([H:12])[H:13])([C@@:4]1([H:14])[C:5]([H:15])([H:16])[O:6]1)[H:10])([H:7])([H:8])[H:9]>>[C:1]([H:7])([H:8])([H:9])[H:11].[C:2](=[C:3]([H:12])[H:13])([C@@:4]1([H:14])[C:5]([H:15])([H:16])[O:6]1)[H:10]"
C       -0.63218747       1.51894355      -0.72853163
C       -0.53609140      -0.38599184       0.31032921
C       -1.48001408      -1.25924682      -0.30479766
C        0.91643387      -0.65072614       0.11133510
C        1.91977863      -0.01268107       0.95299259
O        1.54335760      -1.36532089       1.16176135
H       -0.25311720       2.20265533       0.03248110
H       -1.58942954       1.93783159      -1.05830205
H        0.06847132       1.49951807      -1.56520241
H       -0.78075071      -0.03583028       1.30938161
H       -1.43715149       0.17887712      -0.77781216
H       -2.31034663      -1.61373163       0.28959908
H       -1.16502592      -1.86083046      -1.14950707
H        1.20248524      -0.96831184      -0.88970714
H        2.92446197       0.14050906       0.57028397
H        1.60912581       0.67433627       1.73569612
16
Frame=7 idx=002556 GeodesicLength=0.6804853564910363 rxn_smarts="[C:1]([C:2]([C:3]([H:11])([H:12])[H:13])([C@@:4]1([H:14])[C:5]([H:15])([H:16])[O:6]1)[H:10])([H:7])([H:8])[H:9]>>[C:1]([H:7])([H:8])([H:9])[H:11].[C:2](=[C:3]([H:12])[H:13])([C@@:4]1([H:14])[C:5]([H:15])([H:16])[O:6]1)[H:10]"
C       -0.63799608       1.52071274      -0.73749451
C       -0.53500592      -0.38485221       0.31613318
C       -1.47940504      -1.25212581      -0.30698874
C        0.91651105      -0.65474950       0.11894224
C        1.91948064      -0.01623348       0.96136671
O        1.54477693      -1.36937091       1.16879739
H       -0.22626059       2.20512888       0.00656099
H       -1.58823185       1.96919345      -1.04724833
H        0.04541274       1.49013867      -1.58856616
H       -0.77924483      -0.04989112       1.32099579
H       -1.47449031       0.19443060      -0.79679418
H       -2.27964346      -1.64898778       0.30280955
H       -1.16358142      -1.84188802      -1.16060433
H        1.20474408      -0.96948708      -0.88247201
H        2.92384769       0.13916194       0.57861005
H        1.60908636       0.66881962       1.74595236
16
Frame=8 idx=002556 GeodesicLength=0.778164394073834 rxn_smarts="[C:1]([C:2]([C:3]([H:11])([H:12])[H:13])([C@@:4]1([H:14])[C:5]([H:15])([H:16])[O:6]1)[H:10])([H:7])([H:8])[H:9]>>[C:1]([H:7])([H:8])([H:9])[H:11].[C:2](=[C:3]([H:12])[H:13])([C@@:4]1([H:14])[C:5]([H:15])([H:16])[O:6]1)[H:10]"
C       -0.64462144       1.52187656      -0.74619202
C       -0.53349875      -0.38390526       0.32317830
C       -1.47912950      -1.24375729      -0.30877450
C        0.91683129      -0.65888538       0.12695774
C        1.91968644      -0.01989402       0.96979597
O        1.54684961      -1.37355581       1.17594996
H       -0.20063935       2.20654159      -0.02021880
H       -1.58622510       1.99991324      -1.03698968
H        0.02157142       1.48042205      -1.61102444
H       -0.77722220      -0.06456235       1.33372270
H       -1.51323328       0.21024985      -0.81674078
H       -2.24831752      -1.68282082       0.31319550
H       -1.16218131      -1.82206372      -1.17075880
H        1.20681996      -0.97063293      -0.87496485
H        2.92357226       0.13777552       0.58663914
H        1.60973746       0.66329876       1.75622457
16
Frame=9 idx=002556 GeodesicLength=0.8761498019071506 rxn_smarts="[C:1]([C:2]([C:3]([H:11])([H:12])[H:13])([C@@:4]1([H:14])[C:5]([H:15])([H:16])[O:6]1)[H:10])([H:7])([H:8])[H:9]>>[C:1]([H:7])([H:8])([H:9])[H:11].[C:2](=[C:3]([H:12])[H:13])([C@@:4]1([H:14])[C:5]([H:15])([H:16])[O:6]1)[H:10]"
C       -0.65233460       1.52237953      -0.75469308
C       -0.53168317      -0.38326651       0.33157969
C       -1.47917608      -1.23387729      -0.31013967
C        0.91735272      -0.66313364       0.13536635
C        1.92042800      -0.02370274       0.97833528
O        1.54964032      -1.37795094       1.18314741
H       -0.17646743       2.20671612      -0.04789623
H       -1.58331379       2.03002807      -1.02753786
H       -0.00324875       1.47045979      -1.63238227
H       -0.77482035      -0.08006879       1.34769184
H       -1.55282075       0.22619609      -0.83857690
H       -2.21602616      -1.71478956       0.32110668
H       -1.16097005      -1.80133939      -1.17980527
H        1.20863955      -0.97167857      -0.86727145
H        2.92368128       0.13639054       0.59437694
H        1.61111925       0.65763730       1.76669855
16
Frame=10 idx=002556 GeodesicLength=0.9741933227569153 rxn_smarts="[C:1]([C:2]([C:3]([H:11])([H:12])[H:13])([C@@:4]1([H:14])[C:5]([H:15])([H:16])[O:6]1)[H:10])([H:7])([H:8])[H:9]>>[C:1]([H:7])([H:8])([H:9])[H:11].[C:2](=[C:3]([H:12])[H:13])([C@@:4]1([H:14])[C:5]([H:15])([H:16])[O:6]1)[H:10]"
C       -0.66109071       1.52222028      -0.76279917
C       -0.52930557      -0.38289227       0.34135321
C       -1.47952486      -1.22253183      -0.31095654
C        0.91823561      -0.66754637       0.14419289
C        1.92184982      -0.02766851       0.98687036
O        1.55327631      -1.38252919       1.19042237
H       -0.15441483       2.20582662      -0.07595664
H       -1.57986609       2.05906696      -1.01932171
H       -0.02850081       1.46043136      -1.65237548
H       -0.77171023      -0.09637038       1.36290710
H       -1.59334823       0.24212780      -0.86236210
H       -2.18383034      -1.74439266       0.32612309
H       -1.15978188      -1.77982137      -1.18761813
H        1.21032375      -0.97277868      -0.85930616
H        2.92427547       0.13492067       0.60169208
H        1.61341259       0.65193757       1.77713482
16
Frame=11 idx=002556 GeodesicLength=1.0721572873517167 rxn_smarts="[C:1]([C:2]([C:3]([H:11])([H:12])[H:13])([C@@:4]1([H:14])[C:5]([H:15])([H:16])[O:6]1)[H:10])([H:7])([H:8])[H:9]>>[C:1]([H:7])([H:8])([H:9])[H:11].[C:2](=[C:3]([H:12])[H:13])([C@@:4]1([H:14])[C:5]([H:15])([H:16])[O:6]1)[H:10]"
C       -0.67098702       1.52140386      -0.77046197
C       -0.52632258      -0.38281848       0.35254791
C       -1.48013563      -1.20960667      -0.31116045
C        0.91952764      -0.67215367       0.15342600
C        1.92404004      -0.03183274       0.99537093
O        1.55784473      -1.38733248       1.19773906
H       -0.13496615       2.20394378      -0.10411439
H       -1.57611229       2.08679774      -1.01253865
H       -0.05397029       1.45052079      -1.67077468
H       -0.76781665      -0.11357594       1.37942060
H       -1.63442027       0.25788857      -0.88873090
H       -2.15212514      -1.77114901       0.32837313
H       -1.15861373      -1.75759443      -1.19404529
H        1.21188880      -0.97397250      -0.85109533
H        2.92543549       0.13332736       0.60852066
H        1.61673305       0.64615381       1.78752338
16
Frame=12 idx=002556 GeodesicLength=1.169913389581378 rxn_smarts="[C:1]([C:2]([C:3]([H:11])([H:12])[H:13])([C@@:4]1([H:14])[C:5]([H:15])([H:16])[O:6]1)[H:10])([H:7])([H:8])[H:9]>>[C:1]([H:7])([H:8])([H:9])[H:11].[C:2](=[C:3]([H:12])[H:13])([C@@:4]1([H:14])[C:5]([H:15])([H:16])[O:6]1)[H:10]"
C       -0.68213324       1.51995306      -0.77762764
C       -0.52267223      -0.38305434       0.36518024
C       -1.48096572      -1.19501903      -0.31068785
C        0.92128201      -0.67697655       0.16304170
C        1.92708587      -0.03624237       1.00379580
O        1.56342153      -1.39240571       1.20504280
H       -0.11859490       2.20121949      -0.13196741
H       -1.57232161       2.11299804      -1.00740780
H       -0.07936375       1.44092937      -1.68738492
H       -0.76304199      -0.13176445       1.39724712
H       -1.67566494       0.27326341      -0.91833191
H       -2.12139011      -1.79460006       0.32805555
H       -1.15743670      -1.73479212      -1.19892912
H        1.21335982      -0.97529375      -0.84266899
H        2.92723766       0.13155854       0.61479581
H        1.62119831       0.64022649       1.79784662
16
Frame=13 idx=002556 GeodesicLength=1.2674171412983013 rxn_smarts="[C:1]([C:2]([C:3]([H:11])([H:12])[H:13])([C@@:4]1([H:14])[C:5]([H:15])([H:16])[O:6]1)[H:10])([H:7])([H:8])[H:9]>>[C:1]([H:7])([H:8])([H:9])[H:11].[C:2](=[C:3]([H:12])[H:13])([C@@:4]1([H:14])[C:5]([H:15])([H:16])[O:6]1)[H:10]"
C       -0.69462846       1.51789615      -0.78424853
C       -0.51828686      -0.38361137       0.37926407
C       -1.48197759      -1.17866276      -0.30947279
C        0.92355166      -0.68204552       0.17301110
C        1.93108105      -0.04095359       1.01209056
O        1.57008020      -1.39779968       1.21227517
H       -0.10583115       2.19784493      -0.15903932
H       -1.56883788       2.13742919      -1.00414271
H       -0.10433988       1.43189750      -1.70198010
H       -0.75728327      -0.15101267       1.41639187
H       -1.71661575       0.28800615      -0.95194763
H       -2.09214273      -1.81427471       0.32546085
H       -1.15623155      -1.71156053      -1.20210487
H        1.21475750      -0.97679320      -0.83406010
H        2.92976461       0.12954483       0.62043325
H        1.62694011       0.63409530       1.80806918
16
Frame=14 idx=002556 GeodesicLength=1.364677922197459 rxn_smarts="[C:1]([C:2]([C:3]([H:11])([H:12])[H:13])([C@@:4]1([H:14])[C:5]([H:15])([H:16])[O:6]1)[H:10])([H:7])([H:8])[H:9]>>[C:1]([H:7])([H:8])([H:9])[H:11].[C:2](=[C:3]([H:12])[H:13])([C@@:4]1([H:14])[C:5]([H:15])([H:16])[O:6]1)[H:10]"
C       -0.70858714       1.51528803      -0.79028210
C       -0.51310270      -0.38447997       0.39477937
C       -1.48312771      -1.16044960      -0.30744704
C        0.92637904      -0.68738300       0.18329005
C        1.93610370      -0.04602782       1.02019385
O        1.57786981      -1.40357040       1.21935540
H       -0.09717317       2.19407702      -0.18478375
H       -1.56603599       2.15988941      -1.00295329
H       -0.12847431       1.42367310      -1.71439412
H       -0.75043749      -0.17139718       1.43682141
H       -1.75680265       0.30184287      -0.99035492
H       -2.06489253      -1.82976798       0.32099352
H       -1.15497791      -1.68807009      -1.20341583
H        1.21609741      -0.97851575      -0.82531109
H        2.93308439       0.12720850       0.62535218
H        1.63407727       0.62768285       1.81815635
16
Frame=15 idx=002556 GeodesicLength=1.461795302220203 rxn_smarts="[C:1]([C:2]([C:3]([H:11])([H:12])[H:13])([C@@:4]1([H:14])[C:5]([H:15])([H:16])[O:6]1)[H:10])([H:7])([H:8])[H:9]>>[C:1]([H:7])([H:8])([H:9])[H:11].[C:2](=[C:3]([H:12])[H:13])([C@@:4]1([H:14])[C:5]([H:15])([H:16])[O:6]1)[H:10]"
C       -0.72412281       1.51219680      -0.79570596
C       -0.50706950      -0.38563651       0.41170001
C       -1.48437965      -1.14028386      -0.30454157
C        0.92979403      -0.69300669       0.19382738
C        1.94222842      -0.05154180       1.02804721
O        1.58682041      -1.40978732       1.22619104
H       -0.09308347       2.19022340      -0.20864271
H       -1.56433079       2.18020163      -1.00400871
H       -0.15137550       1.41651273      -1.72448193
H       -0.74241596      -0.19296439       1.45848913
H       -1.79567822       0.31445492      -1.03437621
H       -2.04009944      -1.84070777       0.31512233
H       -1.15366387      -1.66450572      -1.20270729
H        1.21738122      -0.98049431      -0.81647575
H        2.93726340       0.12444953       0.62947581
H        1.64273172       0.62088937       1.82808722
16
Frame=16 idx=002556 GeodesicLength=1.5590096479200681 rxn_smarts="[C:1]([C:2]([C:3]([H:11])([H:12])[H:13])([C@@:4]1([H:14])[C:5]([H:15])([H:16])[O:6]1)[H:10])([H:7])([H:8])[H:9]>>[C:1]([H:7])([H:8])([H:9])[H:11].[C:2](=[C:3]([H:12])[H:13])([C@@:4]1([H:14])[C:5]([H:15])([H:16])[O:6]1)[H:10]"
C       -0.74135830       1.50869979      -0.80052739
C       -0.50014482      -0.38704330       0.42997243
C       -1.48568924      -1.11808481      -0.30068066
C        0.93381455      -0.69893329       0.20455849
C        1.94952204      -0.05757815       1.03558182
O        1.59693788      -1.41652258       1.23267907
H       -0.09400884       2.18669206      -0.22998249
H       -1.56417563       2.19821392      -1.00745590
H       -0.17259062       1.41068584      -1.73212747
H       -0.73314215      -0.21573889       1.48130799
H       -1.83262706       0.32549506      -1.08485503
H       -2.01821867      -1.84681838       0.30842855
H       -1.15231105      -1.64105694      -1.19983649
H        1.21860263      -0.98277046      -0.80761701
H        2.94236575       0.12115192       0.63272134
H        1.65302353       0.61360821       1.83783277
