11
Frame=0 idx=002302 GeodesicLength=0.0 rxn_smarts="[C:1]([N:2](/[C:3](=[N:4]/[H:11])[C:5]#[N:6])[H:10])([H:7])([H:8])[H:9]>>[C:1]([N:2]([H:10])[H:11])([H:7])([H:8])[H:9].[C:3](#[N:4])[C:5]#[N:6]"
C       -1.34899555      -0.20887454       0.14276680
N       -0.17225026      -0.02693276      -0.71596734
C        1.09748727       0.48967560      -0.07937446
N        1.37096562       1.59579655      -0.56294062
C        1.71146865      -0.34197346       0.92986247
N        2.16951420      -1.02075074       1.73493080
H       -1.52181828       0.71881089       0.68694428
H       -1.18796291      -1.01886729       0.85528565
H       -2.21853170      -0.43350901      -0.47237528
H       -0.01691974      -0.82931316      -1.32222335
H        0.11704273       1.07593789      -1.19690897
11
Frame=1 idx=002302 GeodesicLength=0.1023770442309556 rxn_smarts="[C:1]([N:2](/[C:3](=[N:4]/[H:11])[C:5]#[N:6])[H:10])([H:7])([H:8])[H:9]>>[C:1]([N:2]([H:10])[H:11])([H:7])([H:8])[H:9].[C:3](#[N:4])[C:5]#[N:6]"
C       -1.36697748      -0.19922534       0.13301327
N       -0.17013641      -0.04749904      -0.70231181
C        1.09293187       0.51076512      -0.04074527
N        1.34259583       1.61923607      -0.52782699
C        1.73468173      -0.33608116       0.93528744
N        2.24184274      -1.04985832       1.67862747
H       -1.54548158       0.73575494       0.66316751
H       -1.23196540      -1.00152124       0.85965922
H       -2.22765877      -0.41702879      -0.49779109
H       -0.00094205      -0.87010587      -1.27608574
H        0.13110951       1.05556364      -1.22499401
11
Frame=2 idx=002302 GeodesicLength=0.20191340841363822 rxn_smarts="[C:1]([N:2](/[C:3](=[N:4]/[H:11])[C:5]#[N:6])[H:10])([H:7])([H:8])[H:9]>>[C:1]([N:2]([H:10])[H:11])([H:7])([H:8])[H:9].[C:3](#[N:4])[C:5]#[N:6]"
C       -1.38435560      -0.18997838       0.12318387
N       -0.16814651      -0.06803731      -0.68730233
C        1.08788439       0.53037099      -0.00131561
N        1.31389731       1.63965716      -0.49342228
C        1.75972203      -0.33089415       0.93801291
N        2.30970220      -1.07275002       1.62055648
H       -1.56774978       0.75123556       0.64070197
H       -1.27649767      -0.98526035       0.86166350
H       -2.23537898      -0.39950207      -0.52369951
H        0.01304117      -0.90921176      -1.22857567
H        0.14788143       1.03437034      -1.24980331
11
Frame=3 idx=002302 GeodesicLength=0.30116592552960186 rxn_smarts="[C:1]([N:2](/[C:3](=[N:4]/[H:11])[C:5]#[N:6])[H:10])([H:7])([H:8])[H:9]>>[C:1]([N:2]([H:10])[H:11])([H:7])([H:8])[H:9].[C:3](#[N:4])[C:5]#[N:6]"
C       -1.40181975      -0.18098652       0.11295467
N       -0.16651051      -0.08884875      -0.67076116
C        1.08239311       0.54870388       0.03959203
N        1.28531678       1.65743808      -0.45954620
C        1.78617025      -0.32600721       0.93936691
N        2.37672953      -1.09047037       1.55997557
H       -1.58930974       0.76590519       0.61876114
H       -1.32269162      -0.96986965       0.86162368
H       -2.24226286      -0.38094622      -0.55097378
H        0.02477805      -0.94733784      -1.17934669
H        0.16720676       1.01241941      -1.27164617
11
Frame=4 idx=002302 GeodesicLength=0.4017043803149783 rxn_smarts="[C:1]([N:2](/[C:3](=[N:4]/[H:11])[C:5]#[N:6])[H:10])([H:7])([H:8])[H:9]>>[C:1]([N:2]([H:10])[H:11])([H:7])([H:8])[H:9].[C:3](#[N:4])[C:5]#[N:6]"
C       -1.41939017      -0.17231276       0.10232023
N       -0.16547186      -0.11000913      -0.65291592
C        1.07691133       0.56581806       0.08168997
N        1.25712187       1.67312898      -0.42631609
C        1.81441895      -0.32138946       0.93919471
N        2.44299364      -1.10346424       1.49818165
H       -1.60990962       0.77992536       0.59753248
H       -1.37040327      -0.95570655       0.85953302
H       -2.24859224      -0.36134140      -0.57963439
H        0.03380994      -0.98484131      -1.12874810
H        0.18851142       0.99019247      -1.29083755
11
Frame=5 idx=002302 GeodesicLength=0.49921041390906007 rxn_smarts="[C:1]([N:2](/[C:3](=[N:4]/[H:11])[C:5]#[N:6])[H:10])([H:7])([H:8])[H:9]>>[C:1]([N:2]([H:10])[H:11])([H:7])([H:8])[H:9].[C:3](#[N:4])[C:5]#[N:6]"
C       -1.43684890      -0.16374617       0.09128802
N       -0.16484884      -0.13168257      -0.63354310
C        1.07135825       0.58048637       0.12445620
N        1.22926408       1.68483052      -0.39321788
C        1.84303064      -0.31796601       0.93616552
N        2.50893198      -1.10878656       1.43572120
H       -1.62929824       0.79262453       0.57764608
H       -1.41989040      -0.94234674       0.85429028
H       -2.25355883      -0.33946086      -0.60921147
H        0.04030699      -1.02108664      -1.07734450
H        0.21155327       0.96713414      -1.30625036
11
Frame=6 idx=002302 GeodesicLength=0.5971358498512573 rxn_smarts="[C:1]([N:2](/[C:3](=[N:4]/[H:11])[C:5]#[N:6])[H:10])([H:7])([H:8])[H:9]>>[C:1]([N:2]([H:10])[H:11])([H:7])([H:8])[H:9].[C:3](#[N:4])[C:5]#[N:6]"
C       -1.45369035      -0.15566459       0.08021467
N       -0.16480578      -0.15358831      -0.61340060
C        1.06651077       0.59402375       0.16720890
N        1.20175173       1.69489030      -0.36118714
C        1.87330086      -0.31387960       0.93066999
N        2.57103331      -1.11070950       1.37415222
H       -1.64697990       0.80435036       0.55934885
H       -1.46960854      -0.93042658       0.84701447
H       -2.25729189      -0.31679960      -0.63920109
H        0.04430581      -1.05672387      -1.02528366
H        0.23547399       0.94452764      -1.31953663
11
Frame=7 idx=002302 GeodesicLength=0.6944857179536043 rxn_smarts="[C:1]([N:2](/[C:3](=[N:4]/[H:11])[C:5]#[N:6])[H:10])([H:7])([H:8])[H:9]>>[C:1]([N:2]([H:10])[H:11])([H:7])([H:8])[H:9].[C:3](#[N:4])[C:5]#[N:6]"
C       -1.47002625      -0.14786843       0.06896604
N       -0.16526443      -0.17594319      -0.59216470
C        1.06227057       0.60620318       0.21021902
N        1.17445039       1.70272931      -0.32980715
C        1.90429795      -0.30915546       0.92308069
N        2.63072969      -1.10876525       1.31221840
H       -1.66326933       0.81517449       0.54235455
H       -1.52009092      -0.91941983       0.83741242
H       -2.25942329      -0.29291870      -0.66982477
H        0.04610001      -1.09193834      -0.97196966
H        0.26022561       0.92190223      -1.33048483
11
Frame=8 idx=002302 GeodesicLength=0.7913059934866457 rxn_smarts="[C:1]([N:2](/[C:3](=[N:4]/[H:11])[C:5]#[N:6])[H:10])([H:7])([H:8])[H:9]>>[C:1]([N:2]([H:10])[H:11])([H:7])([H:8])[H:9].[C:3](#[N:4])[C:5]#[N:6]"
C       -1.48576042      -0.14035870       0.05756697
N       -0.16626173      -0.19878040      -0.56990556
C        1.05882543       0.61706970       0.25332492
N        1.14743300       1.70838573      -0.29913223
C        1.93561218      -0.30371224       0.91360654
N        2.68805121      -1.10321320       1.25001003
H       -1.67811148       0.82508104       0.52676277
H       -1.57120709      -0.90927406       0.82542034
H       -2.25974810      -0.26778415      -0.70099665
H        0.04576480      -1.12682898      -0.91731423
H        0.28540220       0.89941528      -1.33934289
11
Frame=9 idx=002302 GeodesicLength=0.8875703009209138 rxn_smarts="[C:1]([N:2](/[C:3](=[N:4]/[H:11])[C:5]#[N:6])[H:10])([H:7])([H:8])[H:9]>>[C:1]([N:2]([H:10])[H:11])([H:7])([H:8])[H:9].[C:3](#[N:4])[C:5]#[N:6]"
C       -1.50063312      -0.13326491       0.04618022
N       -0.16771334      -0.22196632      -0.54687144
C        1.05647925       0.62696015       0.29608352
N        1.12075314       1.71221672      -0.26942256
C        1.96706653      -0.29714603       0.90209565
N        2.74166482      -1.09508143       1.18817070
H       -1.69143633       0.83391208       0.51278927
H       -1.62233161      -0.90005098       0.81114410
H       -2.25805700      -0.24175679      -0.73224432
H        0.04360761      -1.16127946      -0.86137278
H        0.31060005       0.87745699      -1.34655235
11
Frame=10 idx=002302 GeodesicLength=0.9833356066575362 rxn_smarts="[C:1]([N:2](/[C:3](=[N:4]/[H:11])[C:5]#[N:6])[H:10])([H:7])([H:8])[H:9]>>[C:1]([N:2]([H:10])[H:11])([H:7])([H:8])[H:9].[C:3](#[N:4])[C:5]#[N:6]"
C       -1.51457384      -0.12660720       0.03483734
N       -0.16963994      -0.24548836      -0.52316808
C        1.05535148       0.63599578       0.33835344
N        1.09451265       1.71429295      -0.24074391
C        1.99820715      -0.28952414       0.88882505
N        2.79169752      -1.08467215       1.12680889
H       -1.70326903       0.84163354       0.50047636
H       -1.67328671      -0.89170182       0.79457304
H       -2.25420703      -0.21488251      -0.76343374
H        0.03973412      -1.19527460      -0.80406802
H        0.33547362       0.85622852      -1.35246039
11
Frame=11 idx=002302 GeodesicLength=1.0787679936143673 rxn_smarts="[C:1]([N:2](/[C:3](=[N:4]/[H:11])[C:5]#[N:6])[H:10])([H:7])([H:8])[H:9]>>[C:1]([N:2]([H:10])[H:11])([H:7])([H:8])[H:9].[C:3](#[N:4])[C:5]#[N:6]"
C       -1.52752276      -0.12041739       0.02358276
N       -0.17205259      -0.26931621      -0.49894034
C        1.05556503       0.64436716       0.37999620
N        1.06879883       1.71477236      -0.21316683
C        2.02869714      -0.28094390       0.87405107
N        2.83818246      -1.07239835       1.06613506
H       -1.71367947       0.84823177       0.48987329
H       -1.72381494      -0.88419597       0.77573670
H       -2.24812878      -0.18727862      -0.79440561
H        0.03427296      -1.22877767      -0.74537890
H        0.35968211       0.83595683      -1.35748339
11
Frame=12 idx=002302 GeodesicLength=1.1735294855222 rxn_smarts="[C:1]([N:2](/[C:3](=[N:4]/[H:11])[C:5]#[N:6])[H:10])([H:7])([H:8])[H:9]>>[C:1]([N:2]([H:10])[H:11])([H:7])([H:8])[H:9].[C:3](#[N:4])[C:5]#[N:6]"
C       -1.53929841      -0.11481653       0.01254334
N       -0.17484952      -0.29329532      -0.47439117
C        1.05725653       0.65236965       0.42062530
N        1.04365892       1.71379560      -0.18690068
C        2.05824553      -0.27115425       0.85762053
N        2.88015032      -1.05891983       1.00663754
H       -1.72260494       0.85334167       0.48124114
H       -1.77349879      -0.87769515       0.75450129
H       -2.23967519      -0.15900147      -0.82468214
H        0.02748544      -1.26147686      -0.68514960
H        0.38313011       0.81685250      -1.36204555
11
Frame=13 idx=002302 GeodesicLength=1.2680912432205658 rxn_smarts="[C:1]([N:2](/[C:3](=[N:4]/[H:11])[C:5]#[N:6])[H:10])([H:7])([H:8])[H:9]>>[C:1]([N:2]([H:10])[H:11])([H:7])([H:8])[H:9].[C:3](#[N:4])[C:5]#[N:6]"
C       -1.54999069      -0.10978390       0.00168346
N       -0.17807708      -0.31746150      -0.44957742
C        1.06042668       0.66015867       0.46041044
N        1.01912727       1.71159707      -0.16172260
C        2.08660382      -0.26062183       0.83997473
N        2.91844463      -1.04456830       0.94815554
H       -1.73038205       0.85729780       0.47413302
H       -1.82219725      -0.87185401       0.73125734
H       -2.22889086      -0.13054523      -0.85432518
H        0.01938874      -1.29339647      -0.62352202
H        0.40554680       0.79917770      -1.36646732
11
Frame=14 idx=002302 GeodesicLength=1.3624163130146512 rxn_smarts="[C:1]([N:2](/[C:3](=[N:4]/[H:11])[C:5]#[N:6])[H:10])([H:7])([H:8])[H:9]>>[C:1]([N:2]([H:10])[H:11])([H:7])([H:8])[H:9].[C:3](#[N:4])[C:5]#[N:6]"
C       -1.55961220      -0.10533177      -0.00900699
N       -0.18170000      -0.34183551      -0.42449944
C        1.06509271       0.66786185       0.49932563
N        0.99516856       1.70818200      -0.13757106
C        2.11356205      -0.24941764       0.82120182
N        2.95315458      -1.02942744       0.89046373
H       -1.73711117       0.85995738       0.46859379
H       -1.86994973      -0.86669646       0.70579254
H       -2.21567759      -0.10176093      -0.88324980
H        0.01006835      -1.32444440      -0.56002592
H        0.42700443       0.78291292      -1.37102430
11
Frame=15 idx=002302 GeodesicLength=1.4566205555031488 rxn_smarts="[C:1]([N:2](/[C:3](=[N:4]/[H:11])[C:5]#[N:6])[H:10])([H:7])([H:8])[H:9]>>[C:1]([N:2]([H:10])[H:11])([H:7])([H:8])[H:9].[C:3](#[N:4])[C:5]#[N:6]"
C       -1.56819434      -0.10148442      -0.01953131
N       -0.18571153      -0.36643456      -0.39922883
C        1.07129139       0.67565449       0.53733048
N        0.97182117       1.70365106      -0.11441441
C        2.13895414      -0.23771486       0.80152523
N        2.98446381      -1.01369133       0.83349821
H       -1.74292700       0.86127817       0.46461389
H       -1.91667161      -0.86221790       0.67801770
H       -2.20005222      -0.07269792      -0.91134105
H       -0.00043485      -1.35449868      -0.49445711
H        0.44746105       0.76815595      -1.37601279
11
Frame=16 idx=002302 GeodesicLength=1.550488751774628 rxn_smarts="[C:1]([N:2](/[C:3](=[N:4]/[H:11])[C:5]#[N:6])[H:10])([H:7])([H:8])[H:9]>>[C:1]([N:2]([H:10])[H:11])([H:7])([H:8])[H:9].[C:3](#[N:4])[C:5]#[N:6]"
C       -1.57554957      -0.09837142      -0.02976751
N       -0.19000934      -0.39110306      -0.37400710
C        1.07903074       0.68382050       0.57415378
N        0.94895768       1.69819424      -0.09238718
C        2.16260102      -0.22546354       0.78080885
N        3.01158601      -0.99816813       0.77800174
H       -1.74779297       0.86103851       0.46223056
H       -1.96169823      -0.85848425       0.64818538
H       -2.18200414      -0.04362804      -0.93818222
H       -0.01192563      -1.38309656      -0.42717032
H        0.46680444       0.75526174      -1.38186598
