10
Frame=0 idx=010282 GeodesicLength=0.0 rxn_smarts="[N:1](=[C:2]=[C:7]([C:6](=[O:5])[H:9])[H:10])[H:8].[N:3]#[N:4]>>[N:1](=[C:2]=[N:3][N:4]=[C:7]([C:6](=[O:5])[H:9])[H:10])[H:8]"
N        1.95695816      -0.15261251       0.72935236
C        1.04091381       0.40983861       0.17252323
N        0.52968932       1.41944631      -0.55103633
N       -0.25058315       0.78421641      -1.37115343
O       -1.63159266       0.60741104       1.20577089
C       -1.36668096      -0.34727760       0.53372287
C       -0.59606405      -0.36803649      -0.75648298
H        2.89454770       0.22543127       0.63576474
H       -1.73581849      -1.35827327       0.78953535
H       -0.84136967      -1.22014377      -1.38799670
10
Frame=1 idx=010282 GeodesicLength=0.13656725614269738 rxn_smarts="[N:1](=[C:2]=[C:7]([C:6](=[O:5])[H:9])[H:10])[H:8].[N:3]#[N:4]>>[N:1](=[C:2]=[N:3][N:4]=[C:7]([C:6](=[O:5])[H:9])[H:10])[H:8]"
N        1.97913779      -0.15137848       0.72663396
C        1.04951337       0.39650249       0.17790957
N        0.53699156       1.42745099      -0.56015733
N       -0.25572513       0.80705379      -1.37318227
O       -1.63619373       0.60100190       1.21282798
C       -1.38168679      -0.35378652       0.53620632
C       -0.59481836      -0.37499716      -0.74314395
H        2.91049911       0.23845841       0.62204483
H       -1.78623499      -1.35601300       0.77281142
H       -0.82148282      -1.23429242      -1.37195054
10
Frame=2 idx=010282 GeodesicLength=0.27302394945650327 rxn_smarts="[N:1](=[C:2]=[C:7]([C:6](=[O:5])[H:9])[H:10])[H:8].[N:3]#[N:4]>>[N:1](=[C:2]=[N:3][N:4]=[C:7]([C:6](=[O:5])[H:9])[H:10])[H:8]"
N        2.00157927      -0.14965293       0.72422343
C        1.05859653       0.38250883       0.18294217
N        0.54415402       1.43548020      -0.56957488
N       -0.26084158       0.83008221      -1.37524302
O       -1.64028985       0.59391072       1.22032509
C       -1.39661918      -0.36073699       0.53882316
C       -0.59322121      -0.38276934      -0.72918794
H        2.92632389       0.25207628       0.60845268
H       -1.83725956      -1.35253153       0.75470648
H       -0.80242235      -1.24836745      -1.35546717
10
Frame=3 idx=010282 GeodesicLength=0.40937092821187515 rxn_smarts="[N:1](=[C:2]=[C:7]([C:6](=[O:5])[H:9])[H:10])[H:8].[N:3]#[N:4]>>[N:1](=[C:2]=[N:3][N:4]=[C:7]([C:6](=[O:5])[H:9])[H:10])[H:8]"
N        2.02429375      -0.14742124       0.72212730
C        1.06815365       0.36782065       0.18767074
N        0.55113485       1.44354872      -0.57922545
N       -0.26593218       0.85333621      -1.37731952
O       -1.64394337       0.58610957       1.22824658
C       -1.41152904      -0.36813353       0.54155648
C       -0.59126120      -0.39138262      -0.71456674
H        2.94201753       0.26625429       0.59487755
H       -1.88878450      -1.34766781       0.73517247
H       -0.78414949      -1.26246424      -1.33853941
10
Frame=4 idx=010282 GeodesicLength=0.5456133320070613 rxn_smarts="[N:1](=[C:2]=[C:7]([C:6](=[O:5])[H:9])[H:10])[H:8].[N:3]#[N:4]>>[N:1](=[C:2]=[N:3][N:4]=[C:7]([C:6](=[O:5])[H:9])[H:10])[H:8]"
N        2.04716643      -0.14470587       0.72043930
C        1.07812002       0.35239011       0.19214654
N        0.55791377       1.45169710      -0.58905290
N       -0.27096478       0.87691704      -1.37944877
O       -1.64731073       0.57765415       1.23647774
C       -1.42656434      -0.37588229       0.54426827
C       -0.58897160      -0.40080736      -0.69931146
H        2.95749704       0.28080308       0.58124035
H       -1.94019519      -1.34146321       0.71448918
H       -0.76669062      -1.27660276      -1.32124826
10
Frame=5 idx=010282 GeodesicLength=0.6817451043588967 rxn_smarts="[N:1](=[C:2]=[C:7]([C:6](=[O:5])[H:9])[H:10])[H:8].[N:3]#[N:4]>>[N:1](=[C:2]=[N:3][N:4]=[C:7]([C:6](=[O:5])[H:9])[H:10])[H:8]"
N        2.07029214      -0.14143130       0.71910612
C        1.08855161       0.33618828       0.19638268
N        0.56442765       1.45992228      -0.59900511
N       -0.27598365       0.90080885      -1.38157880
O       -1.65034165       0.56843426       1.24510227
C       -1.44165875      -0.38407556       0.54705346
C       -0.58630223      -0.41113703      -0.68329765
H        2.97280889       0.29582103       0.56742103
H       -1.99184426      -1.33359599       0.69230980
H       -0.74994976      -1.29093481      -1.30349380
10
Frame=6 idx=010282 GeodesicLength=0.8177688282278402 rxn_smarts="[N:1](=[C:2]=[C:7]([C:6](=[O:5])[H:9])[H:10])[H:8].[N:3]#[N:4]>>[N:1](=[C:2]=[N:3][N:4]=[C:7]([C:6](=[O:5])[H:9])[H:10])[H:8]"
N        2.09351217      -0.13770232       0.71816539
C        1.09939238       0.31912148       0.20034155
N        0.57069006       1.46825733      -0.60908120
N       -0.28096950       0.92515721      -1.38379197
O       -1.65316382       0.55855483       1.25398713
C       -1.45695845      -0.39255687       0.54973473
C       -0.58333149      -0.42231476      -0.66660790
H        2.98780399       0.31116414       0.55357323
H       -2.04291849      -1.32426154       0.66909849
H       -0.73405686      -1.30541950      -1.28541946
10
Frame=7 idx=010282 GeodesicLength=0.9536900381992692 rxn_smarts="[N:1](=[C:2]=[C:7]([C:6](=[O:5])[H:9])[H:10])[H:8].[N:3]#[N:4]>>[N:1](=[C:2]=[N:3][N:4]=[C:7]([C:6](=[O:5])[H:9])[H:10])[H:8]"
N        2.11681081      -0.13343680       0.71767002
C        1.11066338       0.30116443       0.20403151
N        0.57665382       1.47673108      -0.61924032
N       -0.28594299       0.95000962      -1.38607869
O       -1.65580273       0.54797859       1.26313646
C       -1.47245110      -0.40133603       0.55232143
C       -0.58003461      -0.43439234      -0.64917133
H        3.00248153       0.32677101       0.53956052
H       -2.09342882      -1.31334051       0.64475941
H       -0.71894930      -1.32014904      -1.26698900
10
Frame=8 idx=010282 GeodesicLength=1.089530197676536 rxn_smarts="[N:1](=[C:2]=[C:7]([C:6](=[O:5])[H:9])[H:10])[H:8].[N:3]#[N:4]>>[N:1](=[C:2]=[N:3][N:4]=[C:7]([C:6](=[O:5])[H:9])[H:10])[H:8]"
N        2.14014284      -0.12876087       0.71749456
C        1.12238890       0.28217917       0.20731921
N        0.58234915       1.48533621      -0.62953005
N       -0.29093009       0.97547663      -1.38850161
O       -1.65824192       0.53674681       1.27253866
C       -1.48816742      -0.41032644       0.55475602
C       -0.57647965      -0.44737500      -0.63101639
H        3.01673051       0.34275675       0.52571811
H       -2.14302705      -1.30090252       0.61952138
H       -0.70476526      -1.33513073      -1.24829990
10
Frame=9 idx=010282 GeodesicLength=1.2252152256072766 rxn_smarts="[N:1](=[C:2]=[C:7]([C:6](=[O:5])[H:9])[H:10])[H:8].[N:3]#[N:4]>>[N:1](=[C:2]=[N:3][N:4]=[C:7]([C:6](=[O:5])[H:9])[H:10])[H:8]"
N        2.16333814      -0.12324019       0.71816610
C        1.13454645       0.26229260       0.21035565
N        0.58761763       1.49418306      -0.63981736
N       -0.29595838       1.00161960      -1.39099706
O       -1.66061987       0.52480191       1.28208612
C       -1.50405350      -0.41956738       0.55701990
C       -0.57254434      -0.46132064      -0.61201684
H        3.03062418       0.35852856       0.51124200
H       -2.19172311      -1.28683821       0.59319121
H       -0.69122720      -1.35045932      -1.22922972
10
Frame=10 idx=010282 GeodesicLength=1.3608171307207986 rxn_smarts="[N:1](=[C:2]=[C:7]([C:6](=[O:5])[H:9])[H:10])[H:8].[N:3]#[N:4]>>[N:1](=[C:2]=[N:3][N:4]=[C:7]([C:6](=[O:5])[H:9])[H:10])[H:8]"
N        2.18637802      -0.11729670       0.71921963
C        1.14719306       0.24122978       0.21282882
N        0.59259190       1.50321240      -0.65026567
N       -0.30105670       1.02860866      -1.39370135
O       -1.66287194       0.51227961       1.29177357
C       -1.52013417      -0.42890117       0.55905869
C       -0.56839218      -0.47621207      -0.59228078
H        3.04395921       0.37454413       0.49709622
H       -2.23896827      -1.27139054       0.56627737
H       -0.67869892      -1.36607409      -1.21000649
10
Frame=11 idx=010282 GeodesicLength=1.496313241992002 rxn_smarts="[N:1](=[C:2]=[C:7]([C:6](=[O:5])[H:9])[H:10])[H:8].[N:3]#[N:4]>>[N:1](=[C:2]=[N:3][N:4]=[C:7]([C:6](=[O:5])[H:9])[H:10])[H:8]"
N        2.20911033      -0.11072852       0.72090513
C        1.16034178       0.21898734       0.21472052
N        0.59721361       1.51248521      -0.66085209
N       -0.30625892       1.05656539      -1.39661301
O       -1.66505896       0.49919678       1.30152864
C       -1.53636031      -0.43830033       0.56085027
C       -0.56398556      -0.49209145      -0.57175175
H        3.05672899       0.39050868       0.48302218
H       -2.28463589      -1.25461092       0.53881775
H       -0.66709507      -1.38201218      -1.19062763
10
Frame=12 idx=010282 GeodesicLength=1.6316943401279578 rxn_smarts="[N:1](=[C:2]=[C:7]([C:6](=[O:5])[H:9])[H:10])[H:8].[N:3]#[N:4]>>[N:1](=[C:2]=[N:3][N:4]=[C:7]([C:6](=[O:5])[H:9])[H:10])[H:8]"
N        2.23139727      -0.10353408       0.72324680
C        1.17404155       0.19543715       0.21583956
N        0.60148982       1.52200324      -0.67165622
N       -0.31162683       1.08564653      -1.39977627
O       -1.66713836       0.48561303       1.31130804
C       -1.55265840      -0.44770027       0.56238250
C       -0.55935680      -0.50899460      -0.55043729
H        3.06885090       0.40641072       0.46926259
H       -2.32849028      -1.23661793       0.51102240
H       -0.65650887      -1.39826380      -1.17119213
10
Frame=13 idx=010282 GeodesicLength=1.7669657616720966 rxn_smarts="[N:1](=[C:2]=[C:7]([C:6](=[O:5])[H:9])[H:10])[H:8].[N:3]#[N:4]>>[N:1](=[C:2]=[N:3][N:4]=[C:7]([C:6](=[O:5])[H:9])[H:10])[H:8]"
N        2.25309588      -0.09563567       0.72629608
C        1.18835969       0.17047885       0.21601905
N        0.60540138       1.53177361      -0.68274560
N       -0.31723248       1.11599200      -1.40320734
O       -1.66904565       0.47154793       1.32110923
C       -1.56892056      -0.45709218       0.56369526
C       -0.55449512      -0.52700185      -0.52829417
H        3.08027128       0.42221090       0.45593840
H       -2.37047964      -1.21740959       0.48293610
H       -0.64695479      -1.41486399      -1.15174699
10
Frame=14 idx=010282 GeodesicLength=1.9021170018303146 rxn_smarts="[N:1](=[C:2]=[C:7]([C:6](=[O:5])[H:9])[H:10])[H:8].[N:3]#[N:4]>>[N:1](=[C:2]=[N:3][N:4]=[C:7]([C:6](=[O:5])[H:9])[H:10])[H:8]"
N        2.27399608      -0.08715744       0.72998061
C        1.20340539       0.14384864       0.21482010
N        0.60899511       1.54173097      -0.69433825
N       -0.32319136       1.14780243      -1.40697935
O       -1.67054306       0.45707304       1.33094937
C       -1.58499001      -0.46640286       0.56482022
C       -0.54946514      -0.54618253      -0.50539325
H        3.09081656       0.43815515       0.44374843
H       -2.41035806      -1.19708920       0.45489174
H       -0.63866553      -1.43177820      -1.13249962
10
Frame=15 idx=010282 GeodesicLength=2.037139769506381 rxn_smarts="[N:1](=[C:2]=[C:7]([C:6](=[O:5])[H:9])[H:10])[H:8].[N:3]#[N:4]>>[N:1](=[C:2]=[N:3][N:4]=[C:7]([C:6](=[O:5])[H:9])[H:10])[H:8]"
N        2.29386363      -0.07817826       0.73423762
C        1.21930708       0.11531283       0.21183032
N        0.61228378       1.55180458      -0.70664331
N       -0.32962471       1.18125128      -1.41112832
O       -1.67135623       0.44220733       1.34089069
C       -1.60067205      -0.47561905       0.56584832
C       -0.54427159      -0.56666318      -0.48174259
H        3.10031168       0.45449477       0.43326472
H       -2.44807040      -1.17558454       0.42702974
H       -0.63177118      -1.44902575      -1.11358719
10
Frame=16 idx=010282 GeodesicLength=2.172024571469569 rxn_smarts="[N:1](=[C:2]=[C:7]([C:6](=[O:5])[H:9])[H:10])[H:8].[N:3]#[N:4]>>[N:1](=[C:2]=[N:3][N:4]=[C:7]([C:6](=[O:5])[H:9])[H:10])[H:8]"
N        2.31238514      -0.06888184       0.73896250
C        1.23619071       0.08460875       0.20658224
N        0.61529810       1.56191341      -0.71991349
N       -0.33663553       1.21655300      -1.41570045
O       -1.67118796       0.42702348       1.35096423
C       -1.61575830      -0.48468686       0.56685706
C       -0.53891291      -0.58857490      -0.45737635
H        3.10848659       0.47153997       0.42518392
H       -2.48345192      -1.15289154       0.39962730
H       -0.62641392      -1.46660347      -1.09518696
