16
Frame=0 idx=007254 GeodesicLength=0.0 rxn_smarts="[C:1]([C:2]1([C:3]([H:11])([H:12])[H:13])[C:4]([H:14])([H:15])[O:5][C:6]([H:16])=[N:7]1)([H:8])([H:9])[H:10]>>[C:1](/[C:2]([C:4]([C:3]([H:11])([H:12])[H:13])([H:14])[H:15])=[N:7]/[C:6](=[O:5])[H:16])([H:8])([H:9])[H:10]"
C        0.85064119       1.28664338       0.60455653
C        0.05384390       0.18663887      -0.05630072
C        1.14981327      -1.05362986      -0.55991378
C       -0.35029564      -0.90789336       0.71535355
O       -2.47132165       0.08583174       0.39963828
C       -2.04204873       0.52318579      -0.68794339
N       -0.77633955       0.57478883      -1.10411282
H        1.35008071       1.88236235      -0.15847830
H        1.58802307       0.91300830       1.31855009
H        0.14710705       1.93271191       1.13163250
H        1.80065670      -1.53072655       0.17061285
H        0.67742514      -1.75685055      -1.23634325
H        1.74825900      -0.35421883      -1.14139954
H       -1.00175246      -1.65483592       0.29300518
H        0.03570240      -1.07162740       1.71655514
H       -2.75979445       0.94461135      -1.40541235
16
Frame=1 idx=007254 GeodesicLength=0.055875309478597895 rxn_smarts="[C:1]([C:2]1([C:3]([H:11])([H:12])[H:13])[C:4]([H:14])([H:15])[O:5][C:6]([H:16])=[N:7]1)([H:8])([H:9])[H:10]>>[C:1](/[C:2]([C:4]([C:3]([H:11])([H:12])[H:13])([H:14])[H:15])=[N:7]/[C:6](=[O:5])[H:16])([H:8])([H:9])[H:10]"
C        0.85741629       1.29537952       0.61011621
C        0.05835140       0.20223628      -0.05832975
C        1.14296409      -1.05982193      -0.56167785
C       -0.35501350      -0.89765155       0.71223345
O       -2.46485238       0.07308360       0.39692253
C       -2.04231870       0.52289940      -0.69004335
N       -0.77577132       0.59963854      -1.09668782
H        1.34797919       1.90229335      -0.14981814
H        1.60375898       0.91474483       1.31096701
H        0.15882693       1.93056268       1.15682705
H        1.78708231      -1.55811392       0.16089762
H        0.66295898      -1.74725655      -1.24958938
H        1.76082274      -0.37110755      -1.13608703
H       -0.99763485      -1.65740397       0.29861758
H        0.02436290      -1.04967632       1.71812118
H       -2.76893307       0.90019359      -1.42246933
16
Frame=2 idx=007254 GeodesicLength=0.11170152645393872 rxn_smarts="[C:1]([C:2]1([C:3]([H:11])([H:12])[H:13])[C:4]([H:14])([H:15])[O:5][C:6]([H:16])=[N:7]1)([H:8])([H:9])[H:10]>>[C:1](/[C:2]([C:4]([C:3]([H:11])([H:12])[H:13])([H:14])[H:15])=[N:7]/[C:6](=[O:5])[H:16])([H:8])([H:9])[H:10]"
C        0.86400511       1.30421254       0.61578868
C        0.06283541       0.21792439      -0.06030705
C        1.13574860      -1.06588814      -0.56363504
C       -0.35966827      -0.88737443       0.70918381
O       -2.45820771       0.06097186       0.39420239
C       -2.04255469       0.52254220      -0.69235231
N       -0.77552039       0.62461418      -1.08880638
H        1.34534161       1.92269222      -0.14068352
H        1.61941492       0.91668130       1.30300342
H        0.17058171       1.92786989       1.18218123
H        1.77268290      -1.58554670       0.15051036
H        0.64830472      -1.73716986      -1.26288849
H        1.77276731      -0.38835284      -1.13087899
H       -0.99355956      -1.65982500       0.30500384
H        0.01339973      -1.02781341       1.71943457
H       -2.77557139       0.85446180      -1.43975653
16
Frame=3 idx=007254 GeodesicLength=0.16734262121173288 rxn_smarts="[C:1]([C:2]1([C:3]([H:11])([H:12])[H:13])[C:4]([H:14])([H:15])[O:5][C:6]([H:16])=[N:7]1)([H:8])([H:9])[H:10]>>[C:1](/[C:2]([C:4]([C:3]([H:11])([H:12])[H:13])([H:14])[H:15])=[N:7]/[C:6](=[O:5])[H:16])([H:8])([H:9])[H:10]"
C        0.86992029       1.31316010       0.62113900
C        0.06723586       0.23327660      -0.06247596
C        1.12857941      -1.07206157      -0.56549503
C       -0.36408738      -0.87740646       0.70620958
O       -2.45146676       0.04838327       0.39096931
C       -2.04277401       0.52092546      -0.69538650
N       -0.77565109       0.64872898      -1.08092449
H        1.34163281       1.94345865      -0.13160109
H        1.63447004       0.91928295       1.29449055
H        0.18161400       1.92464170       1.20690118
H        1.75793569      -1.61281722       0.13996812
H        0.63418631      -1.72719070      -1.27582082
H        1.78435944      -0.40614510      -1.12558684
H       -0.98906046      -1.66271753       0.31227459
H        0.00288193      -1.00599001       1.72059849
H       -2.77977606       0.81247087      -1.45526009
16
Frame=4 idx=007254 GeodesicLength=0.22299608687514433 rxn_smarts="[C:1]([C:2]1([C:3]([H:11])([H:12])[H:13])[C:4]([H:14])([H:15])[O:5][C:6]([H:16])=[N:7]1)([H:8])([H:9])[H:10]>>[C:1](/[C:2]([C:4]([C:3]([H:11])([H:12])[H:13])([H:14])[H:15])=[N:7]/[C:6](=[O:5])[H:16])([H:8])([H:9])[H:10]"
C        0.87578237       1.32219296       0.62669708
C        0.07162950       0.24881940      -0.06454708
C        1.12095679      -1.07806509      -0.56759841
C       -0.36849168      -0.86732962       0.70330109
O       -2.44456423       0.03663656       0.38784013
C       -2.04289765       0.51951106      -0.69850316
N       -0.77609344       0.67319941      -1.07245620
H        1.33752942       1.96466980      -0.12188591
H        1.64956271       0.92200957       1.28562426
H        0.19291470       1.92087303       1.23190025
H        1.74223524      -1.64013871       0.12862976
H        0.61971627      -1.71660023      -1.28886351
H        1.79524772      -0.42426578      -1.12046767
H       -0.98469540      -1.66528477       0.32027397
H       -0.00729858      -0.98427387       1.72150516
H       -2.78153374       0.76804629      -1.47144976
16
Frame=5 idx=007254 GeodesicLength=0.27858463907047437 rxn_smarts="[C:1]([C:2]1([C:3]([H:11])([H:12])[H:13])[C:4]([H:14])([H:15])[O:5][C:6]([H:16])=[N:7]1)([H:8])([H:9])[H:10]>>[C:1](/[C:2]([C:4]([C:3]([H:11])([H:12])[H:13])([H:14])[H:15])=[N:7]/[C:6](=[O:5])[H:16])([H:8])([H:9])[H:10]"
C        0.88112220       1.33134294       0.63202394
C        0.07596224       0.26411262      -0.06674094
C        1.11332443      -1.08416427      -0.56962636
C       -0.37266807      -0.85750361       0.70052319
O       -2.43763237       0.02437099       0.38420889
C       -2.04293400       0.51700489      -0.70223934
N       -0.77691308       0.69700242      -1.06385701
H        1.33240883       1.98629791      -0.11208966
H        1.66428972       0.92535484       1.27614251
H        0.20378231       1.91653769       1.25649665
H        1.72609447      -1.66736796       0.11705330
H        0.60563517      -1.70603996      -1.30158322
H        1.80573361      -0.44292805      -1.11531252
H       -0.97988974      -1.66822176       0.32921673
H       -0.01704792      -0.96256112       1.72233140
H       -2.78126781       0.72676241      -1.48654756
16
Frame=6 idx=007254 GeodesicLength=0.3341593079030916 rxn_smarts="[C:1]([C:2]1([C:3]([H:11])([H:12])[H:13])[C:4]([H:14])([H:15])[O:5][C:6]([H:16])=[N:7]1)([H:8])([H:9])[H:10]>>[C:1](/[C:2]([C:4]([C:3]([H:11])([H:12])[H:13])([H:14])[H:15])=[N:7]/[C:6](=[O:5])[H:16])([H:8])([H:9])[H:10]"
C        0.88624188       1.34057958       0.63739941
C        0.08027163       0.27944413      -0.06892430
C        1.10540777      -1.09020325      -0.57177084
C       -0.37674670      -0.84769769       0.69781503
O       -2.43056424       0.01246385       0.38046655
C       -2.04281773       0.51432589      -0.70619806
N       -0.77808181       0.72080544      -1.05480341
H        1.32668199       2.00829068      -0.10182244
H        1.67886434       0.92901335       1.26623278
H        0.21469578       1.91168105       1.28105420
H        1.70917807      -1.69458831       0.10486028
H        0.59148765      -1.69511349      -1.31423297
H        1.81561023      -0.46201895      -1.11025087
H       -0.97499031      -1.67102634       0.33891938
H       -0.02644130      -0.94092479       1.72295326
H       -2.77879723       0.68496885      -1.50169803
16
Frame=7 idx=007254 GeodesicLength=0.38977105660690525 rxn_smarts="[C:1]([C:2]1([C:3]([H:11])([H:12])[H:13])[C:4]([H:14])([H:15])[O:5][C:6]([H:16])=[N:7]1)([H:8])([H:9])[H:10]>>[C:1](/[C:2]([C:4]([C:3]([H:11])([H:12])[H:13])([H:14])[H:15])=[N:7]/[C:6](=[O:5])[H:16])([H:8])([H:9])[H:10]"
C        0.89122036       1.34990767       0.64285679
C        0.08455757       0.29485273      -0.07106239
C        1.09714958      -1.09615233      -0.57404698
C       -0.38075570      -0.83788470       0.69521508
O       -2.42342264       0.00085865       0.37662694
C       -2.04255545       0.51152482      -0.71033369
N       -0.77961238       0.74467340      -1.04521809
H        1.32037598       2.03069633      -0.09102283
H        1.69341441       0.93298684       1.25582121
H        0.22581423       1.90625012       1.30568449
H        1.69139868      -1.72177881       0.09200587
H        0.57716821      -1.68376046      -1.32682614
H        1.82482007      -0.48151046      -1.10533410
H       -0.97003061      -1.67365666       0.34941684
H       -0.03549540      -0.91934306       1.72342077
H       -2.77404691       0.64233593      -1.51720377
16
Frame=8 idx=007254 GeodesicLength=0.44537948044781467 rxn_smarts="[C:1]([C:2]1([C:3]([H:11])([H:12])[H:13])[C:4]([H:14])([H:15])[O:5][C:6]([H:16])=[N:7]1)([H:8])([H:9])[H:10]>>[C:1](/[C:2]([C:4]([C:3]([H:11])([H:12])[H:13])([H:14])[H:15])=[N:7]/[C:6](=[O:5])[H:16])([H:8])([H:9])[H:10]"
C        0.89576977       1.35934368       0.64812248
C        0.08879819       0.31005833      -0.07330657
C        1.08887329      -1.10220829      -0.57623278
C       -0.38454606      -0.82829985       0.69275392
O       -2.41626380      -0.01132282       0.37225416
C       -2.04211129       0.50783995      -0.71499054
N       -0.78152923       0.76796578      -1.03541904
H        1.31309380       2.05347902      -0.08003281
H        1.70768924       0.93758178       1.24475848
H        0.23671112       1.90025650       1.32995057
H        1.67312006      -1.74890114       0.07887798
H        0.56319642      -1.67241440      -1.33909917
H        1.83361744      -0.50155654      -1.10037969
H       -0.96460555      -1.67653408       0.36084061
H       -0.04417483      -0.89775168       1.72383654
H       -2.76763858       0.60246373      -1.53193412
16
Frame=9 idx=007254 GeodesicLength=0.5010819052382783 rxn_smarts="[C:1]([C:2]1([C:3]([H:11])([H:12])[H:13])[C:4]([H:14])([H:15])[O:5][C:6]([H:16])=[N:7]1)([H:8])([H:9])[H:10]>>[C:1](/[C:2]([C:4]([C:3]([H:11])([H:12])[H:13])([H:14])[H:15])=[N:7]/[C:6](=[O:5])[H:16])([H:8])([H:9])[H:10]"
C        0.90007664       1.36887911       0.65336495
C        0.09300461       0.32525315      -0.07555692
C        1.08036446      -1.10826828      -0.57845463
C       -0.38820410      -0.81878099       0.69042225
O       -2.40903540      -0.02361198       0.36754846
C       -2.04143812       0.50372497      -0.71998777
N       -0.78383638       0.79110549      -1.02516175
H        1.30502979       2.07664187      -0.06859688
H        1.72186097       0.94264226       1.23309293
H        0.24772700       1.89370162       1.35411689
H        1.65404777      -1.77602689       0.06518707
H        0.54923245      -1.66077739      -1.35121989
H        1.84183569      -0.52209913      -1.09546793
H       -0.95892125      -1.67935039       0.37312296
H       -0.05253480      -0.87613372       1.72415977
H       -2.75920932       0.56310030      -1.54656951
16
Frame=10 idx=007254 GeodesicLength=0.556875634723278 rxn_smarts="[C:1]([C:2]1([C:3]([H:11])([H:12])[H:13])[C:4]([H:14])([H:15])[O:5][C:6]([H:16])=[N:7]1)([H:8])([H:9])[H:10]>>[C:1](/[C:2]([C:4]([C:3]([H:11])([H:12])[H:13])([H:14])[H:15])=[N:7]/[C:6](=[O:5])[H:16])([H:8])([H:9])[H:10]"
C        0.90420729       1.37851234       0.65862577
C        0.09717390       0.34047510      -0.07779234
C        1.07158359      -1.11430696      -0.58072808
C       -0.39175785      -0.80931304       0.68822510
O       -2.40175201      -0.03592110       0.36259562
C       -2.04055684       0.49939397      -0.72519717
N       -0.78654904       0.81416412      -1.01437669
H        1.29625556       2.10018177      -0.05663701
H        1.73598342       0.94814475       1.22080130
H        0.25899682       1.88656602       1.37824555
H        1.63414091      -1.80310277       0.05091653
H        0.53521115      -1.64883138      -1.36319230
H        1.84941029      -0.54310188      -1.09066467
H       -0.95303200      -1.68202409       0.38622670
H       -0.06058378      -0.85454077       1.72439079
H       -2.74873140       0.52370391      -1.56143909
16
Frame=11 idx=007254 GeodesicLength=0.6127691047588013 rxn_smarts="[C:1]([C:2]1([C:3]([H:11])([H:12])[H:13])[C:4]([H:14])([H:15])[O:5][C:6]([H:16])=[N:7]1)([H:8])([H:9])[H:10]>>[C:1](/[C:2]([C:4]([C:3]([H:11])([H:12])[H:13])([H:14])[H:15])=[N:7]/[C:6](=[O:5])[H:16])([H:8])([H:9])[H:10]"
C        0.90809695       1.38823506       0.66383497
C        0.10129628       0.35565889      -0.08004293
C        1.06261123      -1.12037574      -0.58298778
C       -0.39516761      -0.79994995       0.68618235
O       -2.39442841      -0.04852397       0.35726132
C       -2.03944116       0.49465637      -0.73071105
N       -0.78968814       0.83696788      -1.00310479
H        1.28664746       2.12405137      -0.04420782
H        1.75000544       0.95419646       1.20782017
H        0.27045811       1.87883590       1.40219709
H        1.61346598      -1.83010748       0.03614035
H        0.52126365      -1.63666348      -1.37493810
H        1.85640331      -0.56462292      -1.08592570
H       -0.94681089      -1.68465187       0.40020554
H       -0.06833476      -0.83292327       1.72456934
H       -2.73637743       0.48521675      -1.57629296
16
Frame=12 idx=007254 GeodesicLength=0.6688804180229083 rxn_smarts="[C:1]([C:2]1([C:3]([H:11])([H:12])[H:13])[C:4]([H:14])([H:15])[O:5][C:6]([H:16])=[N:7]1)([H:8])([H:9])[H:10]>>[C:1](/[C:2]([C:4]([C:3]([H:11])([H:12])[H:13])([H:14])[H:15])=[N:7]/[C:6](=[O:5])[H:16])([H:8])([H:9])[H:10]"
C        0.91190034       1.39805569       0.66911915
C        0.10536657       0.37096977      -0.08223934
C        1.05323192      -1.12638118      -0.58535169
C       -0.39852553      -0.79054698       0.68428890
O       -2.38704087      -0.06102221       0.35168759
C       -2.03807758       0.48982943      -0.73642046
N       -0.79328237       0.85988649      -0.99114772
H        1.27636164       2.14829899      -0.03110935
H        1.76406294       0.96065474       1.19414455
H        0.28241026       1.87050954       1.42622277
H        1.59171644      -1.85710938       0.02060804
H        0.50706947      -1.62399459      -1.38663286
H        1.86265658      -0.58658870      -1.08129171
H       -0.94047220      -1.68693298       0.41498441
H       -0.07584071      -0.81126789       1.72467665
H       -2.72153688       0.44563924      -1.59153892
16
Frame=13 idx=007254 GeodesicLength=0.7251635152643884 rxn_smarts="[C:1]([C:2]1([C:3]([H:11])([H:12])[H:13])[C:4]([H:14])([H:15])[O:5][C:6]([H:16])=[N:7]1)([H:8])([H:9])[H:10]>>[C:1](/[C:2]([C:4]([C:3]([H:11])([H:12])[H:13])([H:14])[H:15])=[N:7]/[C:6](=[O:5])[H:16])([H:8])([H:9])[H:10]"
C        0.91547969       1.40796903       0.67435059
C        0.10937038       0.38626248      -0.08445407
C        1.04363814      -1.13242881      -0.58769926
C       -0.40175951      -0.78125058       0.68255616
O       -2.37960497      -0.07380628       0.34574900
C       -2.03646936       0.48472002      -0.74238065
N       -0.79734981       0.88256080      -0.97864403
H        1.26522867       2.17283678      -0.01748492
H        1.77800541       0.96770107       1.17972645
H        0.29466020       1.86159680       1.45004493
H        1.56912587      -1.88402363       0.00454039
H        0.49294354      -1.61109272      -1.39811073
H        1.86829156      -0.60908070      -1.07672838
H       -0.93381697      -1.68909017       0.43059303
H       -0.08308925      -0.78960129       1.72474922
H       -2.70465358       0.40672722      -1.60680773
16
Frame=14 idx=007254 GeodesicLength=0.7815179350068475 rxn_smarts="[C:1]([C:2]1([C:3]([H:11])([H:12])[H:13])[C:4]([H:14])([H:15])[O:5][C:6]([H:16])=[N:7]1)([H:8])([H:9])[H:10]>>[C:1](/[C:2]([C:4]([C:3]([H:11])([H:12])[H:13])([H:14])[H:15])=[N:7]/[C:6](=[O:5])[H:16])([H:8])([H:9])[H:10]"
C        0.91877165       1.41795980       0.67944712
C        0.11331116       0.40143689      -0.08673846
C        1.03395449      -1.13858017      -0.58993147
C       -0.40482285      -0.77215082       0.68096303
O       -2.37208044      -0.08715764       0.33932803
C       -2.03457536       0.47923364      -0.74858494
N       -0.80188017       0.90474968      -0.96568917
H        1.25317298       2.19757368      -0.00341940
H        1.79173431       0.97543025       1.16454550
H        0.30713197       1.85211776       1.47348077
H        1.54585839      -1.91076710      -0.01188217
H        0.47908195      -1.59813772      -1.40925011
H        1.87338993      -0.63212173      -1.07215079
H       -0.92673578      -1.69120367       0.44699282
H       -0.09008500      -0.76794007       1.72477164
H       -2.68622722       0.36955721      -1.62188240
16
Frame=15 idx=007254 GeodesicLength=0.838056554191345 rxn_smarts="[C:1]([C:2]1([C:3]([H:11])([H:12])[H:13])[C:4]([H:14])([H:15])[O:5][C:6]([H:16])=[N:7]1)([H:8])([H:9])[H:10]>>[C:1](/[C:2]([C:4]([C:3]([H:11])([H:12])[H:13])([H:14])[H:15])=[N:7]/[C:6](=[O:5])[H:16])([H:8])([H:9])[H:10]"
C        0.92184928       1.42802596       0.68448157
C        0.11717451       0.41660104      -0.08905394
C        1.02404969      -1.14478048      -0.59213416
C       -0.40777510      -0.76315406       0.67951979
O       -2.36444964      -0.10076503       0.33256531
C       -2.03240097       0.47356209      -0.75497508
N       -0.80690132       0.92667214      -0.95215077
H        1.24028759       2.22249517       0.01120804
H        1.80529498       0.98377395       1.14861493
H        0.31996845       1.84207585       1.49663739
H        1.52168694      -1.93739413      -0.02886738
H        0.46532288      -1.58492141      -1.42019255
H        1.87786098      -0.65568783      -1.06759328
H       -0.91935964      -1.69308355       0.46413650
H       -0.09687591      -0.74627321       1.72475119
H       -2.66573270       0.33285350      -1.63694758
16
Frame=16 idx=007254 GeodesicLength=0.8947017993157095 rxn_smarts="[C:1]([C:2]1([C:3]([H:11])([H:12])[H:13])[C:4]([H:14])([H:15])[O:5][C:6]([H:16])=[N:7]1)([H:8])([H:9])[H:10]>>[C:1](/[C:2]([C:4]([C:3]([H:11])([H:12])[H:13])([H:14])[H:15])=[N:7]/[C:6](=[O:5])[H:16])([H:8])([H:9])[H:10]"
C        0.92464421       1.43816319       0.68936144
C        0.12096395       0.43164278      -0.09145610
C        1.01409077      -1.15112019      -0.59418990
C       -0.41055746      -0.75438078       0.67821929
O       -2.35669503      -0.11497797       0.32532392
C       -2.02993259       0.46760789      -0.76155378
N       -0.81239774       0.94806367      -0.93815210
H        1.22648355       2.24752833       0.02629265
H        1.81859774       0.99284719       1.13190005
H        0.33308712       1.83150114       1.51932703
H        1.49684526      -1.96383529      -0.04617970
H        0.45191460      -1.57168305      -1.43079590
H        1.88182879      -0.67981490      -1.06297311
H       -0.91154427      -1.69487133       0.48201093
H       -0.10346674      -0.72463264       1.72469371
H       -2.64386216       0.29796196      -1.65182843
