11
Frame=0 idx=001113 GeodesicLength=0.0 rxn_smarts="[C:1](/[C:2](=[N:3]/[H:10])[O:4][C:5](=[O:6])[H:11])([H:7])([H:8])[H:9]>>[C:1]1([H:7])([H:8])[C:2](=[O:4])[N:3]1[H:10].[C:5](=[O:6])([H:9])[H:11]"
C       -0.67413372      -0.24429564       0.70739888
C       -0.03335443       0.98761166       0.20023300
N       -0.80594637       1.84884447       0.78585997
O        1.00955034       0.96263754      -0.46624978
C        0.75665505      -1.25764044      -1.14494977
O        0.38862861      -1.38381012      -2.24809405
H       -1.72845812      -0.42549050       0.53006893
H       -0.23730703      -0.70721571       1.58890557
H       -0.07510600      -1.20063689      -0.24903125
H       -0.36507129       2.73721702       1.01398135
H        1.76454298      -1.31722135      -0.71812283
11
Frame=1 idx=001113 GeodesicLength=0.14482182887997427 rxn_smarts="[C:1](/[C:2](=[N:3]/[H:10])[O:4][C:5](=[O:6])[H:11])([H:7])([H:8])[H:9]>>[C:1]1([H:7])([H:8])[C:2](=[O:4])[N:3]1[H:10].[C:5](=[O:6])([H:9])[H:11]"
C       -0.69725769      -0.23509671       0.71631251
C       -0.02164148       0.97488797       0.21276881
N       -0.79036065       1.84689528       0.78582739
O        1.02040535       0.94479709      -0.46047058
C        0.78408990      -1.23457102      -1.15045392
O        0.35764955      -1.35676337      -2.23484694
H       -1.76061106      -0.39983966       0.57072257
H       -0.32555293      -0.77283736       1.58430684
H       -0.02082115      -1.22675663      -0.18787422
H       -0.36348314       2.75507566       0.95261320
H        1.81758331      -1.29579124      -0.78890564
11
Frame=2 idx=001113 GeodesicLength=0.2888376165849794 rxn_smarts="[C:1](/[C:2](=[N:3]/[H:10])[O:4][C:5](=[O:6])[H:11])([H:7])([H:8])[H:9]>>[C:1]1([H:7])([H:8])[C:2](=[O:4])[N:3]1[H:10].[C:5](=[O:6])([H:9])[H:11]"
C       -0.72034576      -0.22664704       0.72296642
C       -0.01112732       0.96232977       0.22500514
N       -0.77136480       1.84425100       0.79325240
O        1.02483865       0.93001072      -0.46317561
C        0.81263072      -1.21389995      -1.15354818
O        0.32919016      -1.34156303      -2.21527560
H       -1.79265548      -0.36906525       0.60966406
H       -0.41936026      -0.83760397       1.56923501
H        0.03890787      -1.24743173      -0.12480508
H       -0.35941666       2.76807149       0.89778896
H        1.86870289      -1.26845203      -0.86110751
11
Frame=3 idx=001113 GeodesicLength=0.4319399676734599 rxn_smarts="[C:1](/[C:2](=[N:3]/[H:10])[O:4][C:5](=[O:6])[H:11])([H:7])([H:8])[H:9]>>[C:1]1([H:7])([H:8])[C:2](=[O:4])[N:3]1[H:10].[C:5](=[O:6])([H:9])[H:11]"
C       -0.74427652      -0.21849778       0.72624461
C       -0.00385161       0.95055857       0.23402644
N       -0.74722854       1.84107311       0.81166506
O        1.01896426       0.91951117      -0.47950659
C        0.84306222      -1.19630788      -1.15378558
O        0.30568129      -1.34318812      -2.18900774
H       -1.82508217      -0.33258572       0.64607324
H       -0.51768540      -0.90049943       1.54081862
H        0.10360904      -1.26196531      -0.05913807
H       -0.35087219       2.77611633       0.85495248
H        1.91767962      -1.23421494      -0.93234248
11
Frame=4 idx=001113 GeodesicLength=0.5740958948298049 rxn_smarts="[C:1](/[C:2](=[N:3]/[H:10])[O:4][C:5](=[O:6])[H:11])([H:7])([H:8])[H:9]>>[C:1]1([H:7])([H:8])[C:2](=[O:4])[N:3]1[H:10].[C:5](=[O:6])([H:9])[H:11]"
C       -0.76995026      -0.21002644       0.72481723
C       -0.00188462       0.94016991       0.23634292
N       -0.71666046       1.83686666       0.84153810
O        0.99899640       0.91384176      -0.51370443
C        0.87587797      -1.18216283      -1.15049173
O        0.28902670      -1.36570779      -2.15498570
H       -1.85830779      -0.29010533       0.68008985
H       -0.61951684      -0.96053323       1.49595795
H        0.17367964      -1.26869485       0.01087468
H       -0.33543273       2.77872755       0.83065671
H        1.96417200      -1.19237541      -1.00109558
11
Frame=5 idx=001113 GeodesicLength=0.7156923198622178 rxn_smarts="[C:1](/[C:2](=[N:3]/[H:10])[O:4][C:5](=[O:6])[H:11])([H:7])([H:8])[H:9]>>[C:1]1([H:7])([H:8])[C:2](=[O:4])[N:3]1[H:10].[C:5](=[O:6])([H:9])[H:11]"
C       -0.79888055      -0.20022191       0.71749700
C       -0.00885974       0.93233530       0.22687576
N       -0.68248534       1.83144669       0.87533881
O        0.95900705       0.91329757      -0.57138518
C        0.91175145      -1.17155659      -1.14226325
O        0.28249906      -1.41366410      -2.11080596
H       -1.89305525      -0.24286260       0.71428877
H       -0.72284558      -1.01676819       1.43094155
H        0.24896611      -1.26428897       0.08734661
H       -0.30398410       2.77347848       0.83787809
H        2.00788691      -1.14119568      -1.06571221
11
Frame=6 idx=001113 GeodesicLength=0.8569694368817261 rxn_smarts="[C:1](/[C:2](=[N:3]/[H:10])[O:4][C:5](=[O:6])[H:11])([H:7])([H:8])[H:9]>>[C:1]1([H:7])([H:8])[C:2](=[O:4])[N:3]1[H:10].[C:5](=[O:6])([H:9])[H:11]"
C       -0.83202601      -0.18901763       0.70641160
C       -0.02888665       0.92735093       0.20233261
N       -0.64814475       1.82427158       0.90505133
O        0.89836665       0.91490600      -0.64832995
C        0.95041935      -1.16215215      -1.12820631
O        0.28921160      -1.48050596      -2.05557796
H       -1.92871769      -0.19407434       0.75731609
H       -0.82438034      -1.07162192       1.34181776
H        0.32543569      -1.24562479       0.16990690
H       -0.24865566       2.75773125       0.87367457
H        2.04737782      -1.08126297      -1.12439664
11
Frame=7 idx=001113 GeodesicLength=0.9977145769328238 rxn_smarts="[C:1](/[C:2](=[N:3]/[H:10])[O:4][C:5](=[O:6])[H:11])([H:7])([H:8])[H:9]>>[C:1]1([H:7])([H:8])[C:2](=[O:4])[N:3]1[H:10].[C:5](=[O:6])([H:9])[H:11]"
C       -0.86828752      -0.17711121       0.69674716
C       -0.06434562       0.92442834       0.16334273
N       -0.61123937       1.81444086       0.92993160
O        0.82677424       0.91307763      -0.72965182
C        0.99035926      -1.15053811      -1.10873874
O        0.30874989      -1.54956698      -1.99224690
H       -1.96135269      -0.14747150       0.82181504
H       -0.92304252      -1.12833823       1.22249708
H        0.39679958      -1.21285878       0.25623398
H       -0.17534120       2.73190056       0.91585641
H        2.08092596      -1.01796257      -1.17578656
11
Frame=8 idx=001113 GeodesicLength=1.1375077845078754 rxn_smarts="[C:1](/[C:2](=[N:3]/[H:10])[O:4][C:5](=[O:6])[H:11])([H:7])([H:8])[H:9]>>[C:1]1([H:7])([H:8])[C:2](=[O:4])[N:3]1[H:10].[C:5](=[O:6])([H:9])[H:11]"
C       -0.90639395      -0.16388484       0.69143601
C       -0.12049973       0.92450727       0.10686360
N       -0.57855525       1.80359156       0.93926400
O        0.75574966       0.90539523      -0.80492808
C        1.02996710      -1.13455031      -1.08398070
O        0.33777735      -1.60947315      -1.92412788
H       -1.98389220      -0.11212023       0.92005304
H       -1.01720070      -1.17937318       1.06842781
H        0.45754499      -1.16689269       0.34483723
H       -0.08371890       2.68991054       0.95909570
H        2.10922164      -0.95711023      -1.21694073
11
Frame=9 idx=001113 GeodesicLength=1.277718796029176 rxn_smarts="[C:1](/[C:2](=[N:3]/[H:10])[O:4][C:5](=[O:6])[H:11])([H:7])([H:8])[H:9]>>[C:1]1([H:7])([H:8])[C:2](=[O:4])[N:3]1[H:10].[C:5](=[O:6])([H:9])[H:11]"
C       -0.94112373      -0.14973548       0.69372690
C       -0.18022911       0.92406911       0.05300709
N       -0.55424796       1.79518053       0.93243845
O        0.69632736       0.89062298      -0.86342748
C        1.06683230      -1.11497940      -1.05761096
O        0.37118117      -1.65234172      -1.85939268
H       -1.98525564      -0.09859122       1.04847199
H       -1.11029606      -1.20909359       0.88559095
H        0.49904886      -1.12072862       0.43159472
H        0.00631160       2.63960510       0.98706855
H        2.13145121      -0.90400770      -1.25146753
11
Frame=10 idx=001113 GeodesicLength=1.4200303799492886 rxn_smarts="[C:1](/[C:2](=[N:3]/[H:10])[O:4][C:5](=[O:6])[H:11])([H:7])([H:8])[H:9]>>[C:1]1([H:7])([H:8])[C:2](=[O:4])[N:3]1[H:10].[C:5](=[O:6])([H:9])[H:11]"
C       -0.96904478      -0.13349617       0.69950204
C       -0.22898169       0.92290481       0.00821157
N       -0.54867400       1.79389915       0.90853141
O        0.65812560       0.87209374      -0.90307956
C        1.09916239      -1.09567831      -1.03427837
O        0.39904048      -1.67998415      -1.80175267
H       -1.95977473      -0.11553949       1.18632856
H       -1.19934050      -1.19989499       0.69965711
H        0.52231063      -1.08430859       0.51413039
H        0.07823388       2.58562760       1.00772036
H        2.14894271      -0.86562359      -1.28497085
11
Frame=11 idx=001113 GeodesicLength=1.5654504080173357 rxn_smarts="[C:1](/[C:2](=[N:3]/[H:10])[O:4][C:5](=[O:6])[H:11])([H:7])([H:8])[H:9]>>[C:1]1([H:7])([H:8])[C:2](=[O:4])[N:3]1[H:10].[C:5](=[O:6])([H:9])[H:11]"
C       -0.99137645      -0.11571540       0.70238508
C       -0.26236665       0.92185139      -0.02674863
N       -0.55429276       1.79608420       0.87861974
O        0.64122127       0.85296016      -0.92576886
C        1.12644883      -1.07863295      -1.01554979
O        0.41623943      -1.69827359      -1.74855757
H       -1.91185893      -0.16221551       1.30833742
H       -1.28273552      -1.15412793       0.53147942
H        0.53502874      -1.05582515       0.59525381
H        0.12363786       2.53682102       1.02423332
H        2.16005419      -0.84292623      -1.32368395
11
Frame=12 idx=001113 GeodesicLength=1.7133323005834418 rxn_smarts="[C:1](/[C:2](=[N:3]/[H:10])[O:4][C:5](=[O:6])[H:11])([H:7])([H:8])[H:9]>>[C:1]1([H:7])([H:8])[C:2](=[O:4])[N:3]1[H:10].[C:5](=[O:6])([H:9])[H:11]"
C       -1.01077863      -0.09713849       0.70213543
C       -0.28621396       0.92238706      -0.05630849
N       -0.56208621       1.79830375       0.85162754
O        0.63546015       0.83522338      -0.94062045
C        1.14964630      -1.06316434      -1.00017765
O        0.42203138      -1.71423453      -1.69132793
H       -1.85828192      -0.23104436       1.39318855
H       -1.35533763      -1.08651492       0.39020759
H        0.54774760      -1.02416112       0.68036625
H        0.15413744       2.49089075       1.04276881
H        2.16367549      -0.83054719      -1.37185966
11
Frame=13 idx=001113 GeodesicLength=1.8629109517389437 rxn_smarts="[C:1](/[C:2](=[N:3]/[H:10])[O:4][C:5](=[O:6])[H:11])([H:7])([H:8])[H:9]>>[C:1]1([H:7])([H:8])[C:2](=[O:4])[N:3]1[H:10].[C:5](=[O:6])([H:9])[H:11]"
C       -1.02928818      -0.07879196       0.69894446
C       -0.30470112       0.92419998      -0.08245750
N       -0.56769099       1.79907562       0.82998558
O        0.63363506       0.81856272      -0.95275761
C        1.16993901      -1.04814827      -0.98693544
O        0.42058631      -1.73020999      -1.62687026
H       -1.80372653      -0.31606737       1.44384311
H       -1.41899502      -1.00663955       0.26890811
H        0.56315771      -0.98330146       0.77173456
H        0.17814443       2.44588920       1.06327194
H        2.15893932      -0.82456892      -1.42766695
11
Frame=14 idx=001113 GeodesicLength=2.0141210487822976 rxn_smarts="[C:1](/[C:2](=[N:3]/[H:10])[O:4][C:5](=[O:6])[H:11])([H:7])([H:8])[H:9]>>[C:1]1([H:7])([H:8])[C:2](=[O:4])[N:3]1[H:10].[C:5](=[O:6])([H:9])[H:11]"
C       -1.04698475      -0.06140954       0.69455316
C       -0.31968996       0.92680395      -0.10555797
N       -0.57063506       1.79847247       0.81307397
O        0.63263325       0.80260527      -0.96387553
C        1.18848480      -1.03329612      -0.97561399
O        0.41476534      -1.74726091      -1.55310648
H       -1.75087212      -0.41295336       1.46250380
H       -1.47465042      -0.91890027       0.16244392
H        0.58277283      -0.92970524       0.87033829
H        0.19940932       2.39933619       1.08665123
H        2.14476675      -0.82369245      -1.49141039
11
Frame=15 idx=001113 GeodesicLength=2.1664583713313057 rxn_smarts="[C:1](/[C:2](=[N:3]/[H:10])[O:4][C:5](=[O:6])[H:11])([H:7])([H:8])[H:9]>>[C:1]1([H:7])([H:8])[C:2](=[O:4])[N:3]1[H:10].[C:5](=[O:6])([H:9])[H:11]"
C       -1.06297044      -0.04547344       0.68976223
C       -0.32978587       0.92931017      -0.12502025
N       -0.57428640       1.79771843       0.79830539
O        0.63709827       0.78718472      -0.97001325
C        1.20465829      -1.02035309      -0.96740890
O        0.40367851      -1.76139662      -1.47401856
H       -1.69410925      -0.52009828       1.45368186
H       -1.52284878      -0.82555557       0.06892011
H        0.60463670      -0.86501447       0.97495667
H        0.21331665       2.35503227       1.11129651
H        2.12061232      -0.83135412      -1.56046180
11
Frame=16 idx=001113 GeodesicLength=2.3203779741096824 rxn_smarts="[C:1](/[C:2](=[N:3]/[H:10])[O:4][C:5](=[O:6])[H:11])([H:7])([H:8])[H:9]>>[C:1]1([H:7])([H:8])[C:2](=[O:4])[N:3]1[H:10].[C:5](=[O:6])([H:9])[H:11]"
C       -1.07733881      -0.03130772       0.68570754
C       -0.33525510       0.93107544      -0.14056352
N       -0.57892181       1.79690151       0.78523882
O        0.64688412       0.77191923      -0.97070113
C        1.21911168      -1.00986185      -0.96298245
O        0.38921015      -1.77250228      -1.39028623
H       -1.63333664      -0.63289152       1.41749662
H       -1.56245652      -0.73000828      -0.01203360
H        0.62681421      -0.78966401       1.08548097
H        0.22000644       2.31313754       1.13757545
H        2.08528228      -0.84679805      -1.63493247
