14
Frame=0 idx=005682 GeodesicLength=0.0 rxn_smarts="[O:1]([C:2]1([H:8])[C:3]([H:9])([H:10])[C:4]([H:11])=[C:5]([H:12])[C:6]1([H:13])[H:14])[H:7]>>[H:9][H:14].[O:1]([C:2]1([H:8])[C:3]([H:10])=[C:4]([H:11])[C:5]([H:12])=[C:6]1[H:13])[H:7]"
O       -2.11349577       0.48501820      -0.38495731
C       -0.77950743       0.16031232      -0.62297743
C        0.29236771       1.10000629      -0.11051184
C        1.47879981       0.36085835      -0.10316829
C        1.15749779      -0.99088413      -0.04666142
C       -0.23395897      -1.11631893      -0.01950795
H       -2.23932270       0.53727884       0.56740150
H       -0.67115802       0.08980224      -1.71204140
H       -0.23442617       0.59894315       1.29101532
H        0.23182734       2.17498744      -0.22860699
H        2.47396556       0.77232847      -0.00822096
H        1.86183516      -1.79797977       0.10110134
H       -0.77198762      -2.05630243      -0.05298131
H       -0.45243675      -0.31805005       1.33011670
14
Frame=1 idx=005682 GeodesicLength=0.08459439369797964 rxn_smarts="[O:1]([C:2]1([H:8])[C:3]([H:9])([H:10])[C:4]([H:11])=[C:5]([H:12])[C:6]1([H:13])[H:14])[H:7]>>[H:9][H:14].[O:1]([C:2]1([H:8])[C:3]([H:10])=[C:4]([H:11])[C:5]([H:12])=[C:6]1[H:13])[H:7]"
O       -2.11288250       0.48555827      -0.37876755
C       -0.77922764       0.16064352      -0.62530234
C        0.29125531       1.10196541      -0.10838146
C        1.47897339       0.36137445      -0.10607640
C        1.15750271      -0.99124830      -0.04946600
C       -0.23564973      -1.11704450      -0.01839528
H       -2.23333821       0.53663961       0.57417263
H       -0.68239222       0.09304886      -1.71536430
H       -0.23591302       0.61057495       1.31087634
H        0.23908566       2.17356672      -0.25865189
H        2.47379995       0.77177013      -0.00201744
H        1.86151367      -1.79569935       0.11429133
H       -0.76592198      -2.06002102      -0.08226936
H       -0.45680539      -0.33112875       1.34535172
14
Frame=2 idx=005682 GeodesicLength=0.1687262981562136 rxn_smarts="[O:1]([C:2]1([H:8])[C:3]([H:9])([H:10])[C:4]([H:11])=[C:5]([H:12])[C:6]1([H:13])[H:14])[H:7]>>[H:9][H:14].[O:1]([C:2]1([H:8])[C:3]([H:10])=[C:4]([H:11])[C:5]([H:12])=[C:6]1[H:13])[H:7]"
O       -2.11215915       0.48606533      -0.37269945
C       -0.77888710       0.16094034      -0.62782234
C        0.29012946       1.10399418      -0.10639291
C        1.47911661       0.36190468      -0.10885260
C        1.15748378      -0.99159293      -0.05205810
C       -0.23738280      -1.11780468      -0.01731889
H       -2.22720809       0.53600609       0.58079263
H       -0.69363728       0.09622565      -1.71875868
H       -0.23744252       0.62282062       1.33092187
H        0.24630570       2.17129708      -0.28835179
H        2.47356126       0.77119962       0.00409421
H        1.86108299      -1.79333331       0.12692256
H       -0.75954547      -2.06300752      -0.11113171
H       -0.46141740      -0.34471515       1.36065519
14
Frame=3 idx=005682 GeodesicLength=0.2525054896806474 rxn_smarts="[O:1]([C:2]1([H:8])[C:3]([H:9])([H:10])[C:4]([H:11])=[C:5]([H:12])[C:6]1([H:13])[H:14])[H:7]>>[H:9][H:14].[O:1]([C:2]1([H:8])[C:3]([H:10])=[C:4]([H:11])[C:5]([H:12])=[C:6]1[H:13])[H:7]"
O       -2.11132310       0.48653972      -0.36674968
C       -0.77848835       0.16120171      -0.63055439
C        0.28899608       1.10608756      -0.10458483
C        1.47923610       0.36244583      -0.11151251
C        1.15744583      -0.99191965      -0.05445545
C       -0.23915307      -1.11860175      -0.01631381
H       -2.22091385       0.53537637       0.58726660
H       -0.70490971       0.09933463      -1.72224140
H       -0.23900139       0.63576427       1.35112796
H        0.25347155       2.16822871      -0.31761839
H        2.47325613       0.77061981       0.01011163
H        1.86055669      -1.79089924       0.13903463
H       -0.75288364      -2.06529561      -0.13951430
H       -0.46628928      -0.35888235       1.37600395
14
Frame=4 idx=005682 GeodesicLength=0.33612526800086 rxn_smarts="[O:1]([C:2]1([H:8])[C:3]([H:9])([H:10])[C:4]([H:11])=[C:5]([H:12])[C:6]1([H:13])[H:14])[H:7]>>[H:9][H:14].[O:1]([C:2]1([H:8])[C:3]([H:10])=[C:4]([H:11])[C:5]([H:12])=[C:6]1[H:13])[H:7]"
O       -2.11037257       0.48698326      -0.36089562
C       -0.77803704       0.16142940      -0.63350701
C        0.28786194       1.10824121      -0.10299206
C        1.47933719       0.36299413      -0.11406582
C        1.15739309      -0.99223059      -0.05667684
C       -0.24095427      -1.11943973      -0.01542127
H       -2.21443082       0.53474378       0.59361952
H       -0.71623661       0.10238780      -1.72582092
H       -0.24057059       0.64952560       1.37147062
H        0.26057740       2.16441649      -0.34640746
H        2.47289269       0.77003428       0.01603109
H        1.85994615      -1.78841147       0.15070695
H       -0.74595648      -2.06692985      -0.16741156
H       -0.47145009      -0.37374431       1.39137038
14
Frame=5 idx=005682 GeodesicLength=0.4196045682922428 rxn_smarts="[O:1]([C:2]1([H:8])[C:3]([H:9])([H:10])[C:4]([H:11])=[C:5]([H:12])[C:6]1([H:13])[H:14])[H:7]>>[H:9][H:14].[O:1]([C:2]1([H:8])[C:3]([H:10])=[C:4]([H:11])[C:5]([H:12])=[C:6]1[H:13])[H:7]"
O       -2.10930268       0.48739450      -0.35513412
C       -0.77753377       0.16162004      -0.63669324
C        0.28673193       1.11044919      -0.10164441
C        1.47942650       0.36354610      -0.11651811
C        1.15732989      -0.99252762      -0.05872393
C       -0.24278195      -1.12032133      -0.01466485
H       -2.20774112       0.53410545       0.59985510
H       -0.72762853       0.10538276      -1.72950768
H       -0.24214033       0.66419758       1.39193479
H        0.26761275       2.15991460      -0.37466377
H        2.47247502       0.76944360       0.02186074
H        1.85925896      -1.78588187       0.16193990
H       -0.73878692      -2.06794536      -0.19478048
H       -0.47691975      -0.38937763       1.40674007
14
Frame=6 idx=005682 GeodesicLength=0.5031375723299646 rxn_smarts="[O:1]([C:2]1([H:8])[C:3]([H:9])([H:10])[C:4]([H:11])=[C:5]([H:12])[C:6]1([H:13])[H:14])[H:7]>>[H:9][H:14].[O:1]([C:2]1([H:8])[C:3]([H:10])=[C:4]([H:11])[C:5]([H:12])=[C:6]1[H:13])[H:7]"
O       -2.10811096       0.48777438      -0.34942733
C       -0.77698547       0.16177666      -0.64011165
C        0.28561282       1.11270800      -0.10056768
C        1.47950781       0.36409805      -0.11886478
C        1.15725988      -0.99281305      -0.06060645
C       -0.24462937      -1.12125208      -0.01408332
H       -2.20081558       0.53345070       0.60601338
H       -0.73911674       0.10833652      -1.73329891
H       -0.24369006       0.67994485       1.41249628
H        0.27458290       2.15477656      -0.40239265
H        2.47201084       0.76885069       0.02760089
H        1.85850404      -1.78332218       0.17281582
H       -0.73138761      -2.06839420      -0.22165733
H       -0.48274248      -0.40593490       1.42208372
14
Frame=7 idx=005682 GeodesicLength=0.5868626515076036 rxn_smarts="[O:1]([C:2]1([H:8])[C:3]([H:9])([H:10])[C:4]([H:11])=[C:5]([H:12])[C:6]1([H:13])[H:14])[H:7]>>[H:9][H:14].[O:1]([C:2]1([H:8])[C:3]([H:10])=[C:4]([H:11])[C:5]([H:12])=[C:6]1[H:13])[H:7]"
O       -2.10679298       0.48812226      -0.34373951
C       -0.77639733       0.16189877      -0.64375767
C        0.28451155       1.11501441      -0.09979021
C        1.47958608       0.36464692      -0.12108937
C        1.15718658      -0.99308749      -0.06230941
C       -0.24649115      -1.12223970      -0.01370752
H       -2.19362548       0.53277085       0.61213102
H       -0.75072763       0.11125666      -1.73718685
H       -0.24520691       0.69695086       1.43313005
H        0.28149642       2.14904935      -0.42960969
H        2.47150618       0.76825627       0.03326290
H        1.85768767      -1.78074352       0.18336258
H       -0.72376441      -2.06831975      -0.24807418
H       -0.48896858      -0.42357589       1.43737786
14
Frame=8 idx=005682 GeodesicLength=0.6709171073595457 rxn_smarts="[O:1]([C:2]1([H:8])[C:3]([H:9])([H:10])[C:4]([H:11])=[C:5]([H:12])[C:6]1([H:13])[H:14])[H:7]>>[H:9][H:14].[O:1]([C:2]1([H:8])[C:3]([H:10])=[C:4]([H:11])[C:5]([H:12])=[C:6]1[H:13])[H:7]"
O       -2.10534440       0.48843790      -0.33801892
C       -0.77577761       0.16198770      -0.64762318
C        0.28343544       1.11736547      -0.09933969
C        1.47966406       0.36518964      -0.12317675
C        1.15711260      -0.99335181      -0.06382651
C       -0.24836113      -1.12329350      -0.01357300
H       -2.18613298       0.53205388       0.61826150
H       -0.76249890       0.11415729      -1.74115939
H       -0.24666741       0.71543424       1.45380014
H        0.28836676       2.14277649      -0.45635628
H        2.47096710       0.76766442       0.03887415
H        1.85681576      -1.77815767       0.19363535
H       -0.71591788      -2.06776535      -0.27408555
H       -0.49566140      -0.44249871       1.45258812
14
Frame=9 idx=005682 GeodesicLength=0.7564756422951036 rxn_smarts="[O:1]([C:2]1([H:8])[C:3]([H:9])([H:10])[C:4]([H:11])=[C:5]([H:12])[C:6]1([H:13])[H:14])[H:7]>>[H:9][H:14].[O:1]([C:2]1([H:8])[C:3]([H:10])=[C:4]([H:11])[C:5]([H:12])=[C:6]1[H:13])[H:7]"
O       -2.10375095       0.48871401      -0.33207686
C       -0.77514718       0.16204464      -0.65163240
C        0.28240431       1.11976984      -0.09928473
C        1.47973374       0.36572261      -0.12493078
C        1.15703423      -0.99360154      -0.06497890
C       -0.25022843      -1.12445773      -0.01376712
H       -2.17822714       0.53126608       0.62459559
H       -0.77452483       0.11706938      -1.74513562
H       -0.24803812       0.73615394       1.47439433
H        0.29527568       2.13594070      -0.48291671
H        2.47040375       0.76707145       0.04447026
H        1.85589835      -1.77558074       0.20363153
H       -0.70776764      -2.06679541      -0.30001714
H       -0.50306577      -0.46331723       1.46764855
14
Frame=10 idx=005682 GeodesicLength=0.8423473138128839 rxn_smarts="[O:1]([C:2]1([H:8])[C:3]([H:9])([H:10])[C:4]([H:11])=[C:5]([H:12])[C:6]1([H:13])[H:14])[H:7]>>[H:9][H:14].[O:1]([C:2]1([H:8])[C:3]([H:10])=[C:4]([H:11])[C:5]([H:12])=[C:6]1[H:13])[H:7]"
O       -2.10201103       0.48895196      -0.32596661
C       -0.77450547       0.16207131      -0.65583194
C        0.28141075       1.12221678      -0.09960622
C        1.47980404       0.36624289      -0.12648636
C        1.15695676      -0.99384313      -0.06590536
C       -0.25209388      -1.12571338      -0.01427720
H       -2.16991846       0.53040654       0.63107725
H       -0.78679943       0.11999662      -1.74915246
H       -0.24931152       0.75891005       1.49491790
H        0.30218340       2.12861163      -0.50912598
H        2.46981266       0.76648677       0.05007855
H        1.85493135      -1.77302078       0.21345461
H       -0.69937192      -2.06542370      -0.32570195
H       -0.51108724      -0.48589355       1.48252578
14
Frame=11 idx=005682 GeodesicLength=0.9284011880710231 rxn_smarts="[O:1]([C:2]1([H:8])[C:3]([H:9])([H:10])[C:4]([H:11])=[C:5]([H:12])[C:6]1([H:13])[H:14])[H:7]>>[H:9][H:14].[O:1]([C:2]1([H:8])[C:3]([H:10])=[C:4]([H:11])[C:5]([H:12])=[C:6]1[H:13])[H:7]"
O       -2.10011451       0.48914761      -0.31962922
C       -0.77386052       0.16206872      -0.66020721
C        0.28045850       1.12470637      -0.10031891
C        1.47987630       0.36674814      -0.12781124
C        1.15688158      -0.99407701      -0.06657996
C       -0.25395414      -1.12707098      -0.01512857
H       -2.16116144       0.52945535       0.63776296
H       -0.79935800       0.12295354      -1.75318561
H       -0.25046814       0.78395974       1.51532796
H        0.30911126       2.12081038      -0.53504251
H        2.46919489       0.76591102       0.05571915
H        1.85391443      -1.77048615       0.22313304
H       -0.69071735      -2.06367901      -0.35120860
H       -0.51980285      -0.51044771       1.49716873
14
Frame=12 idx=005682 GeodesicLength=1.0145830027869447 rxn_smarts="[O:1]([C:2]1([H:8])[C:3]([H:9])([H:10])[C:4]([H:11])=[C:5]([H:12])[C:6]1([H:13])[H:14])[H:7]>>[H:9][H:14].[O:1]([C:2]1([H:8])[C:3]([H:10])=[C:4]([H:11])[C:5]([H:12])=[C:6]1[H:13])[H:7]"
O       -2.09805002       0.48929576      -0.31297467
C       -0.77322584       0.16203914      -0.66473579
C        0.27955341       1.12723930      -0.10144578
C        1.47995059       0.36723473      -0.12886964
C        1.15680935      -0.99430437      -0.06697956
C       -0.25580428      -1.12854647      -0.01636110
H       -2.15189098       0.52838793       0.64474045
H       -0.81225863       0.12596281      -1.75720047
H       -0.25148653       0.81165438       1.53554886
H        0.31608929       2.11254515      -0.56075306
H        2.46855060       0.76534753       0.06144336
H        1.85284552      -1.76798936       0.23272573
H       -0.68177877      -2.06159086      -0.37664487
H       -0.52930372      -0.53727568       1.51150654
14
Frame=13 idx=005682 GeodesicLength=1.1007071108272175 rxn_smarts="[O:1]([C:2]1([H:8])[C:3]([H:9])([H:10])[C:4]([H:11])=[C:5]([H:12])[C:6]1([H:13])[H:14])[H:7]>>[H:9][H:14].[O:1]([C:2]1([H:8])[C:3]([H:10])=[C:4]([H:11])[C:5]([H:12])=[C:6]1[H:13])[H:7]"
O       -2.09580346       0.48938972      -0.30592096
C       -0.77261279       0.16198320      -0.66939689
C        0.27870098       1.12981630      -0.10300484
C        1.48002539       0.36769940      -0.12962268
C        1.15673917      -0.99452625      -0.06707330
C       -0.25764004      -1.13015564      -0.01800466
H       -2.14204288       0.52718030       0.65208747
H       -0.82555087       0.12904169      -1.76116259
H       -0.25234635       0.84232927       1.55550237
H        0.32314442       2.10381682      -0.58632965
H        2.46787782       0.76479834       0.06730026
H        1.85172301      -1.76553973       0.24225734
H       -0.67253056      -2.05918032      -0.40209735
H       -0.53968384      -0.56665310       1.52546548
14
Frame=14 idx=005682 GeodesicLength=1.1866723353311492 rxn_smarts="[O:1]([C:2]1([H:8])[C:3]([H:9])([H:10])[C:4]([H:11])=[C:5]([H:12])[C:6]1([H:13])[H:14])[H:7]>>[H:9][H:14].[O:1]([C:2]1([H:8])[C:3]([H:10])=[C:4]([H:11])[C:5]([H:12])=[C:6]1[H:13])[H:7]"
O       -2.09335680       0.48942123      -0.29834857
C       -0.77203834       0.16190395      -0.67415866
C        0.27790934       1.13243956      -0.10502212
C        1.48009752       0.36813895      -0.13001879
C        1.15666849      -0.99474279      -0.06682019
C       -0.25945559      -1.13192048      -0.02010635
H       -2.13152778       0.52579895       0.65991828
H       -0.83931046       0.13221904      -1.76502124
H       -0.25302338       0.87642387       1.57507407
H        0.33031492       2.09461110      -0.61187480
H        2.46717391       0.76426556       0.07334904
H        1.85054064      -1.76314917       0.25179522
H       -0.66292721      -2.05646205      -0.42770108
H       -0.55106525      -0.59894771       1.53893520
14
Frame=15 idx=005682 GeodesicLength=1.2722799435596561 rxn_smarts="[O:1]([C:2]1([H:8])[C:3]([H:9])([H:10])[C:4]([H:11])=[C:5]([H:12])[C:6]1([H:13])[H:14])[H:7]>>[H:9][H:14].[O:1]([C:2]1([H:8])[C:3]([H:10])=[C:4]([H:11])[C:5]([H:12])=[C:6]1[H:13])[H:7]"
O       -2.09068858       0.48938049      -0.29014337
C       -0.77151845       0.16180367      -0.67899256
C        0.27718557       1.13511141      -0.10751929
C        1.48016349       0.36854989      -0.13001136
C        1.15659517      -0.99495517      -0.06618600
C       -0.26124607      -1.13386294      -0.02270750
H       -2.12025414       0.52420813       0.66833929
H       -0.85360887       0.13552164      -1.76872643
H       -0.25349586       0.91436229       1.59414052
H        0.33763429       2.08490917      -0.63746811
H        2.46643299       0.76375060       0.07965148
H        1.84929039      -1.76082770       0.26139452
H       -0.65292697      -2.05344312      -0.45356660
H       -0.56356297      -0.63450838       1.55179540
14
Frame=16 idx=005682 GeodesicLength=1.3573861354893468 rxn_smarts="[O:1]([C:2]1([H:8])[C:3]([H:9])([H:10])[C:4]([H:11])=[C:5]([H:12])[C:6]1([H:13])[H:14])[H:7]>>[H:9][H:14].[O:1]([C:2]1([H:8])[C:3]([H:10])=[C:4]([H:11])[C:5]([H:12])=[C:6]1[H:13])[H:7]"
O       -2.08777223       0.48925497      -0.28116289
C       -0.77107326       0.16168482      -0.68386129
C        0.27653874       1.13783480      -0.11052337
C        1.48021760       0.36892804      -0.12954284
C        1.15651435      -0.99516455      -0.06512376
C       -0.26300587      -1.13601022      -0.02585645
H       -2.10810756       0.52236748       0.67748231
H       -0.86853634       0.13898080      -1.77221354
H       -0.25374263       0.95664248       1.61254265
H        0.34514308       2.07467547      -0.66320632
H        2.46564651       0.76325471       0.08628638
H        1.84796090      -1.75858651       0.27111911
H       -0.64247018      -2.05012221      -0.47983391
H       -0.57731312      -0.67374010       1.56389391
