11
Frame=0 idx=004035 GeodesicLength=0.0 rxn_smarts="[O:1]([c:2]1[c:3]([H:8])[n:4]([H:9])[c:5]([H:10])[c:6]1[H:11])[H:7]>>[O:1]([C:2]1=[C:6]([H:11])[C:5]([H:9])([H:10])[N:4]=[C:3]1[H:8])[H:7]"
O        2.19274307      -0.26796820      -0.06399004
C        0.84760830      -0.13663784      -0.10403958
C        0.00276642      -1.11699185      -0.62289762
N       -1.28289544      -0.73055980      -0.56943583
C       -1.26157309       0.53328061       0.10547736
C        0.05965166       0.90557321       0.37048056
H        2.58267421       0.52075590       0.31608093
H        0.27882187      -2.09317279      -0.99196989
H       -1.65617339      -0.57610253       0.63469315
H       -2.15192455       1.14440504       0.07932655
H        0.38830092       1.81741822       0.84627440
11
Frame=1 idx=004035 GeodesicLength=0.03557458932334615 rxn_smarts="[O:1]([c:2]1[c:3]([H:8])[n:4]([H:9])[c:5]([H:10])[c:6]1[H:11])[H:7]>>[O:1]([C:2]1=[C:6]([H:11])[C:5]([H:9])([H:10])[N:4]=[C:3]1[H:8])[H:7]"
O        2.19582459      -0.26265128      -0.07430604
C        0.84957322      -0.13726323      -0.09887066
C        0.00413576      -1.11757342      -0.62057244
N       -1.27943162      -0.72886683      -0.56732291
C       -1.26174867       0.53096866       0.11061621
C        0.06096832       0.90079258       0.38141236
H        2.58616355       0.52754768       0.30227606
H        0.27963901      -2.09516774      -0.98655487
H       -1.68003613      -0.58244728       0.63380177
H       -2.14419936       1.15230554       0.06141853
H        0.38911133       1.81235533       0.85810199
11
Frame=2 idx=004035 GeodesicLength=0.07113578909935714 rxn_smarts="[O:1]([c:2]1[c:3]([H:8])[n:4]([H:9])[c:5]([H:10])[c:6]1[H:11])[H:7]>>[O:1]([C:2]1=[C:6]([H:11])[C:5]([H:9])([H:10])[N:4]=[C:3]1[H:8])[H:7]"
O        2.19873054      -0.25737832      -0.08432212
C        0.85160695      -0.13751456      -0.09450871
C        0.00552443      -1.11807700      -0.61842965
N       -1.27599978      -0.72735122      -0.56484194
C       -1.26194183       0.52861570       0.11585450
C        0.06231897       0.89608503       0.39203274
H        2.58939679       0.53431892       0.28876661
H        0.28046007      -2.09722252      -0.98093173
H       -1.70412355      -0.58863064       0.63253515
H       -2.13591739       1.15992947       0.04394999
H        0.38994480       1.80722515       0.86989516
11
Frame=3 idx=004035 GeodesicLength=0.10670377123326402 rxn_smarts="[O:1]([c:2]1[c:3]([H:8])[n:4]([H:9])[c:5]([H:10])[c:6]1[H:11])[H:7]>>[O:1]([C:2]1=[C:6]([H:11])[C:5]([H:9])([H:10])[N:4]=[C:3]1[H:8])[H:7]"
O        2.20154946      -0.25203872      -0.09413381
C        0.85370307      -0.13797464      -0.08971609
C        0.00698190      -1.11872458      -0.61599834
N       -1.27245479      -0.72579081      -0.56243733
C       -1.26207759       0.52633798       0.12094949
C        0.06369798       0.89103907       0.40319317
H        2.59246956       0.54222812       0.27319408
H        0.28128705      -2.09962349      -0.97447545
H       -1.72917173      -0.59443790       0.63009975
H       -2.12673644       1.16770090       0.02616243
H        0.39075151       1.80128407       0.88316210
11
Frame=4 idx=004035 GeodesicLength=0.14227287883875747 rxn_smarts="[O:1]([c:2]1[c:3]([H:8])[n:4]([H:9])[c:5]([H:10])[c:6]1[H:11])[H:7]>>[O:1]([C:2]1=[C:6]([H:11])[C:5]([H:9])([H:10])[N:4]=[C:3]1[H:8])[H:7]"
O        2.20427028      -0.24652931      -0.10401027
C        0.85587000      -0.13839243      -0.08503719
C        0.00849181      -1.11944679      -0.61344623
N       -1.26885482      -0.72430326      -0.55989154
C       -1.26217795       0.52409307       0.12598081
C        0.06511347       0.88581917       0.41452332
H        2.59527040       0.55069494       0.25677964
H        0.28212399      -2.10228766      -0.96735439
H       -1.75488261      -0.59989021       0.62676548
H       -2.11678699       1.17542686       0.00841334
H        0.39156243       1.79481560       0.89727704
11
Frame=5 idx=004035 GeodesicLength=0.1778116854199552 rxn_smarts="[O:1]([c:2]1[c:3]([H:8])[n:4]([H:9])[c:5]([H:10])[c:6]1[H:11])[H:7]>>[O:1]([C:2]1=[C:6]([H:11])[C:5]([H:9])([H:10])[N:4]=[C:3]1[H:8])[H:7]"
O        2.20682254      -0.24118203      -0.11352357
C        0.85808399      -0.13779852      -0.08245586
C        0.00996762      -1.11986666      -0.61155643
N       -1.26544825      -0.72323787      -0.55652087
C       -1.26237449       0.52169258       0.13133927
C        0.06657838       0.88106559       0.42472663
H        2.59781710       0.55792077       0.24310557
H        0.28298973      -2.10470992      -0.96060942
H       -1.78015217      -0.60532967       0.62374327
H       -2.10675987       1.18237994      -0.00798877
H        0.39247543       1.78906579       0.90974016
11
Frame=6 idx=004035 GeodesicLength=0.21334761232802119 rxn_smarts="[O:1]([c:2]1[c:3]([H:8])[n:4]([H:9])[c:5]([H:10])[c:6]1[H:11])[H:7]>>[O:1]([C:2]1=[C:6]([H:11])[C:5]([H:9])([H:10])[N:4]=[C:3]1[H:8])[H:7]"
O        2.20929623      -0.23568950      -0.12317051
C        0.86034199      -0.13687963      -0.08054237
C        0.01146322      -1.12025789      -0.60976014
N       -1.26207505      -0.72237613      -0.55276681
C       -1.26258168       0.51926109       0.13676459
C        0.06808912       0.87632538       0.43472912
H        2.60019194       0.56504741       0.22989535
H        0.28389273      -2.10720878      -0.95356290
H       -1.80579303      -0.61049879       0.62018654
H       -2.09626595       1.18903112      -0.02391532
H        0.39344049       1.78324571       0.92214243
11
Frame=7 idx=004035 GeodesicLength=0.2488715374733178 rxn_smarts="[O:1]([c:2]1[c:3]([H:8])[n:4]([H:9])[c:5]([H:10])[c:6]1[H:11])[H:7]>>[O:1]([C:2]1=[C:6]([H:11])[C:5]([H:9])([H:10])[N:4]=[C:3]1[H:8])[H:7]"
O        2.21168521      -0.23015556      -0.13280895
C        0.86262318      -0.13543430      -0.07968340
C        0.01295960      -1.12053052      -0.60823511
N       -1.25878657      -0.72179111      -0.54849007
C       -1.26282556       0.51675763       0.14234020
C        0.06965340       0.87173302       0.44426710
H        2.60245361       0.57171096       0.21783918
H        0.28484671      -2.10966534      -0.94643391
H       -1.83159338      -0.61546733       0.61632762
H       -2.08550008       1.19521767      -0.03907852
H        0.39448389       1.77762488       0.93395585
11
Frame=8 idx=004035 GeodesicLength=0.2843757228330114 rxn_smarts="[O:1]([c:2]1[c:3]([H:8])[n:4]([H:9])[c:5]([H:10])[c:6]1[H:11])[H:7]>>[O:1]([C:2]1=[C:6]([H:11])[C:5]([H:9])([H:10])[N:4]=[C:3]1[H:8])[H:7]"
O        2.21399588      -0.22477732      -0.14214003
C        0.86490363      -0.13322105      -0.08034203
C        0.01443235      -1.12056474      -0.60721173
N       -1.25565391      -0.72158029      -0.54350043
C       -1.26314874       0.51413656       0.14816667
C        0.07128004       0.86749960       0.45295261
H        2.60470574       0.57745245       0.20775699
H        0.28587512      -2.11189439      -0.93959139
H       -1.85726644      -0.62033831       0.61253064
H       -2.07475260       1.20072527      -0.05313457
H        0.39562894       1.77256222       0.94451328
11
Frame=9 idx=004035 GeodesicLength=0.31989475429046704 rxn_smarts="[O:1]([c:2]1[c:3]([H:8])[n:4]([H:9])[c:5]([H:10])[c:6]1[H:11])[H:7]>>[O:1]([C:2]1=[C:6]([H:11])[C:5]([H:9])([H:10])[N:4]=[C:3]1[H:8])[H:7]"
O        2.21626484      -0.21950159      -0.15118667
C        0.86719279      -0.13057966      -0.08180239
C        0.01591509      -1.12048417      -0.60642713
N       -1.25259176      -0.72163567      -0.53801110
C       -1.26350371       0.51145291       0.15413129
C        0.07297407       0.86339022       0.46126383
H        2.60694185       0.58292307       0.19831392
H        0.28698761      -2.11403677      -0.93272838
H       -1.88321937      -0.62497656       0.60833193
H       -2.06382314       1.20578389      -0.06648990
H        0.39686172       1.76766433       0.95460461
11
Frame=10 idx=004035 GeodesicLength=0.355361599745355 rxn_smarts="[O:1]([c:2]1[c:3]([H:8])[n:4]([H:9])[c:5]([H:10])[c:6]1[H:11])[H:7]>>[O:1]([C:2]1=[C:6]([H:11])[C:5]([H:9])([H:10])[N:4]=[C:3]1[H:8])[H:7]"
O        2.21847218      -0.21438832      -0.16000522
C        0.86942369      -0.12709943      -0.08489823
C        0.01736708      -1.12012995      -0.60618959
N       -1.24967740      -0.72211079      -0.53171492
C       -1.26393216       0.50864741       0.16037283
C        0.07474103       0.85971571       0.46860614
H        2.60928650       0.58724483       0.19117564
H        0.28822268      -2.11587957      -0.92624425
H       -1.90899669      -0.62952218       0.60430371
H       -2.05310484       1.21009278      -0.07868186
H        0.39819792       1.76342952       0.96327574
11
Frame=11 idx=004035 GeodesicLength=0.39074875069074777 rxn_smarts="[O:1]([c:2]1[c:3]([H:8])[n:4]([H:9])[c:5]([H:10])[c:6]1[H:11])[H:7]>>[O:1]([C:2]1=[C:6]([H:11])[C:5]([H:9])([H:10])[N:4]=[C:3]1[H:8])[H:7]"
O        2.22063403      -0.20986780      -0.16790158
C        0.87155774      -0.12228838      -0.09049864
C        0.01874137      -1.11926270      -0.60691735
N       -1.24702314      -0.72315204      -0.52431732
C       -1.26449969       0.50563216       0.16707698
C        0.07660314       0.85684428       0.47434933
H        2.61190191       0.58963259       0.18761283
H        0.28960682      -2.11709243      -0.92077113
H       -1.93409255      -0.63423035       0.60111706
H       -2.04310297       1.21330141      -0.08918681
H        0.39967335       1.76048327       0.96943664
11
Frame=12 idx=004035 GeodesicLength=0.4261623086417534 rxn_smarts="[O:1]([c:2]1[c:3]([H:8])[n:4]([H:9])[c:5]([H:10])[c:6]1[H:11])[H:7]>>[O:1]([C:2]1=[C:6]([H:11])[C:5]([H:9])([H:10])[N:4]=[C:3]1[H:8])[H:7]"
O        2.22277210      -0.20544780      -0.17557774
C        0.87365905      -0.11714622      -0.09663147
C        0.02014159      -1.11829048      -0.60781093
N       -1.24436523      -0.72445015      -0.51641916
C       -1.26505801       0.50256747       0.17391599
C        0.07855498       0.85404299       0.47987783
H        2.61456586       0.59185162       0.18428519
H        0.29113204      -2.11820871      -0.91521486
H       -1.95963809      -0.63865802       0.59738008
H       -2.03300025       1.21611189      -0.09915500
H        0.40123596       1.75762741       0.97535007
11
Frame=13 idx=004035 GeodesicLength=0.4615818442374952 rxn_smarts="[O:1]([c:2]1[c:3]([H:8])[n:4]([H:9])[c:5]([H:10])[c:6]1[H:11])[H:7]>>[O:1]([C:2]1=[C:6]([H:11])[C:5]([H:9])([H:10])[N:4]=[C:3]1[H:8])[H:7]"
O        2.22492390      -0.20108425      -0.18284009
C        0.87577500      -0.11249513      -0.10170507
C        0.02163744      -1.11752708      -0.60827603
N       -1.24152758      -0.72578223      -0.50844399
C       -1.26549665       0.49955656       0.18067746
C        0.08058143       0.85070794       0.48631208
H        2.61704546       0.59561108       0.17801039
H        0.29276581      -2.11957245      -0.90894322
H       -1.98646432      -0.64241669       0.59189428
H       -2.02208997       1.21904886      -0.10938816
H        0.40284948       1.75395339       0.98270235
11
Frame=14 idx=004035 GeodesicLength=0.4969865751571744 rxn_smarts="[O:1]([c:2]1[c:3]([H:8])[n:4]([H:9])[c:5]([H:10])[c:6]1[H:11])[H:7]>>[O:1]([C:2]1=[C:6]([H:11])[C:5]([H:9])([H:10])[N:4]=[C:3]1[H:8])[H:7]"
O        2.22701339      -0.19659956      -0.19046638
C        0.87782038      -0.10730760      -0.10772427
C        0.02311955      -1.11659715      -0.60901878
N       -1.23874383      -0.72756324      -0.49959482
C       -1.26595239       0.49644647       0.18768765
C        0.08271524       0.84768193       0.49209544
H        2.61965489       0.59839673       0.17356088
H        0.29458140      -2.12066166      -0.90298552
H       -2.01344300      -0.64591135       0.58624885
H       -2.01134229       1.22134628      -0.11887487
H        0.40457665       1.75076916       0.98907180
11
Frame=15 idx=004035 GeodesicLength=0.5323972580527295 rxn_smarts="[O:1]([c:2]1[c:3]([H:8])[n:4]([H:9])[c:5]([H:10])[c:6]1[H:11])[H:7]>>[O:1]([C:2]1=[C:6]([H:11])[C:5]([H:9])([H:10])[N:4]=[C:3]1[H:8])[H:7]"
O        2.22905956      -0.19189210      -0.19846598
C        0.87983064      -0.10210625      -0.11367323
C        0.02463348      -1.11571200      -0.60964236
N       -1.23589463      -0.72965907      -0.49012551
C       -1.26635571       0.49330679       0.19480810
C        0.08494677       0.84456029       0.49798353
H        2.62224899       0.60130132       0.16889489
H        0.29656417      -2.12173246      -0.89684874
H       -2.04114813      -0.64886345       0.57961401
H       -2.00028394       1.22334876      -0.12816775
H        0.40639880       1.74744819       0.99562306
11
Frame=16 idx=004035 GeodesicLength=0.567815869319704 rxn_smarts="[O:1]([c:2]1[c:3]([H:8])[n:4]([H:9])[c:5]([H:10])[c:6]1[H:11])[H:7]>>[O:1]([C:2]1=[C:6]([H:11])[C:5]([H:9])([H:10])[N:4]=[C:3]1[H:8])[H:7]"
O        2.23104815      -0.18669394      -0.20727694
C        0.88182419      -0.09713956      -0.11908830
C        0.02619434      -1.11500005      -0.60991069
N       -1.23293499      -0.73205496      -0.48006893
C       -1.26667800       0.49017319       0.20196059
C        0.08727412       0.84116193       0.50429454
H        2.62475807       0.60472517       0.16334289
H        0.29871047      -2.12294160      -0.89019950
H       -2.06985038      -0.65105744       0.57154744
H       -1.98866396       1.22519540      -0.13758977
H        0.40831800       1.74363187       1.00298868
