14
Frame=0 idx=006013 GeodesicLength=0.0 rxn_smarts="[C:1]([C@@:2]1([H:10])[C@:3]([O:4][H:12])([H:11])[C@:5]1([O:6][H:14])[H:13])([H:7])([H:8])[H:9]>>[C:1]([C@@:2]([C:3][O:4][H:12])([C:5]([O:6][H:14])([H:11])[H:13])[H:10])([H:7])([H:8])[H:9]"
C        1.55544158      -0.28996443      -0.27782997
C        0.41563454      -0.14582107       0.70314647
C       -0.48115527       1.09208595       0.67491977
O       -0.53803314       1.55244836      -0.62802913
C       -0.91249215      -0.75324061       0.39804674
O       -1.26036726      -1.02936472      -0.89818662
H        1.98727814      -1.28980527      -0.21521888
H        1.24556960      -0.12326822      -1.30782501
H        2.33831926       0.43451477      -0.04938323
H        0.72826112      -0.35443798       1.72408133
H       -1.55688391       0.31740889       0.84010096
H       -1.13480288       2.30256249      -0.63081953
H       -1.34542976      -1.46392587       1.09564040
H       -1.04133990      -0.24919230      -1.42864330
14
Frame=1 idx=006013 GeodesicLength=0.08191139418030012 rxn_smarts="[C:1]([C@@:2]1([H:10])[C@:3]([O:4][H:12])([H:11])[C@:5]1([O:6][H:14])[H:13])([H:7])([H:8])[H:9]>>[C:1]([C@@:2]([C:3][O:4][H:12])([C:5]([O:6][H:14])([H:11])[H:13])[H:10])([H:7])([H:8])[H:9]"
C        1.55041916      -0.28716885      -0.27850963
C        0.40969918      -0.14372394       0.70141293
C       -0.50095534       1.07870221       0.65828320
O       -0.55380920       1.56571795      -0.62883350
C       -0.91314498      -0.76798250       0.39982257
O       -1.25532616      -1.05525645      -0.89725988
H        1.98942956      -1.28323445      -0.20609391
H        1.23833002      -0.13411672      -1.30998370
H        2.32684906       0.44660169      -0.05760222
H        0.72452289      -0.33558445       1.72514436
H       -1.57871288       0.29616463       0.85177883
H       -1.05438326       2.38198205      -0.62733648
H       -1.32220477      -1.49331620       1.09665219
H       -1.06071328      -0.26878500      -1.42747475
14
Frame=2 idx=006013 GeodesicLength=0.16245659232196732 rxn_smarts="[C:1]([C@@:2]1([H:10])[C@:3]([O:4][H:12])([H:11])[C@:5]1([O:6][H:14])[H:13])([H:7])([H:8])[H:9]>>[C:1]([C@@:2]([C:3][O:4][H:12])([C:5]([O:6][H:14])([H:11])[H:13])[H:10])([H:7])([H:8])[H:9]"
C        1.54407262      -0.28233688      -0.27968751
C        0.40247744      -0.14074552       0.69937386
C       -0.52341233       1.06477944       0.64105449
O       -0.57345389       1.57976299      -0.62899836
C       -0.91423525      -0.78343604       0.40175389
O       -1.25068643      -1.08202736      -0.89607574
H        1.99091192      -1.27422681      -0.19781234
H        1.22969062      -0.14307393      -1.31246764
H        2.31374148       0.46075872      -0.06608867
H        0.71960165      -0.31502520       1.72573803
H       -1.60152163       0.27309337       0.86467678
H       -0.95795426       2.45562822      -0.62310393
H       -1.29788130      -1.52323330       1.09778748
H       -1.08135063      -0.28991771      -1.42615033
14
Frame=3 idx=006013 GeodesicLength=0.2414701993469407 rxn_smarts="[C:1]([C@@:2]1([H:10])[C@:3]([O:4][H:12])([H:11])[C@:5]1([O:6][H:14])[H:13])([H:7])([H:8])[H:9]>>[C:1]([C@@:2]([C:3][O:4][H:12])([C:5]([O:6][H:14])([H:11])[H:13])[H:10])([H:7])([H:8])[H:9]"
C        1.53661373      -0.27562272      -0.28128716
C        0.39425230      -0.13689597       0.69721748
C       -0.54756223       1.05082298       0.62394115
O       -0.59578310       1.59602182      -0.62738748
C       -0.91572843      -0.79880107       0.40368697
O       -1.24655798      -1.10812540      -0.89500787
H        1.99141402      -1.26326098      -0.19073230
H        1.21999713      -0.14968899      -1.31522572
H        2.29959222       0.47636008      -0.07436177
H        0.71359996      -0.29338195       1.72603705
H       -1.62459979       0.24913329       0.87930963
H       -0.84972799       2.51736485      -0.61998185
H       -1.27278359      -1.55293680       1.09857425
H       -1.10272626      -0.31098915      -1.42478241
14
Frame=4 idx=006013 GeodesicLength=0.3187799248284629 rxn_smarts="[C:1]([C@@:2]1([H:10])[C@:3]([O:4][H:12])([H:11])[C@:5]1([O:6][H:14])[H:13])([H:7])([H:8])[H:9]>>[C:1]([C@@:2]([C:3][O:4][H:12])([C:5]([O:6][H:14])([H:11])[H:13])[H:10])([H:7])([H:8])[H:9]"
C        1.52829010      -0.26715954      -0.28320864
C        0.38522522      -0.13224443       0.69478403
C       -0.57278840       1.03674394       0.60705344
O       -0.61998517       1.61495364      -0.62301448
C       -0.91759105      -0.81338494       0.40536501
O       -1.24290203      -1.13230137      -0.89402247
H        1.99116072      -1.25023203      -0.18467276
H        1.20956031      -0.15412015      -1.31786229
H        2.28474042       0.49296580      -0.08239487
H        0.70656413      -0.27084630       1.72556300
H       -1.64754715       0.22481411       0.89551713
H       -0.73286466       2.56308894      -0.61852781
H       -1.24729881      -1.58143335       1.09833259
H       -1.12456364      -0.33084432      -1.42291187
14
Frame=5 idx=006013 GeodesicLength=0.39571272332438734 rxn_smarts="[C:1]([C@@:2]1([H:10])[C@:3]([O:4][H:12])([H:11])[C@:5]1([O:6][H:14])[H:13])([H:7])([H:8])[H:9]>>[C:1]([C@@:2]([C:3][O:4][H:12])([C:5]([O:6][H:14])([H:11])[H:13])[H:10])([H:7])([H:8])[H:9]"
C        1.51968370      -0.25780171      -0.28515475
C        0.37603922      -0.12711525       0.69256066
C       -0.59755456       1.02332234       0.59113099
O       -0.64365667       1.63792949      -0.61498607
C       -0.91964592      -0.82674217       0.40668169
O       -1.23970938      -1.15355731      -0.89384379
H        1.98996910      -1.23669560      -0.17968282
H        1.19910713      -0.15650451      -1.32045241
H        2.27023076       0.50950584      -0.08944335
H        0.69896144      -0.24858416       1.72514115
H       -1.66934553       0.20126466       0.91360446
H       -0.61600444       2.59163224      -0.62122689
H       -1.22175480      -1.60855488       1.09682132
H       -1.14632004      -0.34809898      -1.42115020
14
Frame=6 idx=006013 GeodesicLength=0.47274333121990425 rxn_smarts="[C:1]([C@@:2]1([H:10])[C@:3]([O:4][H:12])([H:11])[C@:5]1([O:6][H:14])[H:13])([H:7])([H:8])[H:9]>>[C:1]([C@@:2]([C:3][O:4][H:12])([C:5]([O:6][H:14])([H:11])[H:13])[H:10])([H:7])([H:8])[H:9]"
C        1.51106894      -0.24789435      -0.28697450
C        0.36690375      -0.12170785       0.69052738
C       -0.62144718       1.01045417       0.57610365
O       -0.66590887       1.66493737      -0.60270751
C       -0.92181709      -0.83876553       0.40751589
O       -1.23687443      -1.17164365      -0.89450831
H        1.98812819      -1.22290117      -0.17543382
H        1.18894064      -0.15732385      -1.32278314
H        2.25632614       0.52564805      -0.09548775
H        0.69093484      -0.22682572       1.72468529
H       -1.68974692       0.17865799       0.93325936
H       -0.50229036       2.60389764      -0.62859708
H       -1.19634684      -1.63406776       1.09376086
H       -1.16787080      -0.36246537      -1.41936033
14
Frame=7 idx=006013 GeodesicLength=0.5502764645077508 rxn_smarts="[C:1]([C@@:2]1([H:10])[C@:3]([O:4][H:12])([H:11])[C@:5]1([O:6][H:14])[H:13])([H:7])([H:8])[H:9]>>[C:1]([C@@:2]([C:3][O:4][H:12])([C:5]([O:6][H:14])([H:11])[H:13])[H:10])([H:7])([H:8])[H:9]"
C        1.50275717      -0.23791044      -0.28851746
C        0.35805051      -0.11624491       0.68875408
C       -0.64403905       0.99820331       0.56187522
O       -0.68575745       1.69611100      -0.58573059
C       -0.92402997      -0.84947118       0.40780502
O       -1.23427245      -1.18655970      -0.89616393
H        1.98585480      -1.20942547      -0.17161699
H        1.17942035      -0.15706935      -1.32478970
H        2.24337183       0.54096878      -0.10042391
H        0.68265101      -0.20588283       1.72435678
H       -1.70851531       0.15723153       0.95422339
H       -0.39520977       2.60185777      -0.64119820
H       -1.17121188      -1.65797472       1.08908425
H       -1.18906979      -0.37383379      -1.41765797
14
Frame=8 idx=006013 GeodesicLength=0.6282059547063056 rxn_smarts="[C:1]([C@@:2]1([H:10])[C@:3]([O:4][H:12])([H:11])[C@:5]1([O:6][H:14])[H:13])([H:7])([H:8])[H:9]>>[C:1]([C@@:2]([C:3][O:4][H:12])([C:5]([O:6][H:14])([H:11])[H:13])[H:10])([H:7])([H:8])[H:9]"
C        1.49496073      -0.22822976      -0.28970510
C        0.34956710      -0.11084182       0.68714710
C       -0.66520907       0.98643466       0.54802129
O       -0.70224331       1.73123973      -0.56377491
C       -0.92625128      -0.85891017       0.40749215
O       -1.23177040      -1.19848848      -0.89876987
H        1.98341223      -1.19652293      -0.16779767
H        1.17081991      -0.15642880      -1.32637843
H        2.23146183       0.55523454      -0.10446936
H        0.67411751      -0.18568406       1.72404313
H       -1.72561139       0.13704228       0.97609229
H       -0.29697607       2.58777790      -0.65865160
H       -1.14644811      -1.68019891       1.08275058
H       -1.20982969      -0.38242418      -1.41599959
14
Frame=9 idx=006013 GeodesicLength=0.7067834256754333 rxn_smarts="[C:1]([C@@:2]1([H:10])[C@:3]([O:4][H:12])([H:11])[C@:5]1([O:6][H:14])[H:13])([H:7])([H:8])[H:9]>>[C:1]([C@@:2]([C:3][O:4][H:12])([C:5]([O:6][H:14])([H:11])[H:13])[H:10])([H:7])([H:8])[H:9]"
C        1.48782370      -0.21908597      -0.29034201
C        0.34165715      -0.10573533       0.68592132
C       -0.68452733       0.97525684       0.53467644
O       -0.71466477       1.77052312      -0.53591266
C       -0.92846756      -0.86733376       0.40653358
O       -1.22946379      -1.20768901      -0.90259224
H        1.98081433      -1.18461341      -0.16378594
H        1.16323349      -0.15551958      -1.32752631
H        2.22078626       0.56839294      -0.10729460
H        0.66558992      -0.16669898       1.72415508
H       -1.74080297       0.11809113       0.99875960
H       -0.20958776       2.56386981      -0.68264707
H       -1.12226673      -1.70113979       1.07475487
H       -1.23012394      -0.38831801      -1.41470006
14
Frame=10 idx=006013 GeodesicLength=0.7850866864218151 rxn_smarts="[C:1]([C@@:2]1([H:10])[C@:3]([O:4][H:12])([H:11])[C@:5]1([O:6][H:14])[H:13])([H:7])([H:8])[H:9]>>[C:1]([C@@:2]([C:3][O:4][H:12])([C:5]([O:6][H:14])([H:11])[H:13])[H:10])([H:7])([H:8])[H:9]"
C        1.48145962      -0.21093626      -0.29052045
C        0.33419434      -0.10088713       0.68470030
C       -0.70235927       0.96443919       0.52085465
O       -0.72173134       1.81335385      -0.50201155
C       -0.93060228      -0.87463940       0.40487501
O       -1.22700993      -1.21443351      -0.90728006
H        1.97854527      -1.17375472      -0.15903956
H        1.15693941      -0.15550522      -1.32815939
H        2.21095591       0.58028094      -0.10977682
H        0.65674350      -0.14835800       1.72413295
H       -1.75434396       0.10058053       1.02152373
H       -0.13451166       2.53223246      -0.71095388
H       -1.09866242      -1.72026789       1.06520165
H       -1.24961718      -0.39210483      -1.41354658
14
Frame=11 idx=006013 GeodesicLength=0.8630411423599229 rxn_smarts="[C:1]([C@@:2]1([H:10])[C@:3]([O:4][H:12])([H:11])[C@:5]1([O:6][H:14])[H:13])([H:7])([H:8])[H:9]>>[C:1]([C@@:2]([C:3][O:4][H:12])([C:5]([O:6][H:14])([H:11])[H:13])[H:10])([H:7])([H:8])[H:9]"
C        1.47599259      -0.20399539      -0.29013005
C        0.32726212      -0.09642268       0.68355963
C       -0.71849918       0.95405783       0.50628869
O       -0.72227515       1.85970867      -0.46108279
C       -0.93271539      -0.88102797       0.40247569
O       -1.22448812      -1.21911560      -0.91299641
H        1.97675675      -1.16417462      -0.15320985
H        1.15203648      -0.15673153      -1.32830694
H        2.20194081       0.59105172      -0.11199472
H        0.64767192      -0.13078960       1.72420653
H       -1.76620749       0.08458743       1.04411131
H       -0.07327965       2.49479309      -0.74427193
H       -1.07589567      -1.73783064       1.05422748
H       -1.26830001      -0.39411070      -1.41287665
14
Frame=12 idx=006013 GeodesicLength=0.9401142754502476 rxn_smarts="[C:1]([C@@:2]1([H:10])[C@:3]([O:4][H:12])([H:11])[C@:5]1([O:6][H:14])[H:13])([H:7])([H:8])[H:9]>>[C:1]([C@@:2]([C:3][O:4][H:12])([C:5]([O:6][H:14])([H:11])[H:13])[H:10])([H:7])([H:8])[H:9]"
C        1.47168874      -0.19864538      -0.28901941
C        0.32101102      -0.09253160       0.68254278
C       -0.73257969       0.94421243       0.49060865
O       -0.71453360       1.90929174      -0.41193194
C       -0.93488897      -0.88653700       0.39926575
O       -1.22193228      -1.22196450      -0.91986928
H        1.97574151      -1.15620925      -0.14582530
H        1.14880497      -0.15966955      -1.32792044
H        2.19374890       0.60072629      -0.11412469
H        0.63847832      -0.11428626       1.72453940
H       -1.77637286       0.07042253       1.06612072
H       -0.02873950       2.45357870      -0.78331747
H       -1.05443711      -1.75382463       1.04198438
H       -1.28598945      -0.39456352      -1.41305314
14
Frame=13 idx=006013 GeodesicLength=1.0155309318542962 rxn_smarts="[C:1]([C@@:2]1([H:10])[C@:3]([O:4][H:12])([H:11])[C@:5]1([O:6][H:14])[H:13])([H:7])([H:8])[H:9]>>[C:1]([C@@:2]([C:3][O:4][H:12])([C:5]([O:6][H:14])([H:11])[H:13])[H:10])([H:7])([H:8])[H:9]"
C        1.46861872      -0.19550845      -0.28723504
C        0.31536882      -0.08916761       0.68132429
C       -0.74447423       0.93511064       0.47263861
O       -0.69607019       1.96100294      -0.35410542
C       -0.93711299      -0.89103702       0.39517413
O       -1.21889310      -1.22370683      -0.92772511
H        1.97568255      -1.15027822      -0.13630285
H        1.14747148      -0.16539702      -1.32698824
H        2.18585996       0.60923129      -0.11700622
H        0.62886554      -0.09836611       1.72476359
H       -1.78483519       0.05886699       1.08674033
H       -0.00375954       2.41153117      -0.82574843
H       -1.03441617      -1.76783359       1.02877842
H       -1.30230565      -0.39444818      -1.41430807
14
Frame=14 idx=006013 GeodesicLength=1.0889842744660398 rxn_smarts="[C:1]([C@@:2]1([H:10])[C@:3]([O:4][H:12])([H:11])[C@:5]1([O:6][H:14])[H:13])([H:7])([H:8])[H:9]>>[C:1]([C@@:2]([C:3][O:4][H:12])([C:5]([O:6][H:14])([H:11])[H:13])[H:10])([H:7])([H:8])[H:9]"
C        1.46720265      -0.19544011      -0.28488400
C        0.31051204      -0.08641108       0.67956848
C       -0.75364463       0.92696555       0.45084773
O       -0.66458560       2.01269089      -0.28826579
C       -0.93956663      -0.89446800       0.39029606
O       -1.21522164      -1.22560982      -0.93627047
H        1.97683309      -1.14717643      -0.12411630
H        1.14842993      -0.17476299      -1.32568600
H        2.17840125       0.61616538      -0.12149938
H        0.61893584      -0.08268231       1.72463877
H       -1.79177616       0.05100686       1.10482984
H       -0.00216840       2.37439948      -0.86783071
H       -1.01666912      -1.77924321       1.01572474
H       -1.31668262      -0.39543421      -1.41735295
14
Frame=15 idx=006013 GeodesicLength=1.1612336998873343 rxn_smarts="[C:1]([C@@:2]1([H:10])[C@:3]([O:4][H:12])([H:11])[C@:5]1([O:6][H:14])[H:13])([H:7])([H:8])[H:9]>>[C:1]([C@@:2]([C:3][O:4][H:12])([C:5]([O:6][H:14])([H:11])[H:13])[H:10])([H:7])([H:8])[H:9]"
C        1.46734631      -0.19913093      -0.28257955
C        0.30634679      -0.08389966       0.67643525
C       -0.75998693       0.91990959       0.42286090
O       -0.62086035       2.06022666      -0.21848853
C       -0.94231427      -0.89688523       0.38499194
O       -1.21044368      -1.23037729      -0.94453420
H        1.97867170      -1.14763560      -0.10951249
H        1.15146573      -0.18839183      -1.32453212
H        2.17135387       0.62075039      -0.12879901
H        0.60861880      -0.06562725       1.72321988
H       -1.79743501       0.04814699       1.11893189
H       -0.02270028       2.35104220      -0.90004962
H       -1.00155840      -1.78705840       1.00487800
H       -1.32850427      -0.40106962      -1.42282234
14
Frame=16 idx=006013 GeodesicLength=1.2343670470333872 rxn_smarts="[C:1]([C@@:2]1([H:10])[C@:3]([O:4][H:12])([H:11])[C@:5]1([O:6][H:14])[H:13])([H:7])([H:8])[H:9]>>[C:1]([C@@:2]([C:3][O:4][H:12])([C:5]([O:6][H:14])([H:11])[H:13])[H:10])([H:7])([H:8])[H:9]"
C        1.46866921      -0.20641815      -0.28089610
C        0.30273710      -0.08122549       0.67138977
C       -0.76359418       0.91388967       0.38765763
O       -0.56969561       2.09994597      -0.14908538
C       -0.94532564      -0.89832620       0.37961263
O       -1.20427862      -1.23981790      -0.95173276
H        1.98053333      -1.15154186      -0.09319403
H        1.15600681      -0.20604618      -1.32403287
H        2.16485994       0.62245105      -0.13933747
H        0.59798882      -0.04609870       1.71982069
H       -1.80197971       0.05092393       1.12845114
H       -0.05924782       2.34670057      -0.91545492
H       -0.98892985      -1.79074146       0.99770660
H       -1.33774379      -0.41369523      -1.43090492
