10
Frame=0 idx=004766 GeodesicLength=0.0 rxn_smarts="[O:1]=[C:2]([C:3]([O:4][C:5](=[O:6])[H:10])([H:8])[H:9])[H:7]>>[C-:5]#[O+:6].[H:9][H:10].[O:1]=[C:2]([C:3](=[O:4])[H:8])[H:7]"
O        1.54234697       1.46281535       0.23385489
C        1.53760354       0.28480299       0.03077684
C        0.35756959      -0.44223168      -0.59071985
O       -0.57026612       0.20213357      -1.12615314
C       -1.91169264       0.48376757       0.20963363
O       -2.80531566       1.14712653       0.02321290
H        2.39467619      -0.36623983       0.30209607
H        0.53284088      -1.49377481      -0.86198945
H       -0.15064612      -0.84935072       0.83625162
H       -0.92711662      -0.42904897       0.94303649
10
Frame=1 idx=004766 GeodesicLength=0.0762144800943186 rxn_smarts="[O:1]=[C:2]([C:3]([O:4][C:5](=[O:6])[H:10])([H:8])[H:9])[H:7]>>[C-:5]#[O+:6].[H:9][H:10].[O:1]=[C:2]([C:3](=[O:4])[H:8])[H:7]"
O        1.52130848       1.47633639       0.21277167
C        1.52983436       0.29498171       0.03050047
C        0.36204297      -0.45542347      -0.58712483
O       -0.57474568       0.17753883      -1.12798175
C       -1.91918280       0.47238105       0.20162989
O       -2.76105191       1.20984989       0.04444116
H        2.39536563      -0.34053598       0.31145265
H        0.56328144      -1.49816299      -0.87328123
H       -0.15765192      -0.87492904       0.83719081
H       -0.95920057      -0.46203639       0.95040114
10
Frame=2 idx=004766 GeodesicLength=0.15297248451312068 rxn_smarts="[O:1]=[C:2]([C:3]([O:4][C:5](=[O:6])[H:10])([H:8])[H:9])[H:7]>>[C-:5]#[O+:6].[H:9][H:10].[O:1]=[C:2]([C:3](=[O:4])[H:8])[H:7]"
O        1.49867899       1.48993343       0.19027360
C        1.52078128       0.30559258       0.03021599
C        0.36640941      -0.46896239      -0.58366326
O       -0.57928479       0.15176159      -1.13059843
C       -1.92442459       0.46508688       0.19388877
O       -2.71122094       1.26908770       0.06812808
H        2.39429255      -0.31368930       0.32227862
H        0.59403794      -1.50203634      -0.88408069
H       -0.16567836      -0.90066500       0.83762322
H       -0.99359149      -0.49610917       0.95593410
10
Frame=3 idx=004766 GeodesicLength=0.23028722014727776 rxn_smarts="[O:1]=[C:2]([C:3]([O:4][C:5](=[O:6])[H:10])([H:8])[H:9])[H:7]>>[C-:5]#[O+:6].[H:9][H:10].[O:1]=[C:2]([C:3](=[O:4])[H:8])[H:7]"
O        1.47597181       1.50320181       0.16652956
C        1.51114135       0.31631230       0.02981537
C        0.37067438      -0.48230419      -0.58012673
O       -0.58364033       0.12605846      -1.13341555
C       -1.92828104       0.46070868       0.18635365
O       -2.65771310       1.32358388       0.09317225
H        2.39184144      -0.28662418       0.33403541
H        0.62438327      -1.50493955      -0.89444072
H       -0.17454520      -0.92597595       0.83785669
H       -1.02983258      -0.53002126       0.96022007
10
Frame=4 idx=004766 GeodesicLength=0.3084807849307102 rxn_smarts="[O:1]=[C:2]([C:3]([O:4][C:5](=[O:6])[H:10])([H:8])[H:9])[H:7]>>[C-:5]#[O+:6].[H:9][H:10].[O:1]=[C:2]([C:3](=[O:4])[H:8])[H:7]"
O        1.45346788       1.51623432       0.14119870
C        1.50099427       0.32717568       0.02933428
C        0.37491525      -0.49539522      -0.57650257
O       -0.58776797       0.10056686      -1.13638276
C       -1.93107657       0.45856600       0.17893887
O       -2.60081375       1.37373717       0.11965519
H        2.38802600      -0.25936600       0.34689747
H        0.65436611      -1.50689719      -0.90441554
H       -0.18418821      -0.95094418       0.83795765
H       -1.06792300      -0.56367743       0.96331870
10
Frame=5 idx=004766 GeodesicLength=0.3873391660606287 rxn_smarts="[O:1]=[C:2]([C:3]([O:4][C:5](=[O:6])[H:10])([H:8])[H:9])[H:7]>>[C-:5]#[O+:6].[H:9][H:10].[O:1]=[C:2]([C:3](=[O:4])[H:8])[H:7]"
O        1.43005172       1.52887162       0.11513248
C        1.48994721       0.33833958       0.02866164
C        0.37896555      -0.50844322      -0.57271790
O       -0.59213362       0.07456812      -1.13915931
C       -1.93217761       0.45878449       0.17264415
O       -2.53932062       1.42021479       0.14629645
H        2.38279931      -0.23123581       0.36020288
H        0.68411790      -1.50781708      -0.91403835
H       -0.19457893      -0.97608372       0.83768318
H       -1.10767092      -0.59719879       0.96529478
10
Frame=6 idx=004766 GeodesicLength=0.46630979519703497 rxn_smarts="[O:1]=[C:2]([C:3]([O:4][C:5](=[O:6])[H:10])([H:8])[H:9])[H:7]>>[C-:5]#[O+:6].[H:9][H:10].[O:1]=[C:2]([C:3](=[O:4])[H:8])[H:7]"
O        1.40955312       1.54060693       0.08802281
C        1.47979957       0.34906924       0.02775543
C        0.38309726      -0.52043143      -0.56854065
O       -0.59571414       0.05081859      -1.14126349
C       -1.93327431       0.46006492       0.16620362
O       -2.47900508       1.46008638       0.17284217
H        2.37720419      -0.20450910       0.37364231
H        0.71224302      -1.50729970      -0.92333602
H       -0.20534541      -0.99999634       0.83763410
H       -1.14855822      -0.62840950       0.96703973
10
Frame=7 idx=004766 GeodesicLength=0.545491002368504 rxn_smarts="[O:1]=[C:2]([C:3]([O:4][C:5](=[O:6])[H:10])([H:8])[H:9])[H:7]>>[C-:5]#[O+:6].[H:9][H:10].[O:1]=[C:2]([C:3](=[O:4])[H:8])[H:7]"
O        1.39090261       1.55158327       0.06004341
C        1.47016626       0.35959570       0.02655008
C        0.38730211      -0.53173334      -0.56401784
O       -0.59879560       0.02841723      -1.14282423
C       -1.93396010       0.46248412       0.15989628
O       -2.41882568       1.49472474       0.19942459
H        2.37111834      -0.17845992       0.38726214
H        0.73928273      -1.50558265      -0.93234222
H       -0.21644986      -1.02321001       0.83763804
H       -1.19074082      -0.65781915       0.96836975
10
Frame=8 idx=004766 GeodesicLength=0.6249840379152821 rxn_smarts="[O:1]=[C:2]([C:3]([O:4][C:5](=[O:6])[H:10])([H:8])[H:9])[H:7]>>[C-:5]#[O+:6].[H:9][H:10].[O:1]=[C:2]([C:3](=[O:4])[H:8])[H:7]"
O        1.37413313       1.56194800       0.03069756
C        1.46096052       0.37005272       0.02515777
C        0.39164445      -0.54242154      -0.55912745
O       -0.60136769       0.00715782      -1.14392558
C       -1.93430006       0.46583605       0.15357616
O       -2.35860283       1.52471302       0.22659765
H        2.36451636      -0.15281243       0.40127483
H        0.76542102      -1.50280556      -0.94094527
H       -0.22785985      -1.04585515       0.83769796
H       -1.23454505      -0.68581293       0.96899639
10
Frame=9 idx=004766 GeodesicLength=0.7052336461308348 rxn_smarts="[O:1]=[C:2]([C:3]([O:4][C:5](=[O:6])[H:10])([H:8])[H:9])[H:7]>>[C-:5]#[O+:6].[H:9][H:10].[O:1]=[C:2]([C:3](=[O:4])[H:8])[H:7]"
O        1.35730267       1.57181415       0.00071340
C        1.45147351       0.38072728       0.02341994
C        0.39604980      -0.55295025      -0.55400051
O       -0.60391138      -0.01418328      -1.14470767
C       -1.93357867       0.47043880       0.14782251
O       -2.29596077       1.55131109       0.25409133
H        2.35703218      -0.12656340       0.41556452
H        0.79121724      -1.49918348      -0.94917740
H       -0.23958853      -1.06869412       0.83748824
H       -1.28003606      -0.71271680       0.96878565
10
Frame=10 idx=004766 GeodesicLength=0.7855146337152907 rxn_smarts="[O:1]=[C:2]([C:3]([O:4][C:5](=[O:6])[H:10])([H:8])[H:9])[H:7]>>[C-:5]#[O+:6].[H:9][H:10].[O:1]=[C:2]([C:3](=[O:4])[H:8])[H:7]"
O        1.34278384       1.58093559      -0.03031922
C        1.44279608       0.39126698       0.02139214
C        0.40069651      -0.56278754      -0.54841286
O       -0.60583542      -0.03413992      -1.14484857
C       -1.93260129       0.47575902       0.14209510
O       -2.23468062       1.57326545       0.28188522
H        2.34951242      -0.10085354       0.42974926
H        0.81594287      -1.49461954      -0.95691711
H       -0.25132727      -1.09087888       0.83746371
H       -1.32728712      -0.73794762       0.96791234
10
Frame=11 idx=004766 GeodesicLength=0.8660177226105243 rxn_smarts="[O:1]=[C:2]([C:3]([O:4][C:5](=[O:6])[H:10])([H:8])[H:9])[H:7]>>[C-:5]#[O+:6].[H:9][H:10].[O:1]=[C:2]([C:3](=[O:4])[H:8])[H:7]"
O        1.32971759       1.58938334      -0.06215104
C        1.43464352       0.40181280       0.01897842
C        0.40558833      -0.57217501      -0.54240975
O       -0.60732088      -0.05331648      -1.14443768
C       -1.93105851       0.48189701       0.13656513
O       -2.17381931       1.59127512       0.31008045
H        2.34182876      -0.07518512       0.44380624
H        0.83992113      -1.48928074      -0.96416645
H       -0.26302599      -1.11275982       0.83751937
H       -1.37647462      -0.76165110       0.96621532
10
Frame=12 idx=004766 GeodesicLength=0.9466750946740394 rxn_smarts="[O:1]=[C:2]([C:3]([O:4][C:5](=[O:6])[H:10])([H:8])[H:9])[H:7]>>[C-:5]#[O+:6].[H:9][H:10].[O:1]=[C:2]([C:3](=[O:4])[H:8])[H:7]"
O        1.31830071       1.59717118      -0.09508213
C        1.42705945       0.41242057       0.01621536
C        0.41077485      -0.58109474      -0.53593665
O       -0.60833220      -0.07172296      -1.14344554
C       -1.92897935       0.48875458       0.13120132
O       -2.11355858       1.60544974       0.33898774
H        2.33406213      -0.04945020       0.45772931
H        0.86316990      -1.48325139      -0.97079863
H       -0.27458538      -1.13431841       0.83772305
H       -1.42791153      -0.78395837       0.96340617
10
Frame=13 idx=004766 GeodesicLength=1.0278730531501965 rxn_smarts="[O:1]=[C:2]([C:3]([O:4][C:5](=[O:6])[H:10])([H:8])[H:9])[H:7]>>[C-:5]#[O+:6].[H:9][H:10].[O:1]=[C:2]([C:3](=[O:4])[H:8])[H:7]"
O        1.30743313       1.60438117      -0.12871016
C        1.41965710       0.42323662       0.01299618
C        0.41624790      -0.58978420      -0.52907891
O       -0.60910108      -0.09001944      -1.14195148
C       -1.92595367       0.49648713       0.12627641
O       -2.05253073       1.61632298       0.36853471
H        2.32595858      -0.02310171       0.47150457
H        0.88599530      -1.47666916      -0.97685029
H       -0.28594098      -1.15600742       0.83791384
H       -1.48176555      -0.80484597       0.95936511
10
Frame=14 idx=004766 GeodesicLength=1.1091133076804134 rxn_smarts="[O:1]=[C:2]([C:3]([O:4][C:5](=[O:6])[H:10])([H:8])[H:9])[H:7]>>[C-:5]#[O+:6].[H:9][H:10].[O:1]=[C:2]([C:3](=[O:4])[H:8])[H:7]"
O        1.29813794       1.61090401      -0.16331999
C        1.41294796       0.43415696       0.00930190
C        0.42211003      -0.59803086      -0.52168374
O       -0.60938115      -0.10766212      -1.13977523
C       -1.92230601       0.50484150       0.12161524
O       -1.99243276       1.62351607       0.39896132
H        2.31802195       0.00349581       0.48482618
H        0.90811957      -1.46959600      -0.98214878
H       -0.29685266      -1.17740845       0.83839324
H       -1.53836486      -0.82421692       0.95382986
10
Frame=15 idx=004766 GeodesicLength=1.1904649670821938 rxn_smarts="[O:1]=[C:2]([C:3]([O:4][C:5](=[O:6])[H:10])([H:8])[H:9])[H:7]>>[C-:5]#[O+:6].[H:9][H:10].[O:1]=[C:2]([C:3](=[O:4])[H:8])[H:7]"
O        1.28997516       1.61676223      -0.19868000
C        1.40687624       0.44522738       0.00501951
C        0.42840033      -0.60593168      -0.51374092
O       -0.60922660      -0.12492243      -1.13690189
C       -1.91787571       0.51383966       0.11730175
O       -1.93294264       1.62720560       0.43036644
H        2.31030113       0.03057448       0.49752202
H        0.92966141      -1.46216575      -0.98664950
H       -0.30716688      -1.19864839       0.83920778
H       -1.59800244      -0.84194110       0.94655482
10
Frame=16 idx=004766 GeodesicLength=1.2718265662552215 rxn_smarts="[O:1]=[C:2]([C:3]([O:4][C:5](=[O:6])[H:10])([H:8])[H:9])[H:7]>>[C-:5]#[O+:6].[H:9][H:10].[O:1]=[C:2]([C:3](=[O:4])[H:8])[H:7]"
O        1.28298919       1.62194754      -0.23491561
C        1.40152552       0.45647756       0.00007744
C        0.43517715      -0.61347412      -0.50518592
O       -0.60861740      -0.14184331      -1.13324757
C       -1.91263806       0.52342043       0.11338107
O       -1.87422415       1.62734217       0.46304042
H        2.30293139       0.05823937       0.50945562
H        0.95063016      -1.45449024      -0.99023364
H       -0.31668244      -1.21969065       0.84050274
H       -1.66109137      -0.85792875       0.93712544
