10
Frame=0 idx=004612 GeodesicLength=0.0 rxn_smarts="[N:1]([c:2]1[c:3]([H:9])[n:4][n:5][n:6]1[H:10])([H:7])[H:8]>>[N:1]([C:2](=[C:3]([N+:4]#[N:5])[H:9])[N-:6][H:10])([H:7])[H:8]"
N       -1.53427967       0.08091585       0.15548672
C       -0.18301129      -0.12959979       0.01719430
C        0.71756206       0.97461167       0.21741681
N        1.95077203       0.51414486       0.08692381
N        2.34544171      -0.54771323      -0.14637903
N        0.39052918      -1.25386835      -0.24007308
H       -2.14799698      -0.59513828      -0.26185733
H       -1.85633940       1.02999625       0.08699337
H        0.50231659       1.99950079       0.45555644
H       -0.18499424      -2.07284977      -0.37126201
10
Frame=1 idx=004612 GeodesicLength=0.018944205322644552 rxn_smarts="[N:1]([c:2]1[c:3]([H:9])[n:4][n:5][n:6]1[H:10])([H:7])[H:8]>>[N:1]([C:2](=[C:3]([N+:4]#[N:5])[H:9])[N-:6][H:10])([H:7])[H:8]"
N       -1.53783006       0.07827740       0.15610286
C       -0.18522907      -0.12886149       0.02100605
C        0.71696506       0.97279821       0.21706750
N        1.95133725       0.51507639       0.08216627
N        2.34276298      -0.55079072      -0.15113480
N        0.39409938      -1.25276593      -0.23269521
H       -2.14716293      -0.58771269      -0.28376800
H       -1.85908339       1.02866275       0.10207117
H        0.50345233       1.99870755       0.45278082
H       -0.17931156      -2.07339147      -0.36359666
10
Frame=2 idx=004612 GeodesicLength=0.03791986530943794 rxn_smarts="[N:1]([c:2]1[c:3]([H:9])[n:4][n:5][n:6]1[H:10])([H:7])[H:8]>>[N:1]([C:2](=[C:3]([N+:4]#[N:5])[H:9])[N-:6][H:10])([H:7])[H:8]"
N       -1.54125982       0.07574724       0.15723033
C       -0.18740816      -0.12812154       0.02505193
C        0.71633520       0.97122497       0.21552297
N        1.95195916       0.51557621       0.07937562
N        2.34006859      -0.55403247      -0.15522326
N        0.39763820      -1.25151638      -0.22571954
H       -2.14623229      -0.58066802      -0.30296998
H       -1.86186570       1.02708302       0.11589186
H        0.50451932       1.99805325       0.44905734
H       -0.17375452      -2.07334629      -0.35821728
10
Frame=3 idx=004612 GeodesicLength=0.05685157785183943 rxn_smarts="[N:1]([c:2]1[c:3]([H:9])[n:4][n:5][n:6]1[H:10])([H:7])[H:8]>>[N:1]([C:2](=[C:3]([N+:4]#[N:5])[H:9])[N-:6][H:10])([H:7])[H:8]"
N       -1.54460967       0.07329277       0.15868901
C       -0.18955567      -0.12730424       0.02889396
C        0.71572709       0.96987165       0.21303550
N        1.95267168       0.51575539       0.07821488
N        2.33741840      -0.55736704      -0.15880252
N        0.40112817      -1.25010260      -0.21937837
H       -2.14537302      -0.57402290      -0.31993355
H       -1.86469382       1.02532250       0.12866970
H        0.50561965       1.99752381       0.44484907
H       -0.16833281      -2.07296933      -0.35423767
10
Frame=4 idx=004612 GeodesicLength=0.07573100096226419 rxn_smarts="[N:1]([c:2]1[c:3]([H:9])[n:4][n:5][n:6]1[H:10])([H:7])[H:8]>>[N:1]([C:2](=[C:3]([N+:4]#[N:5])[H:9])[N-:6][H:10])([H:7])[H:8]"
N       -1.54787735       0.07087512       0.16042667
C       -0.19167826      -0.12640343       0.03241404
C        0.71512387       0.96863928       0.20995478
N        1.95345915       0.51564539       0.07844523
N        2.33480783      -0.56078648      -0.16183515
N        0.40457618      -1.24849201      -0.21392567
H       -2.14459171      -0.56764500      -0.33514905
H       -1.86754916       1.02341411       0.14083890
H        0.50670635       1.99711749       0.44000744
H       -0.16297691      -2.07236447      -0.35117720
10
Frame=5 idx=004612 GeodesicLength=0.094619545640023 rxn_smarts="[N:1]([c:2]1[c:3]([H:9])[n:4][n:5][n:6]1[H:10])([H:7])[H:8]>>[N:1]([C:2](=[C:3]([N+:4]#[N:5])[H:9])[N-:6][H:10])([H:7])[H:8]"
N       -1.55105049       0.06839888       0.16262601
C       -0.19376994      -0.12543572       0.03557323
C        0.71452969       0.96744573       0.20659141
N        1.95427822       0.51550567       0.07894626
N        2.33233157      -0.56459294      -0.16283440
N        0.40799534      -1.24667981      -0.20949332
H       -2.14394413      -0.56144554      -0.34875303
H       -1.87042414       1.02129506       0.15308728
H        0.50773776       1.99694025       0.43393781
H       -0.15768388      -2.07143157      -0.34968126
10
Frame=6 idx=004612 GeodesicLength=0.11349709638866583 rxn_smarts="[N:1]([c:2]1[c:3]([H:9])[n:4][n:5][n:6]1[H:10])([H:7])[H:8]>>[N:1]([C:2](=[C:3]([N+:4]#[N:5])[H:9])[N-:6][H:10])([H:7])[H:8]"
N       -1.55426506       0.06597226       0.16458804
C       -0.19585679      -0.12460341       0.03933214
C        0.71395353       0.96593394       0.20474599
N        1.95507088       0.51532589       0.07965011
N        2.32977145      -0.56809301      -0.16522529
N        0.41139352      -1.24499848      -0.20444746
H       -2.14309010      -0.55506832      -0.36237478
H       -1.87322196       1.01915944       0.16458590
H        0.50869055       1.99684756       0.42738049
H       -0.15244602      -2.07047587      -0.34823514
10
Frame=7 idx=004612 GeodesicLength=0.1323702037644448 rxn_smarts="[N:1]([c:2]1[c:3]([H:9])[n:4][n:5][n:6]1[H:10])([H:7])[H:8]>>[N:1]([C:2](=[C:3]([N+:4]#[N:5])[H:9])[N-:6][H:10])([H:7])[H:8]"
N       -1.55755877       0.06353103       0.16632609
C       -0.19794244      -0.12402002       0.04418526
C        0.71340487       0.96391918       0.20539630
N        1.95579593       0.51524015       0.07984862
N        2.32709565      -0.57133333      -0.16886709
N        0.41477939      -1.24355793      -0.19828612
H       -2.14186353      -0.54830066      -0.37654629
H       -1.87594524       1.01696824       0.17568414
H        0.50949884       1.99697268       0.41957237
H       -0.14726469      -2.06941935      -0.34731329
10
Frame=8 idx=004612 GeodesicLength=0.15125151925364233 rxn_smarts="[N:1]([c:2]1[c:3]([H:9])[n:4][n:5][n:6]1[H:10])([H:7])[H:8]>>[N:1]([C:2](=[C:3]([N+:4]#[N:5])[H:9])[N-:6][H:10])([H:7])[H:8]"
N       -1.56085211       0.06090364       0.16841574
C       -0.20000641      -0.12362663       0.04974485
C        0.71286764       0.96161954       0.20745088
N        1.95650775       0.51506877       0.08054770
N        2.32443567      -0.57468407      -0.17181585
N        0.41815533      -1.24216753      -0.19205595
H       -2.14042423      -0.54113106      -0.39058445
H       -1.87866673       1.01449021       0.18763072
H        0.51009630       1.99754109       0.40886070
H       -0.14211320      -2.06801395      -0.34819434
10
Frame=9 idx=004612 GeodesicLength=0.17013102989897722 rxn_smarts="[N:1]([c:2]1[c:3]([H:9])[n:4][n:5][n:6]1[H:10])([H:7])[H:8]>>[N:1]([C:2](=[C:3]([N+:4]#[N:5])[H:9])[N-:6][H:10])([H:7])[H:8]"
N       -1.56423821       0.05823509       0.17025931
C       -0.20207105      -0.12352466       0.05667200
C        0.71235254       0.95876193       0.21243111
N        1.95712897       0.51487587       0.08126026
N        2.32156569      -0.57762803      -0.17662406
N        0.42152015      -1.24106623      -0.18442550
H       -2.13843535      -0.53335450      -0.40553837
H       -1.88134323       1.01191660       0.19946465
H        0.51048143       1.99822997       0.39616076
H       -0.13696094      -2.06644604      -0.34966016
10
Frame=10 idx=004612 GeodesicLength=0.18899484355707474 rxn_smarts="[N:1]([c:2]1[c:3]([H:9])[n:4][n:5][n:6]1[H:10])([H:7])[H:8]>>[N:1]([C:2](=[C:3]([N+:4]#[N:5])[H:9])[N-:6][H:10])([H:7])[H:8]"
N       -1.56742930       0.05563859       0.17258364
C       -0.20410780      -0.12302986       0.06178177
C        0.71181245       0.95649319       0.21452960
N        1.95781429       0.51482453       0.08158204
N        2.31903159      -0.58130662      -0.17765037
N        0.42483284      -1.23945655      -0.17923156
H       -2.13703335      -0.52625774      -0.41776317
H       -1.88409405       1.00925020       0.21090524
H        0.51099699       1.99853051       0.38490911
H       -0.13182367      -2.06468624      -0.35164630
10
Frame=11 idx=004612 GeodesicLength=0.20783777117791474 rxn_smarts="[N:1]([c:2]1[c:3]([H:9])[n:4][n:5][n:6]1[H:10])([H:7])[H:8]>>[N:1]([C:2](=[C:3]([N+:4]#[N:5])[H:9])[N-:6][H:10])([H:7])[H:8]"
N       -1.57054649       0.05328557       0.17467558
C       -0.20614029      -0.12225361       0.06576008
C        0.71129776       0.95451102       0.21535854
N        1.95853081       0.51492620       0.08119312
N        2.31657716      -0.58508143      -0.17824716
N        0.42810146      -1.23767679      -0.17468586
H       -2.13596062      -0.51982093      -0.42845059
H       -1.88684086       1.00679198       0.22065035
H        0.51170744       1.99835287       0.37646229
H       -0.12672637      -2.06303487      -0.35271633
10
Frame=12 idx=004612 GeodesicLength=0.2266647448253225 rxn_smarts="[N:1]([c:2]1[c:3]([H:9])[n:4][n:5][n:6]1[H:10])([H:7])[H:8]>>[N:1]([C:2](=[C:3]([N+:4]#[N:5])[H:9])[N-:6][H:10])([H:7])[H:8]"
N       -1.57362252       0.05120589       0.17637086
C       -0.20817780      -0.12124416       0.06885867
C        0.71081870       0.95270053       0.21545193
N        1.95926825       0.51513925       0.08017994
N        2.31411139      -0.58875754      -0.17943890
N        0.43133290      -1.23583407      -0.17023120
H       -2.13511931      -0.51402499      -0.43803241
H       -1.88956479       1.00462864       0.22848413
H        0.51262340       1.99775469       0.37092539
H       -0.12167023      -2.06156823      -0.35256840
10
Frame=13 idx=004612 GeodesicLength=0.2454802678453611 rxn_smarts="[N:1]([c:2]1[c:3]([H:9])[n:4][n:5][n:6]1[H:10])([H:7])[H:8]>>[N:1]([C:2](=[C:3]([N+:4]#[N:5])[H:9])[N-:6][H:10])([H:7])[H:8]"
N       -1.57661991       0.04923617       0.17813075
C       -0.21020452      -0.12002985       0.07104423
C        0.71036450       0.95106208       0.21471118
N        1.96007791       0.51528466       0.07957727
N        2.31174216      -0.59251098      -0.18012430
N        0.43453828      -1.23383506      -0.16647270
H       -2.13463651      -0.50876835      -0.44625645
H       -1.89227114       1.00257184       0.23551562
H        0.51366121       1.99706473       0.36626282
H       -0.11665197      -2.06007524      -0.35238841
10
Frame=14 idx=004612 GeodesicLength=0.26428778885028203 rxn_smarts="[N:1]([c:2]1[c:3]([H:9])[n:4][n:5][n:6]1[H:10])([H:7])[H:8]>>[N:1]([C:2](=[C:3]([N+:4]#[N:5])[H:9])[N-:6][H:10])([H:7])[H:8]"
N       -1.57956921       0.04739429       0.17978434
C       -0.21222832      -0.11865972       0.07254920
C        0.70993336       0.94953318       0.21343629
N        1.96094609       0.51534871       0.07940183
N        2.30939102      -0.59617674      -0.18114498
N        0.43772235      -1.23175935      -0.16299779
H       -2.13439622      -0.50395025      -0.45357976
H       -1.89495464       1.00065972       0.24163123
H        0.51482166       1.99625399       0.36268877
H       -0.11166609      -2.05864382      -0.35176914
10
Frame=15 idx=004612 GeodesicLength=0.28308993883483763 rxn_smarts="[N:1]([c:2]1[c:3]([H:9])[n:4][n:5][n:6]1[H:10])([H:7])[H:8]>>[N:1]([C:2](=[C:3]([N+:4]#[N:5])[H:9])[N-:6][H:10])([H:7])[H:8]"
N       -1.58251988       0.04570515       0.18105081
C       -0.21425703      -0.11721688       0.07378831
C        0.70953081       0.94798338       0.21233537
N        1.96182545       0.51540088       0.07921843
N        2.30694834      -0.59956492      -0.18352835
N        0.44088697      -1.22969682      -0.15933189
H       -2.13417232      -0.49937351      -0.46073306
H       -1.89761565       0.99893909       0.24663308
H        0.51608536       1.99524557       0.36058039
H       -0.10671204      -2.05742197      -0.35001311
10
Frame=16 idx=004612 GeodesicLength=0.30188925335767075 rxn_smarts="[N:1]([c:2]1[c:3]([H:9])[n:4][n:5][n:6]1[H:10])([H:7])[H:8]>>[N:1]([C:2](=[C:3]([N+:4]#[N:5])[H:9])[N-:6][H:10])([H:7])[H:8]"
N       -1.58542685       0.04400947       0.18241219
C       -0.21627315      -0.11571574       0.07467701
C        0.70913664       0.94647215       0.21102143
N        1.96274770       0.51536716       0.07957124
N        2.30456731      -0.60297617      -0.18559179
N        0.44403894      -1.22755757      -0.15607700
H       -2.13411047      -0.49493180      -0.46732631
H       -1.90026119       0.99719670       0.25161821
H        0.51736355       1.99428310       0.35818695
H       -0.10178248      -2.05614731      -0.34849193
