12
Frame=0 idx=004859 GeodesicLength=0.0 rxn_smarts="[C:1]([N:2](/[C:3](=[N:4]/[H:11])[H:10])[C:5](=[O:6])[H:12])([H:7])([H:8])[H:9]>>[C:1]([N:2]=[C:3]=[N:4][H:11])([H:7])([H:8])[H:9].[C:5](=[O:6])([H:10])[H:12]"
C        1.20474452      -0.51817436       0.95755767
N       -0.01661801       0.07412976       0.44745570
C       -0.95114955      -0.51817839      -0.18659060
N       -1.67479566      -1.45186288      -0.46010068
C       -0.06614098       1.36883709      -0.54065002
O        0.86327411       1.49284566      -1.32277957
H        2.02497076      -0.18337043       0.31883096
H        1.14285130      -1.60521185       0.92911056
H        1.37880851      -0.19109461       1.98182098
H       -1.16253233       0.89295390      -0.97874442
H       -2.28799159      -1.53183263      -1.25069132
H       -0.45542112       2.17095873       0.10478073
12
Frame=1 idx=004859 GeodesicLength=0.07623135413246311 rxn_smarts="[C:1]([N:2](/[C:3](=[N:4]/[H:11])[H:10])[C:5](=[O:6])[H:12])([H:7])([H:8])[H:9]>>[C:1]([N:2]=[C:3]=[N:4][H:11])([H:7])([H:8])[H:9].[C:5](=[O:6])([H:10])[H:12]"
C        1.20002038      -0.52307358       0.95145538
N       -0.01894140       0.07356691       0.44154774
C       -0.95786243      -0.51819684      -0.18933430
N       -1.67763105      -1.46483665      -0.43421893
C       -0.05342218       1.38436371      -0.55068187
O        0.89029804       1.51693442      -1.31206496
H        2.02657265      -0.16295994       0.33549525
H        1.15188703      -1.60974886       0.89474959
H        1.35231474      -0.22158120       1.98703772
H       -1.15996704       0.89385389      -0.99319692
H       -2.29613736      -1.55195003      -1.22054960
H       -0.45713137       2.18362817       0.08976089
12
Frame=2 idx=004859 GeodesicLength=0.15271359980634558 rxn_smarts="[C:1]([N:2](/[C:3](=[N:4]/[H:11])[H:10])[C:5](=[O:6])[H:12])([H:7])([H:8])[H:9]>>[C:1]([N:2]=[C:3]=[N:4][H:11])([H:7])([H:8])[H:9].[C:5](=[O:6])([H:10])[H:12]"
C        1.19537221      -0.52791901       0.94510703
N       -0.02129777       0.07262829       0.43507646
C       -0.96420261      -0.51896258      -0.19307615
N       -1.68059680      -1.47758733      -0.40781157
C       -0.04034817       1.40006889      -0.56073215
O        0.91830088       1.54221877      -1.29955696
H        2.02785136      -0.14270268       0.35309316
H        1.16162744      -1.61341139       0.86017367
H        1.32544582      -0.25257868       1.99106500
H       -1.15663009       0.89398132      -1.00883667
H       -2.30569982      -1.57170087      -1.18874792
H       -0.45982246       2.19596527       0.07424611
12
Frame=3 idx=004859 GeodesicLength=0.22871113166647555 rxn_smarts="[C:1]([N:2](/[C:3](=[N:4]/[H:11])[H:10])[C:5](=[O:6])[H:12])([H:7])([H:8])[H:9]>>[C:1]([N:2]=[C:3]=[N:4][H:11])([H:7])([H:8])[H:9].[C:5](=[O:6])([H:10])[H:12]"
C        1.19060548      -0.53285692       0.93837552
N       -0.02375588       0.07150238       0.42827057
C       -0.97051101      -0.51994999      -0.19708194
N       -1.68415519      -1.48928994      -0.38013875
C       -0.02704299       1.41599844      -0.57073555
O        0.94664468       1.56842818      -1.28535087
H        2.02818771      -0.12335351       0.37095481
H        1.17143390      -1.61619780       0.82580818
H        1.29877522      -0.28406909       1.99344428
H       -1.15271470       0.89371820      -1.02516211
H       -2.31434897      -1.59198027      -1.15651881
H       -0.46311824       2.20805032       0.05813467
12
Frame=4 idx=004859 GeodesicLength=0.3044991935011342 rxn_smarts="[C:1]([N:2](/[C:3](=[N:4]/[H:11])[H:10])[C:5](=[O:6])[H:12])([H:7])([H:8])[H:9]>>[C:1]([N:2]=[C:3]=[N:4][H:11])([H:7])([H:8])[H:9].[C:5](=[O:6])([H:10])[H:12]"
C        1.18581072      -0.53783706       0.93131717
N       -0.02637787       0.07024071       0.42122865
C       -0.97712097      -0.52115802      -0.20113916
N       -1.68836248      -1.49998942      -0.35144601
C       -0.01352517       1.43209864      -0.58065392
O        0.97524210       1.59517423      -1.26957262
H        2.02784379      -0.10499885       0.38894251
H        1.18127634      -1.61819982       0.79168685
H        1.27247425      -0.31569478       1.99432252
H       -1.14856647       0.89308680      -1.04190070
H       -2.32189451      -1.61276579      -1.12428739
H       -0.46679973       2.22004336       0.04150210
12
Frame=5 idx=004859 GeodesicLength=0.38042391088627603 rxn_smarts="[C:1]([N:2](/[C:3](=[N:4]/[H:11])[H:10])[C:5](=[O:6])[H:12])([H:7])([H:8])[H:9]>>[C:1]([N:2]=[C:3]=[N:4][H:11])([H:7])([H:8])[H:9].[C:5](=[O:6])([H:10])[H:12]"
C        1.18104775      -0.54277207       0.92396727
N       -0.02908193       0.06868283       0.41381777
C       -0.98371573      -0.52297037      -0.20552761
N       -1.69224681      -1.51051595      -0.32250445
C        0.00029370       1.44835952      -0.59050671
O        1.00434247       1.62301614      -1.25176587
H        2.02690452      -0.08739904       0.40713311
H        1.19128213      -1.61939342       0.75800189
H        1.24642087      -0.34735936       1.99376261
H       -1.14371345       0.89158776      -1.05952311
H       -2.33023621      -1.63294345      -1.09102171
H       -0.47129733       2.23170741       0.02416683
12
Frame=6 idx=004859 GeodesicLength=0.4562778420550108 rxn_smarts="[C:1]([N:2](/[C:3](=[N:4]/[H:11])[H:10])[C:5](=[O:6])[H:12])([H:7])([H:8])[H:9]>>[C:1]([N:2]=[C:3]=[N:4][H:11])([H:7])([H:8])[H:9].[C:5](=[O:6])([H:10])[H:12]"
C        1.17623075      -0.54770872       0.91639965
N       -0.03197821       0.06699586       0.40631259
C       -0.99080349      -0.52500261      -0.20948005
N       -1.69579040      -1.52064366      -0.29367317
C        0.01433955       1.46473685      -0.60036913
O        1.03342120       1.65107573      -1.23263470
H        2.02521328      -0.07069375       0.42536410
H        1.20132594      -1.61989613       0.72475133
H        1.22072382      -0.37901186       1.99186906
H       -1.13885160       0.88973000      -1.07718145
H       -2.33797867      -1.65296882      -1.05749112
H       -0.47585216       2.24338711       0.00613290
12
Frame=7 idx=004859 GeodesicLength=0.5319481306267426 rxn_smarts="[C:1]([N:2](/[C:3](=[N:4]/[H:11])[H:10])[C:5](=[O:6])[H:12])([H:7])([H:8])[H:9]>>[C:1]([N:2]=[C:3]=[N:4][H:11])([H:7])([H:8])[H:9].[C:5](=[O:6])([H:10])[H:12]"
C        1.17141104      -0.55260190       0.90848478
N       -0.03495697       0.06504995       0.39847770
C       -0.99798491      -0.52751802      -0.21354849
N       -1.69901475      -1.53049610      -0.26456109
C        0.02868035       1.48123907      -0.61007338
O        1.06269975       1.68021511      -1.21110794
H        2.02284151      -0.05507405       0.44335012
H        1.21117260      -1.61966176       0.69220574
H        1.19564029      -0.41032675       1.98841856
H       -1.13320576       0.88691663      -1.09565943
H       -2.34612328      -1.67237209      -1.02324654
H       -0.48115987       2.25462991      -0.01274003
12
Frame=8 idx=004859 GeodesicLength=0.6075665542618933 rxn_smarts="[C:1]([N:2](/[C:3](=[N:4]/[H:11])[H:10])[C:5](=[O:6])[H:12])([H:7])([H:8])[H:9]>>[C:1]([N:2]=[C:3]=[N:4][H:11])([H:7])([H:8])[H:9].[C:5](=[O:6])([H:10])[H:12]"
C        1.16640079      -0.55758638       0.90025197
N       -0.03827384       0.06328057       0.39090144
C       -1.00637963      -0.52963941      -0.21620176
N       -1.70259246      -1.53941089      -0.23481768
C        0.04324354       1.49794828      -0.61975124
O        1.09158450       1.70918299      -1.18854619
H        2.01963594      -0.04102832       0.46046870
H        1.22015181      -1.61903354       0.66039621
H        1.17151890      -0.44123760       1.98358653
H       -1.12802344       0.88413563      -1.11349350
H       -2.35132352      -1.69286480      -0.99049213
H       -0.48594257       2.26625346      -0.03230233
12
Frame=9 idx=004859 GeodesicLength=0.6831118394838411 rxn_smarts="[C:1]([N:2](/[C:3](=[N:4]/[H:11])[H:10])[C:5](=[O:6])[H:12])([H:7])([H:8])[H:9]>>[C:1]([N:2]=[C:3]=[N:4][H:11])([H:7])([H:8])[H:9].[C:5](=[O:6])([H:10])[H:12]"
C        1.16125240      -0.56266416       0.89162099
N       -0.04182371       0.06153388       0.38329783
C       -1.01551560      -0.53164755      -0.21812171
N       -1.70651658      -1.54739052      -0.20429289
C        0.05812742       1.51490328      -0.62934800
O        1.12035518       1.73875578      -1.16403288
H        2.01575616      -0.02834667       0.47687048
H        1.22845910      -1.61801977       0.62909920
H        1.14817247      -0.47186172       1.97737340
H       -1.12255934       0.88089202      -1.13155140
H       -2.35482693      -1.71406297      -0.95811540
H       -0.49088056       2.27790838      -0.05279963
12
Frame=10 idx=004859 GeodesicLength=0.7586722596549397 rxn_smarts="[C:1]([N:2](/[C:3](=[N:4]/[H:11])[H:10])[C:5](=[O:6])[H:12])([H:7])([H:8])[H:9]>>[C:1]([N:2]=[C:3]=[N:4][H:11])([H:7])([H:8])[H:9].[C:5](=[O:6])([H:10])[H:12]"
C        1.15615992      -0.56773768       0.88267996
N       -0.04545580       0.05957945       0.37542539
C       -1.02486633      -0.53403161      -0.21991681
N       -1.71017074      -1.55506091      -0.17361067
C        0.07339424       1.53200273      -0.63892544
O        1.14910110       1.76930431      -1.13700689
H        2.01139179      -0.01632517       0.49325658
H        1.23689911      -1.61643203       0.59793592
H        1.12521003      -0.50253504       1.96996061
H       -1.11629284       0.87661473      -1.15048745
H       -2.35891201      -1.73460128      -0.92474310
H       -0.49645848       2.28922252      -0.07456808
12
Frame=11 idx=004859 GeodesicLength=0.834175418167912 rxn_smarts="[C:1]([N:2](/[C:3](=[N:4]/[H:11])[H:10])[C:5](=[O:6])[H:12])([H:7])([H:8])[H:9]>>[C:1]([N:2]=[C:3]=[N:4][H:11])([H:7])([H:8])[H:9].[C:5](=[O:6])([H:10])[H:12]"
C        1.15085953      -0.57293383       0.87327386
N       -0.04937080       0.05772985       0.36761405
C       -1.03510801      -0.53612623      -0.22073103
N       -1.71448508      -1.56144812      -0.14174097
C        0.08908062       1.54936007      -0.64846574
O        1.17752114       1.80036739      -1.10789342
H        2.00638814      -0.00555638       0.50890493
H        1.24456194      -1.61450428       0.56691741
H        1.10293187      -0.53312640       1.96121426
H       -1.10970405       0.87184720      -1.16957016
H       -2.36069711      -1.75621686      -0.89196387
H       -0.50197818       2.30060760      -0.09755931
12
Frame=12 idx=004859 GeodesicLength=0.9100157072724847 rxn_smarts="[C:1]([N:2](/[C:3](=[N:4]/[H:11])[H:10])[C:5](=[O:6])[H:12])([H:7])([H:8])[H:9]>>[C:1]([N:2]=[C:3]=[N:4][H:11])([H:7])([H:8])[H:9].[C:5](=[O:6])([H:10])[H:12]"
C        1.14588817      -0.57805499       0.86356569
N       -0.05326146       0.05545183       0.35928950
C       -1.04517514      -0.53910561      -0.22224871
N       -1.71859289      -1.56766211      -0.10990088
C        0.10525938       1.56685256      -0.65790660
O        1.20584127       1.83300825      -1.07528024
H        2.00132060       0.00498496       0.52490995
H        1.25296167      -1.61190370       0.53568967
H        1.08096873      -0.56391881       1.95146650
H       -1.10165039       0.86535597      -1.19041985
H       -2.36486131      -1.77625311      -0.85699874
H       -0.50869863       2.31124476      -0.12216629
12
Frame=13 idx=004859 GeodesicLength=0.985699000841384 rxn_smarts="[C:1]([N:2](/[C:3](=[N:4]/[H:11])[H:10])[C:5](=[O:6])[H:12])([H:7])([H:8])[H:9]>>[C:1]([N:2]=[C:3]=[N:4][H:11])([H:7])([H:8])[H:9].[C:5](=[O:6])([H:10])[H:12]"
C        1.14053204      -0.58336464       0.85325652
N       -0.05744437       0.05337098       0.35112806
C       -1.05611679      -0.54158372      -0.22224394
N       -1.72308402      -1.57265798      -0.07671797
C        0.12200391       1.58462818      -0.66741744
O        1.23353134       1.86624911      -1.04016145
H        1.99520965       0.01449427       0.54030227
H        1.26058403      -1.60894755       0.50419167
H        1.05941159      -0.59511454       1.94007882
H       -1.09286587       0.85817245      -1.21133843
H       -2.36657151      -1.79725318      -0.82236774
H       -0.51518999       2.32200661      -0.14871037
12
Frame=14 idx=004859 GeodesicLength=1.060819447415507 rxn_smarts="[C:1]([N:2](/[C:3](=[N:4]/[H:11])[H:10])[C:5](=[O:6])[H:12])([H:7])([H:8])[H:9]>>[C:1]([N:2]=[C:3]=[N:4][H:11])([H:7])([H:8])[H:9].[C:5](=[O:6])([H:10])[H:12]"
C        1.13566233      -0.58856956       0.84271921
N       -0.06142005       0.05064435       0.34238704
C       -1.06633301      -0.54508331      -0.22311287
N       -1.72591799      -1.57821734      -0.04482702
C        0.13913650       1.60232358      -0.67677822
O        1.26013135       1.90131540      -1.00050603
H        1.98882430       0.02366094       0.55595271
H        1.26920058      -1.60511676       0.47298307
H        1.03856132      -0.62631292       1.92759946
H       -1.08194699       0.84875113      -1.23434841
H       -2.37271860      -1.81467626      -0.78450386
H       -0.52317974       2.33128073      -0.17756508
12
Frame=15 idx=004859 GeodesicLength=1.1363429418917572 rxn_smarts="[C:1]([N:2](/[C:3](=[N:4]/[H:11])[H:10])[C:5](=[O:6])[H:12])([H:7])([H:8])[H:9]>>[C:1]([N:2]=[C:3]=[N:4][H:11])([H:7])([H:8])[H:9].[C:5](=[O:6])([H:10])[H:12]"
C        1.13063556      -0.59389522       0.83163328
N       -0.06576980       0.04809512       0.33387961
C       -1.07760749      -0.54822253      -0.22284971
N       -1.72954161      -1.58254935      -0.01176351
C        0.15696781       1.62034966      -0.68605682
O        1.28572370       1.93712891      -0.95779173
H        1.98204224       0.03163035       0.57056131
H        1.27692467      -1.60113840       0.44166307
H        1.01855279      -0.65734092       1.91389328
H       -1.07025487       0.83835855      -1.25764407
H       -2.37677751      -1.83300488      -0.74705960
H       -0.53089549       2.34058872      -0.20846512
12
Frame=16 idx=004859 GeodesicLength=1.2119099881656241 rxn_smarts="[C:1]([N:2](/[C:3](=[N:4]/[H:11])[H:10])[C:5](=[O:6])[H:12])([H:7])([H:8])[H:9]>>[C:1]([N:2]=[C:3]=[N:4][H:11])([H:7])([H:8])[H:9].[C:5](=[O:6])([H:10])[H:12]"
C        1.12544815      -0.59934019       0.81998371
N       -0.07047010       0.04569845       0.32561805
C       -1.08976523      -0.55093162      -0.22155265
N       -1.73371902      -1.58558319       0.02231109
C        0.17553242       1.63863621      -0.69522446
O        1.30986210       1.97368881      -0.91166265
H        1.97480589       0.03841318       0.58410212
H        1.28373699      -1.59692926       0.41019665
H        0.99944852      -0.68826120       1.89896301
H       -1.05758449       0.82689666      -1.28128322
H       -2.37902528      -1.85196488      -0.70974295
H       -0.53826996       2.34967703      -0.24170868
