11
Frame=0 idx=000119 GeodesicLength=0.0 rxn_smarts="[N:1](=[C:2]1/[C:3]([H:8])([H:9])[O:4][C:5]([H:10])([H:11])[O:6]1)\[H:7]>>[N:1](=[C:2](\[O:6][C:5]([O+:4]=[C-:3][H:9])([H:10])[H:11])[H:8])\[H:7]"
N        1.87005475      -1.05982030      -0.44150796
C        0.67024895      -0.65324720      -0.37578617
C       -0.51892202      -0.61874423       1.05410435
O       -1.42735677       0.19108432       0.57159433
C       -0.67808867       1.22818190      -0.09385511
O        0.24473718       0.58047930      -0.90470524
H        2.50280355      -0.29459346      -0.65556985
H       -0.11168210      -1.46067201      -0.50189594
H       -0.99886610      -1.55502536       1.38043323
H       -1.36648092       1.80639472      -0.70552298
H       -0.18644783       1.83596236       0.67271136
11
Frame=1 idx=000119 GeodesicLength=0.06813883150498601 rxn_smarts="[N:1](=[C:2]1/[C:3]([H:8])([H:9])[O:4][C:5]([H:10])([H:11])[O:6]1)\[H:7]>>[N:1](=[C:2](\[O:6][C:5]([O+:4]=[C-:3][H:9])([H:10])[H:11])[H:8])\[H:7]"
N        1.86817397      -1.04860104      -0.45195862
C        0.66389728      -0.65635158      -0.40929124
C       -0.51368117      -0.63161606       1.04318794
O       -1.41988510       0.19413694       0.57702793
C       -0.67243877       1.22542800      -0.09660268
O        0.23027946       0.57528192      -0.92925405
H        2.49922741      -0.26648930      -0.60160793
H       -0.12478935      -1.48246570      -0.51032328
H       -1.00419597      -1.54708933       1.40869885
H       -1.36616233       1.81301054      -0.69317382
H       -0.16042542       1.82475563       0.66329691
11
Frame=2 idx=000119 GeodesicLength=0.13633200059079736 rxn_smarts="[N:1](=[C:2]1/[C:3]([H:8])([H:9])[O:4][C:5]([H:10])([H:11])[O:6]1)\[H:7]>>[N:1](=[C:2](\[O:6][C:5]([O+:4]=[C-:3][H:9])([H:10])[H:11])[H:8])\[H:7]"
N        1.86632724      -1.03646472      -0.46209029
C        0.65806556      -0.65889208      -0.44265950
C       -0.50899297      -0.64514062       1.03145160
O       -1.41227822       0.19652709       0.58146171
C       -0.66666263       1.22255525      -0.09930227
O        0.21652808       0.57095996      -0.95286439
H        2.49238635      -0.24054916      -0.54790971
H       -0.13698773      -1.50368499      -0.51947417
H       -1.00791257      -1.53777707       1.43811102
H       -1.36507297       1.81940461      -0.68101194
H       -0.13540016       1.81306174       0.65428792
11
Frame=3 idx=000119 GeodesicLength=0.20471474716018795 rxn_smarts="[N:1](=[C:2]1/[C:3]([H:8])([H:9])[O:4][C:5]([H:10])([H:11])[O:6]1)\[H:7]>>[N:1](=[C:2](\[O:6][C:5]([O+:4]=[C-:3][H:9])([H:10])[H:11])[H:8])\[H:7]"
N        1.86464687      -1.02335261      -0.47119020
C        0.65280251      -0.66095960      -0.47565151
C       -0.50528451      -0.65941393       1.01885489
O       -1.40483710       0.19827510       0.58471556
C       -0.66069471       1.21956235      -0.10193255
O        0.20336180       0.56727491      -0.97565735
H        2.48224123      -0.21632252      -0.49536280
H       -0.14822694      -1.52459356      -0.52927068
H       -1.00993230      -1.52713628       1.46866589
H       -1.36296085       1.82593912      -0.66896187
H       -0.11111600       1.80072701       0.64579063
11
Frame=4 idx=000119 GeodesicLength=0.2732096295575303 rxn_smarts="[N:1](=[C:2]1/[C:3]([H:8])([H:9])[O:4][C:5]([H:10])([H:11])[O:6]1)\[H:7]>>[N:1](=[C:2](\[O:6][C:5]([O+:4]=[C-:3][H:9])([H:10])[H:11])[H:8])\[H:7]"
N        1.86299183      -1.00959300      -0.47962030
C        0.64820006      -0.66234992      -0.50821529
C       -0.50253373      -0.67446404       1.00539977
O       -1.39761959       0.19930113       0.58683900
C       -0.65471214       1.21645616      -0.10446072
O        0.19100962       0.56448604      -0.99746189
H        2.46947416      -0.19432317      -0.44386906
H       -0.15858419      -1.54496625      -0.53995342
H       -1.01009684      -1.51474687       1.50051608
H       -1.36015717       1.83232173      -0.65714020
H       -0.08797201       1.78787818       0.63796603
11
Frame=5 idx=000119 GeodesicLength=0.3418379769525781 rxn_smarts="[N:1](=[C:2]1/[C:3]([H:8])([H:9])[O:4][C:5]([H:10])([H:11])[O:6]1)\[H:7]>>[N:1](=[C:2](\[O:6][C:5]([O+:4]=[C-:3][H:9])([H:10])[H:11])[H:8])\[H:7]"
N        1.86130397      -0.99521568      -0.48712892
C        0.64418453      -0.66318765      -0.54037177
C       -0.50102270      -0.69033755       0.99096584
O       -1.39080715       0.19965973       0.58775043
C       -0.64866303       1.21320399      -0.10689295
O        0.17928988       0.56236016      -1.01847283
H        2.45397001      -0.17412547      -0.39330990
H       -0.16819409      -1.56501695      -0.55161143
H       -1.00787451      -1.50049084       1.53367962
H       -1.35648759       1.83879484      -0.64542711
H       -0.06569931       1.77435541       0.63081901
11
Frame=6 idx=000119 GeodesicLength=0.41059845384196925 rxn_smarts="[N:1](=[C:2]1/[C:3]([H:8])([H:9])[O:4][C:5]([H:10])([H:11])[O:6]1)\[H:7]>>[N:1](=[C:2](\[O:6][C:5]([O+:4]=[C-:3][H:9])([H:10])[H:11])[H:8])\[H:7]"
N        1.85948583      -0.98047596      -0.49398495
C        0.64080432      -0.66331238      -0.57219309
C       -0.50072765      -0.70714853       0.97547085
O       -1.38444422       0.19922727       0.58745437
C       -0.64271011       1.20979836      -0.10919865
O        0.16838365       0.56113964      -1.03859547
H        2.43623745      -0.15622639      -0.34339474
H       -0.17715424      -1.58461618      -0.56455492
H       -1.00295575      -1.48371751       1.56834460
H       -1.35229226       1.84511419      -0.63386424
H       -0.04462703       1.76021749       0.62451623
11
Frame=7 idx=000119 GeodesicLength=0.4794921570767222 rxn_smarts="[N:1](=[C:2]1/[C:3]([H:8])([H:9])[O:4][C:5]([H:10])([H:11])[O:6]1)\[H:7]>>[N:1](=[C:2](\[O:6][C:5]([O+:4]=[C-:3][H:9])([H:10])[H:11])[H:8])\[H:7]"
N        1.85741132      -0.96540741      -0.49974097
C        0.63795295      -0.66285260      -0.60372535
C       -0.50207564      -0.72495700       0.95869539
O       -1.37879450       0.19805292       0.58578026
C       -0.63680508       1.20619258      -0.11139298
O        0.15814962       0.56062557      -1.05799777
H        2.41594928      -0.14028117      -0.29391436
H       -0.18568462      -1.60392133      -0.57897146
H       -0.99426130      -1.46423349       1.60452349
H       -1.34730205       1.85156641      -0.62235579
H       -0.02453998       1.74521552       0.61909952
11
Frame=8 idx=000119 GeodesicLength=0.5484350114489925 rxn_smarts="[N:1](=[C:2]1/[C:3]([H:8])([H:9])[O:4][C:5]([H:10])([H:11])[O:6]1)\[H:7]>>[N:1](=[C:2](\[O:6][C:5]([O+:4]=[C-:3][H:9])([H:10])[H:11])[H:8])\[H:7]"
N        1.85499793      -0.95027250      -0.50438725
C        0.63572072      -0.66163040      -0.63485761
C       -0.50513859      -0.74394824       0.94058354
O       -1.37393286       0.19595349       0.58266594
C       -0.63112069       1.20234220      -0.11338473
O        0.14880021       0.56102786      -1.07647602
H        2.39369085      -0.12677432      -0.24507515
H       -0.19379381      -1.62283478      -0.59511840
H       -0.98154053      -1.44103978       1.64209131
H       -1.34185534       1.85784381      -0.61091132
H       -0.00582790       1.72933265       0.61486970
11
Frame=9 idx=000119 GeodesicLength=0.617573996764469 rxn_smarts="[N:1](=[C:2]1/[C:3]([H:8])([H:9])[O:4][C:5]([H:10])([H:11])[O:6]1)\[H:7]>>[N:1](=[C:2](\[O:6][C:5]([O+:4]=[C-:3][H:9])([H:10])[H:11])[H:8])\[H:7]"
N        1.85207961      -0.93524737      -0.50749812
C        0.63399590      -0.65977988      -0.66569691
C       -0.51046262      -0.76429449       0.92080498
O       -1.37022903       0.19293646       0.57788727
C       -0.62568361       1.19822070      -0.11519145
O        0.14026915       0.56226030      -1.09415281
H        2.36909171      -0.11558018      -0.19628183
H       -0.20182295      -1.64148023      -0.61335650
H       -0.96303719      -1.41358097       1.68101687
H       -1.33578238       1.86424223      -0.59946344
H        0.01158142       1.71230343       0.61193194
11
Frame=10 idx=000119 GeodesicLength=0.6868279000165631 rxn_smarts="[N:1](=[C:2]1/[C:3]([H:8])([H:9])[O:4][C:5]([H:10])([H:11])[O:6]1)\[H:7]>>[N:1](=[C:2](\[O:6][C:5]([O+:4]=[C-:3][H:9])([H:10])[H:11])[H:8])\[H:7]"
N        1.84835712      -0.92061694      -0.50876711
C        0.63268426      -0.65729208      -0.69613194
C       -0.51838083      -0.78600047       0.89925462
O       -1.36788279       0.18901573       0.57136192
C       -0.62061949       1.19378664      -0.11678513
O        0.13259696       0.56432334      -1.11092412
H        2.34197290      -0.10705015      -0.14698463
H       -0.21007020      -1.65980495      -0.63388068
H       -0.93697517      -1.38109011       1.72047154
H       -1.32916238       1.87067658      -0.58803344
H        0.02747961       1.69405242       0.61041897
11
Frame=11 idx=000119 GeodesicLength=0.7563757671125467 rxn_smarts="[N:1](=[C:2]1/[C:3]([H:8])([H:9])[O:4][C:5]([H:10])([H:11])[O:6]1)\[H:7]>>[N:1](=[C:2](\[O:6][C:5]([O+:4]=[C-:3][H:9])([H:10])[H:11])[H:8])\[H:7]"
N        1.84369093      -0.90674257      -0.50767034
C        0.63177787      -0.65422023      -0.72585639
C       -0.52917239      -0.80905111       0.87617561
O       -1.36711128       0.18425571       0.56318142
C       -0.61606226       1.18907172      -0.11811085
O        0.12582880       0.56717699      -1.12664795
H        2.31246963      -0.10131875      -0.09728371
H       -0.21879712      -1.67784574      -0.65649762
H       -0.90214194      -1.34306913       1.75893199
H       -1.32218109       1.87713390      -0.57665391
H        0.04169886       1.67460921       0.61043174
11
Frame=12 idx=000119 GeodesicLength=0.8261257705569234 rxn_smarts="[N:1](=[C:2]1/[C:3]([H:8])([H:9])[O:4][C:5]([H:10])([H:11])[O:6]1)\[H:7]>>[N:1](=[C:2](\[O:6][C:5]([O+:4]=[C-:3][H:9])([H:10])[H:11])[H:8])\[H:7]"
N        1.83783576      -0.89381385      -0.50399481
C        0.63121113      -0.65058448      -0.75431450
C       -0.54228935      -0.83277378       0.85257616
O       -1.36754958       0.17889943       0.55386151
C       -0.61202569       1.18408593      -0.11908499
O        0.11984208       0.57052139      -1.14111486
H        2.28077634      -0.09831216      -0.04766396
H       -0.22806809      -1.69558628      -0.68007193
H       -0.85888003      -1.29997004       1.79335723
H       -1.31508294       1.88320061      -0.56532774
H        0.05423037       1.65433322       0.61177788
11
Frame=13 idx=000119 GeodesicLength=0.8965403526088568 rxn_smarts="[N:1](=[C:2]1/[C:3]([H:8])([H:9])[O:4][C:5]([H:10])([H:11])[O:6]1)\[H:7]>>[N:1](=[C:2](\[O:6][C:5]([O+:4]=[C-:3][H:9])([H:10])[H:11])[H:8])\[H:7]"
N        1.83089635      -0.88186839      -0.49770162
C        0.63095659      -0.64656953      -0.78105106
C       -0.55699064      -0.85625152       0.82974970
O       -1.36880822       0.17358904       0.54435056
C       -0.60844672       1.17912094      -0.11982430
O        0.11433372       0.57400016      -1.15442476
H        2.24706279      -0.09755185       0.00160702
H       -0.23811125      -1.71313959      -0.70304276
H       -0.80828952      -1.25431675       1.82095428
H       -1.30811178       1.88891954      -0.55429640
H        0.06550868       1.63406796       0.61367934
11
Frame=14 idx=000119 GeodesicLength=0.9678808545836259 rxn_smarts="[N:1](=[C:2]1/[C:3]([H:8])([H:9])[O:4][C:5]([H:10])([H:11])[O:6]1)\[H:7]>>[N:1](=[C:2](\[O:6][C:5]([O+:4]=[C-:3][H:9])([H:10])[H:11])[H:8])\[H:7]"
N        1.82302755      -0.87062394      -0.48950614
C        0.63099091      -0.64216409      -0.80591443
C       -0.57221905      -0.87856919       0.80872507
O       -1.37026477       0.16881946       0.53546095
C       -0.60525648       1.17440471      -0.12046937
O        0.10905574       0.57741751      -1.16672613
H        2.21133723      -0.09906204       0.05081988
H       -0.24887312      -1.73050922      -0.72411305
H       -0.75211358      -1.20848991       1.84013670
H       -1.30154375       1.89411877      -0.54381855
H        0.07585933       1.61465791       0.61540506
11
Frame=15 idx=000119 GeodesicLength=1.0401765237145468 rxn_smarts="[N:1](=[C:2]1/[C:3]([H:8])([H:9])[O:4][C:5]([H:10])([H:11])[O:6]1)\[H:7]>>[N:1](=[C:2](\[O:6][C:5]([O+:4]=[C-:3][H:9])([H:10])[H:11])[H:8])\[H:7]"
N        1.81463774      -0.85971045      -0.48004630
C        0.63144126      -0.63737369      -0.82882957
C       -0.58689319      -0.89907804       0.79038172
O       -1.37132926       0.16489572       0.52781274
C       -0.60228063       1.17012188      -0.12109993
O        0.10381668       0.58059331      -1.17821459
H        2.17419825      -0.10222755       0.09907698
H       -0.26007087      -1.74781526      -0.74217438
H       -0.69374696      -1.16491657       1.85066814
H       -1.29550225       1.89876439      -0.53399723
H        0.08572921       1.59674625       0.61642241
11
Frame=16 idx=000119 GeodesicLength=1.1131530288131248 rxn_smarts="[N:1](=[C:2]1/[C:3]([H:8])([H:9])[O:4][C:5]([H:10])([H:11])[O:6]1)\[H:7]>>[N:1](=[C:2](\[O:6][C:5]([O+:4]=[C-:3][H:9])([H:10])[H:11])[H:8])\[H:7]"
N        1.80603472      -0.84881820      -0.46986063
C        0.63241538      -0.63208444      -0.84984228
C       -0.60036983      -0.91747571       0.77499618
O       -1.37160530       0.16196572       0.52175483
C       -0.59938134       1.16637681      -0.12179026
O        0.09859455       0.58353662      -1.18900517
H        2.13638148      -0.10656526       0.14555684
H       -0.27147649      -1.76506904      -0.75673793
H       -0.63596956      -1.12537949       1.85352832
H       -1.29003142       1.90277307      -0.52497606
H        0.09540780       1.58073993       0.61637615
