10
Frame=0 idx=007650 GeodesicLength=0.0 rxn_smarts="[N:1]#[C:2][c:3]1[c:4]([H:8])[o:5][c:6]([H:9])[c:7]1[H:10]>>[N:1]#[C:2][C:4](=[C:3]=[C:7]([C:6](=[O:5])[H:9])[H:10])[H:8]"
N        2.34388675       0.56551552      -1.16109674
C        1.56763460       0.37814998      -0.32507421
C        0.61612336      -0.75112998       0.65766619
C        0.43551139       0.67117548       0.71102788
O       -0.79611737       1.07380746       0.18643230
C       -1.34306721      -0.05918580      -0.27275607
C       -0.55749442      -1.14532977      -0.08639390
H        0.82705633       1.35643283       1.45302317
H       -2.30931317       0.05623617      -0.74319821
H       -0.78422026      -2.14567189      -0.41963042
10
Frame=1 idx=007650 GeodesicLength=0.11625886876068899 rxn_smarts="[N:1]#[C:2][c:3]1[c:4]([H:8])[o:5][c:6]([H:9])[c:7]1[H:10]>>[N:1]#[C:2][C:4](=[C:3]=[C:7]([C:6](=[O:5])[H:9])[H:10])[H:8]"
N        2.38446918       0.55702940      -1.15109849
C        1.59321336       0.37556533      -0.32844354
C        0.61051233      -0.73915812       0.64206223
C        0.44340840       0.67750184       0.70833019
O       -0.82052316       1.07588249       0.18147043
C       -1.36022945      -0.05773974      -0.27403527
C       -0.56208873      -1.14054549      -0.09060948
H        0.83123947       1.35547861       1.45853410
H       -2.33980029       0.03855022      -0.72166477
H       -0.78020112      -2.14256454      -0.42454539
10
Frame=2 idx=007650 GeodesicLength=0.23247082585118337 rxn_smarts="[N:1]#[C:2][c:3]1[c:4]([H:8])[o:5][c:6]([H:9])[c:7]1[H:10]>>[N:1]#[C:2][C:4](=[C:3]=[C:7]([C:6](=[O:5])[H:9])[H:10])[H:8]"
N        2.42563921       0.54795471      -1.14064664
C        1.61936090       0.37269672      -0.33185453
C        0.60495950      -0.72651843       0.62557009
C        0.45150489       0.68427190       0.70522239
O       -0.84629508       1.07794372       0.17730194
C       -1.37829403      -0.05649582      -0.27446352
C       -0.56675441      -1.13539895      -0.09510232
H        0.83574578       1.35438705       1.46392598
H       -2.36965057       0.02027310      -0.70046852
H       -0.77621618      -2.13911400      -0.42948487
10
Frame=3 idx=007650 GeodesicLength=0.3486749520547626 rxn_smarts="[N:1]#[C:2][c:3]1[c:4]([H:8])[o:5][c:6]([H:9])[c:7]1[H:10]>>[N:1]#[C:2][C:4](=[C:3]=[C:7]([C:6](=[O:5])[H:9])[H:10])[H:8]"
N        2.46822847       0.53791276      -1.12899206
C        1.64649227       0.36938445      -0.33497680
C        0.59927615      -0.71305768       0.60807516
C        0.45973778       0.69164537       0.70137739
O       -0.87333093       1.08013785       0.17313473
C       -1.39702060      -0.05531025      -0.27495964
C       -0.57137188      -1.12973120      -0.10045917
H        0.84021646       1.35330840       1.46900300
H       -2.40012540       0.00090071      -0.67723097
H       -0.77210232      -2.13519041      -0.43497164
10
Frame=4 idx=007650 GeodesicLength=0.46482997476883947 rxn_smarts="[N:1]#[C:2][c:3]1[c:4]([H:8])[o:5][c:6]([H:9])[c:7]1[H:10]>>[N:1]#[C:2][C:4](=[C:3]=[C:7]([C:6](=[O:5])[H:9])[H:10])[H:8]"
N        2.51120208       0.52725260      -1.11705609
C        1.67414927       0.36577288      -0.33824534
C        0.59372174      -0.69880053       0.58953397
C        0.46825159       0.69954442       0.69708853
O       -0.90202194       1.08218523       0.17041286
C       -1.41687448      -0.05446905      -0.27393935
C       -0.57607519      -1.12366104      -0.10598736
H        0.84519338       1.35203204       1.47394665
H       -2.42946396      -0.01893674      -0.65551643
H       -0.76808249      -2.13091982      -0.44023744
10
Frame=5 idx=007650 GeodesicLength=0.5809946951292997 rxn_smarts="[N:1]#[C:2][c:3]1[c:4]([H:8])[o:5][c:6]([H:9])[c:7]1[H:10]>>[N:1]#[C:2][C:4](=[C:3]=[C:7]([C:6](=[O:5])[H:9])[H:10])[H:8]"
N        2.55636552       0.51517399      -1.10308775
C        1.70318998       0.36153050      -0.34090032
C        0.58787225      -0.68347032       0.56968368
C        0.47685796       0.70827210       0.69164827
O       -0.93204198       1.08445347       0.16713213
C       -1.43729533      -0.05358922      -0.27366949
C       -0.58062838      -1.11683823      -0.11305134
H        0.84979278       1.35088756       1.47832109
H       -2.46030476      -0.04042026      -0.62952834
H       -0.76380803      -2.12599960      -0.44654795
10
Frame=6 idx=007650 GeodesicLength=0.6971227524916948 rxn_smarts="[N:1]#[C:2][c:3]1[c:4]([H:8])[o:5][c:6]([H:9])[c:7]1[H:10]>>[N:1]#[C:2][C:4](=[C:3]=[C:7]([C:6](=[O:5])[H:9])[H:10])[H:8]"
N        2.60222794       0.50217846      -1.08845966
C        1.73298535       0.35685296      -0.34353911
C        0.58209351      -0.66710736       0.54851458
C        0.48577126       0.71771927       0.68549120
O       -0.96390613       1.08653625       0.16538504
C       -1.45887102      -0.05307999      -0.27193232
C       -0.58521856      -1.10944887      -0.12061234
H        0.85479876       1.34959582       1.48238948
H       -2.49030062      -0.06261256      -0.60448280
H       -0.75958048      -2.12063398      -0.45275407
10
Frame=7 idx=007650 GeodesicLength=0.81327896111777 rxn_smarts="[N:1]#[C:2][c:3]1[c:4]([H:8])[o:5][c:6]([H:9])[c:7]1[H:10]>>[N:1]#[C:2][C:4](=[C:3]=[C:7]([C:6](=[O:5])[H:9])[H:10])[H:8]"
N        2.64995740       0.48768821      -1.07193439
C        1.76409227       0.35151194      -0.34565655
C        0.57612971      -0.64946749       0.52570579
C        0.49488636       0.72813071       0.67809178
O       -0.99748488       1.08864237       0.16398491
C       -1.48131473      -0.05271104      -0.27006479
C       -0.58970311      -1.10120874      -0.12965311
H        0.85964049       1.34835598       1.48582680
H       -2.52100792      -0.08634657      -0.57661623
H       -0.75519560      -2.11459536      -0.45968421
10
Frame=8 idx=007650 GeodesicLength=0.9293162272441005 rxn_smarts="[N:1]#[C:2][c:3]1[c:4]([H:8])[o:5][c:6]([H:9])[c:7]1[H:10]>>[N:1]#[C:2][C:4](=[C:3]=[C:7]([C:6](=[O:5])[H:9])[H:10])[H:8]"
N        2.69786943       0.47227795      -1.05520269
C        1.79582833       0.34569187      -0.34792224
C        0.57033266      -0.63055819       0.50131786
C        0.50443213       0.73940206       0.66992985
O       -1.03333322       1.09024604       0.16550082
C       -1.50520566      -0.05300084      -0.26556402
C       -0.59429888      -1.09233685      -0.13890360
H        0.86519940       1.34686968       1.48890269
H       -2.54985281      -0.11045288      -0.55216351
H       -0.75097138      -2.10813884      -0.46589514
10
Frame=9 idx=007650 GeodesicLength=1.04531397919376 rxn_smarts="[N:1]#[C:2][c:3]1[c:4]([H:8])[o:5][c:6]([H:9])[c:7]1[H:10]>>[N:1]#[C:2][C:4](=[C:3]=[C:7]([C:6](=[O:5])[H:9])[H:10])[H:8]"
N        2.74733098       0.45519715      -1.03672692
C        1.82888837       0.33910922      -0.34963750
C        0.56440733      -0.61006310       0.47490920
C        0.51430243       0.75184626       0.66035206
O       -1.07124558       1.09157294       0.16848944
C       -1.53010519      -0.05363042      -0.26007533
C       -0.59881052      -1.08245544      -0.14960642
H        0.87077872       1.34537678       1.49120979
H       -2.57895023      -0.13601171      -0.52645066
H       -0.74659630      -2.10094168      -0.47246365
10
Frame=10 idx=007650 GeodesicLength=1.161311289938388 rxn_smarts="[N:1]#[C:2][c:3]1[c:4]([H:8])[o:5][c:6]([H:9])[c:7]1[H:10]>>[N:1]#[C:2][C:4](=[C:3]=[C:7]([C:6](=[O:5])[H:9])[H:10])[H:8]"
N        2.79832622       0.43630557      -1.01635608
C        1.86338186       0.33161688      -0.35063502
C        0.55833547      -0.58776996       0.44612260
C        0.52450377       0.76560268       0.64915409
O       -1.11141650       1.09245022       0.17333650
C       -1.55601397      -0.05463293      -0.25360924
C       -0.60324325      -1.07141948      -0.16201453
H        0.87627670       1.34386496       1.49260988
H       -2.60806280      -0.16305342      -0.49938989
H       -0.74208750      -2.09296451      -0.47921830
10
Frame=11 idx=007650 GeodesicLength=1.277267922011827 rxn_smarts="[N:1]#[C:2][c:3]1[c:4]([H:8])[o:5][c:6]([H:9])[c:7]1[H:10]>>[N:1]#[C:2][C:4](=[C:3]=[C:7]([C:6](=[O:5])[H:9])[H:10])[H:8]"
N        2.85063172       0.41549752      -0.99419600
C        1.89927933       0.32314565      -0.35089454
C        0.55214522      -0.56342503       0.41461310
C        0.53513188       0.78084483       0.63620360
O       -1.15403852       1.09263875       0.18101674
C       -1.58302787      -0.05617697      -0.24561038
C       -0.60766698      -1.05911840      -0.17611336
H        0.88184947       1.34231855       1.49298313
H       -2.63680560      -0.19151528      -0.47224145
H       -0.73749864      -2.08420961      -0.48576084
10
Frame=12 idx=007650 GeodesicLength=1.393137135394812 rxn_smarts="[N:1]#[C:2][c:3]1[c:4]([H:8])[o:5][c:6]([H:9])[c:7]1[H:10]>>[N:1]#[C:2][C:4](=[C:3]=[C:7]([C:6](=[O:5])[H:9])[H:10])[H:8]"
N        2.90392906       0.39264040      -0.97038048
C        1.93660773       0.31349628      -0.35019865
C        0.54584351      -0.53671441       0.37996652
C        0.54625383       0.79776260       0.62131313
O       -1.19926222       1.09179631       0.19251387
C       -1.61109240      -0.05836066      -0.23580520
C       -0.61212306      -1.04541359      -0.19190724
H        0.88752993       1.34071649       1.49215774
H       -2.66492689      -0.22129282      -0.44598840
H       -0.73275949      -2.07463061      -0.49167129
10
Frame=13 idx=007650 GeodesicLength=1.508954108242659 rxn_smarts="[N:1]#[C:2][c:3]1[c:4]([H:8])[o:5][c:6]([H:9])[c:7]1[H:10]>>[N:1]#[C:2][C:4](=[C:3]=[C:7]([C:6](=[O:5])[H:9])[H:10])[H:8]"
N        2.95895375       0.36701839      -0.94362689
C        1.97556054       0.30244666      -0.34819107
C        0.53923526      -0.50710270       0.34124290
C        0.55781304       0.81672601       0.60383450
O       -1.24709198       1.08975041       0.20768748
C       -1.64021362      -0.06123102      -0.22436890
C       -0.61664411      -1.02988150      -0.21033611
H        0.89289094       1.33917010       1.48963176
H       -2.69282955      -0.25302792      -0.41843311
H       -0.72767427      -2.06386843      -0.49744056
10
Frame=14 idx=007650 GeodesicLength=1.6246567740247981 rxn_smarts="[N:1]#[C:2][c:3]1[c:4]([H:8])[o:5][c:6]([H:9])[c:7]1[H:10]>>[N:1]#[C:2][C:4](=[C:3]=[C:7]([C:6](=[O:5])[H:9])[H:10])[H:8]"
N        3.01466705       0.33858442      -0.91473466
C        2.01594945       0.28963876      -0.34454921
C        0.53237338      -0.47411304       0.29795608
C        0.56993294       0.83799134       0.58368189
O       -1.29762520       1.08578597       0.22846620
C       -1.67023743      -0.06501556      -0.21064958
C       -0.62140144      -1.01255343      -0.23062769
H        0.89814362       1.33770423       1.48522743
H       -2.71983526      -0.28613235      -0.39245972
H       -0.72196709      -2.05189035      -0.50231074
10
Frame=15 idx=007650 GeodesicLength=1.74027041920112 rxn_smarts="[N:1]#[C:2][c:3]1[c:4]([H:8])[o:5][c:6]([H:9])[c:7]1[H:10]>>[N:1]#[C:2][C:4](=[C:3]=[C:7]([C:6](=[O:5])[H:9])[H:10])[H:8]"
N        3.07111059       0.30668141      -0.88296957
C        2.05766201       0.27472069      -0.33885509
C        0.52509148      -0.43693795       0.24887961
C        0.58261047       0.86203743       0.56028510
O       -1.35070921       1.07930736       0.25564093
C       -1.70106183      -0.06992533      -0.19438654
C       -0.62657380      -0.99324928      -0.25278579
H        0.90302269       1.33643862       1.47845530
H       -2.74595422      -0.32070220      -0.36775723
H       -0.71519818      -2.03837075      -0.50650673
10
Frame=16 idx=007650 GeodesicLength=1.8556460857602954 rxn_smarts="[N:1]#[C:2][c:3]1[c:4]([H:8])[o:5][c:6]([H:9])[c:7]1[H:10]>>[N:1]#[C:2][C:4](=[C:3]=[C:7]([C:6](=[O:5])[H:9])[H:10])[H:8]"
N        3.12757038       0.27092261      -0.84809500
C        2.10034479       0.25725946      -0.33051006
C        0.51719695      -0.39448495       0.19230056
C        0.59587234       0.88932997       0.53320795
O       -1.40592821       1.06942096       0.29046942
C       -1.73231165      -0.07607396      -0.17562777
C       -0.63230480      -0.97188619      -0.27639940
H        0.90727713       1.33508434       1.46904416
H       -2.77084789      -0.35644442      -0.34503790
H       -0.70686903      -2.02312783      -0.50935196
