14
Frame=0 idx=003302 GeodesicLength=0.0 rxn_smarts="[O:1]=[C:2]([C:3]1([H:8])[C:4]([H:9])([H:10])[C:5]([H:11])([H:12])[C:6]1([H:13])[H:14])[H:7]>>[O:1]1[C:2]([H:7])([H:8])[C:3]12[C:4]([H:9])([H:10])[C:5]([H:11])([H:12])[C:6]2([H:13])[H:14]"
O        2.55720816      -0.70375931      -0.04698491
C        1.79981412       0.11815075       0.63348237
C        0.44597057       0.08559629       0.10139388
C       -0.28794159      -1.03385213      -0.50886622
C       -1.58619578      -0.22295814      -0.22739563
C       -0.68496767       1.03564775      -0.05626513
H        2.07607908       1.20718990       0.55684320
H        1.70599427      -0.00110663       1.75608715
H       -0.08269997      -1.10604918      -1.58066296
H       -0.09349007      -2.01459002      -0.06930502
H       -2.33088635      -0.18634705      -1.01908831
H       -2.05916547      -0.51616694       0.70752294
H       -0.61025981       1.58746871      -0.99848465
H       -0.84945950       1.75077598       0.75172333
14
Frame=1 idx=003302 GeodesicLength=0.09511570980067838 rxn_smarts="[O:1]=[C:2]([C:3]1([H:8])[C:4]([H:9])([H:10])[C:5]([H:11])([H:12])[C:6]1([H:13])[H:14])[H:7]>>[O:1]1[C:2]([H:7])([H:8])[C:3]12[C:4]([H:9])([H:10])[C:5]([H:11])([H:12])[C:6]2([H:13])[H:14]"
O        2.54456584      -0.65435563      -0.11502787
C        1.81316781       0.13603997       0.62509111
C        0.45524634       0.07860537       0.10951814
C       -0.28728139      -1.04253657      -0.49443292
C       -1.58030145      -0.22051109      -0.22514077
C       -0.67333388       1.03403556      -0.06089015
H        2.07496996       1.22834586       0.60007244
H        1.65250565      -0.05677066       1.74401080
H       -0.07988896      -1.12681324      -1.56474959
H       -0.10472154      -2.02035796      -0.04397341
H       -2.32207528      -0.18631181      -1.01981711
H       -2.05955201      -0.50300430       0.71004037
H       -0.59044272       1.57931026      -1.00600344
H       -0.84285838       1.75432423       0.74130241
14
Frame=2 idx=003302 GeodesicLength=0.19035084508955114 rxn_smarts="[O:1]=[C:2]([C:3]1([H:8])[C:4]([H:9])([H:10])[C:5]([H:11])([H:12])[C:6]1([H:13])[H:14])[H:7]>>[O:1]1[C:2]([H:7])([H:8])[C:3]12[C:4]([H:9])([H:10])[C:5]([H:11])([H:12])[C:6]2([H:13])[H:14]"
O        2.52863695      -0.60468706      -0.17808798
C        1.82523725       0.15258558       0.61900035
C        0.46424409       0.07144387       0.11783953
C       -0.28664406      -1.05098060      -0.48068922
C       -1.57446698      -0.21832775      -0.22335388
C       -0.66204237       1.03211414      -0.06474230
H        2.07522859       1.24530021       0.64004348
H        1.60344171      -0.10656577       1.72902768
H       -0.07664941      -1.14646124      -1.54935699
H       -0.11612441      -2.02599021      -0.02007893
H       -2.31313505      -0.18611645      -1.02113096
H       -2.06010108      -0.49080726       0.71165597
H       -0.57105045       1.57155288      -1.01222500
H       -0.83657478       1.75693966       0.73209824
14
Frame=3 idx=003302 GeodesicLength=0.28571541529087896 rxn_smarts="[O:1]=[C:2]([C:3]1([H:8])[C:4]([H:9])([H:10])[C:5]([H:11])([H:12])[C:6]1([H:13])[H:14])[H:7]>>[O:1]1[C:2]([H:7])([H:8])[C:3]12[C:4]([H:9])([H:10])[C:5]([H:11])([H:12])[C:6]2([H:13])[H:14]"
O        2.50994005      -0.55502307      -0.23653022
C        1.83629886       0.16776092       0.61452211
C        0.47300552       0.06415319       0.12614210
C       -0.28606401      -1.05923173      -0.46766743
C       -1.56871309      -0.21640597      -0.22197833
C       -0.65108749       1.02992860      -0.06792798
H        2.07689319       1.25877509       0.67698819
H        1.55819599      -0.15088134       1.71227366
H       -0.07309789      -1.16515501      -1.53456028
H       -0.12775134      -2.03151662       0.00243273
H       -2.30416295      -0.18581666      -1.02291674
H       -2.06076548      -0.47950870       0.71251530
H       -0.55217306       1.56420523      -1.01731255
H       -0.83051830       1.75871606       0.72401943
14
Frame=4 idx=003302 GeodesicLength=0.38119538274657727 rxn_smarts="[O:1]=[C:2]([C:3]1([H:8])[C:4]([H:9])([H:10])[C:5]([H:11])([H:12])[C:6]1([H:13])[H:14])[H:7]>>[O:1]1[C:2]([H:7])([H:8])[C:3]12[C:4]([H:9])([H:10])[C:5]([H:11])([H:12])[C:6]2([H:13])[H:14]"
O        2.48890699      -0.50558409      -0.29068346
C        1.84657691       0.18163398       0.61110471
C        0.48156740       0.05678890       0.13426984
C       -0.28554824      -1.06731762      -0.45536203
C       -1.56304717      -0.21473944      -0.22096463
C       -0.64047140       1.02752910      -0.07054048
H        2.07996481       1.26936003       0.71114270
H        1.51620982      -0.19022641       1.69454420
H       -0.06929606      -1.18302569      -1.52037816
H       -0.13961222      -2.03693846       0.02365408
H       -2.29521852      -0.18546840      -1.02508314
H       -2.06150429      -0.46904089       0.71273497
H       -0.53388854       1.55727692      -1.02140966
H       -0.82463950       1.75975207       0.71697106
14
Frame=5 idx=003302 GeodesicLength=0.47676804135431583 rxn_smarts="[O:1]=[C:2]([C:3]1([H:8])[C:4]([H:9])([H:10])[C:5]([H:11])([H:12])[C:6]1([H:13])[H:14])[H:7]>>[O:1]1[C:2]([H:7])([H:8])[C:3]12[C:4]([H:9])([H:10])[C:5]([H:11])([H:12])[C:6]2([H:13])[H:14]"
O        2.46584975      -0.45654500      -0.34084110
C        1.85622669       0.19429086       0.60831556
C        0.48995613       0.04939988       0.14211432
C       -0.28507717      -1.07523396      -0.44373368
C       -1.55744198      -0.21330840      -0.22027362
C       -0.63020189       1.02494926      -0.07266391
H        2.08438287       1.27748767       0.74270836
H        1.47698598      -0.22512414       1.67639126
H       -0.06527660      -1.20014651      -1.50677358
H       -0.15166507      -2.04221142       0.04371040
H       -2.28630570      -0.18509707      -1.02756028
H       -2.06223540      -0.45933327       0.71239537
H       -0.51628503       1.55076757      -1.02463867
H       -0.81891258       1.76010453       0.71084956
14
Frame=6 idx=003302 GeodesicLength=0.5724429242651591 rxn_smarts="[O:1]=[C:2]([C:3]1([H:8])[C:4]([H:9])([H:10])[C:5]([H:11])([H:12])[C:6]1([H:13])[H:14])[H:7]>>[O:1]1[C:2]([H:7])([H:8])[C:3]12[C:4]([H:9])([H:10])[C:5]([H:11])([H:12])[C:6]2([H:13])[H:14]"
O        2.44107796      -0.40812925      -0.38725165
C        1.86539655       0.20587809       0.60582579
C        0.49820197       0.04204259       0.14960086
C       -0.28463892      -1.08299188      -0.43275702
C       -1.55190405      -0.21211089      -0.21987234
C       -0.62028594       1.02223608      -0.07434442
H        2.09016187       1.28356141       0.77183077
H        1.44006595      -0.25601540       1.65822534
H       -0.06103875      -1.21659629      -1.49373780
H       -0.16388778      -2.04732601       0.06268643
H       -2.27744545      -0.18475200      -1.03030580
H       -2.06295894      -0.45035185       0.71156983
H       -0.49940396       1.54470527      -1.02708268
H       -0.81334052       1.75985012       0.70561268
14
Frame=7 idx=003302 GeodesicLength=0.6682082047067027 rxn_smarts="[O:1]=[C:2]([C:3]1([H:8])[C:4]([H:9])([H:10])[C:5]([H:11])([H:12])[C:6]1([H:13])[H:14])[H:7]>>[O:1]1[C:2]([H:7])([H:8])[C:3]12[C:4]([H:9])([H:10])[C:5]([H:11])([H:12])[C:6]2([H:13])[H:14]"
O        2.41483577      -0.36050951      -0.43014514
C        1.87419013       0.21652253       0.60338908
C        0.50632707       0.03475880       0.15668658
C       -0.28421394      -1.09058887      -0.42239050
C       -1.54642299      -0.21113589      -0.21973997
C       -0.61073177       1.01942118      -0.07562000
H        2.09727668       1.28789002       0.79861934
H        1.40506466      -0.28330951       1.64033792
H       -0.05657681      -1.23242382      -1.48123204
H       -0.17624053      -2.05225299       0.08067964
H       -2.26863094      -0.18445564      -1.03329694
H       -2.06365601      -0.44205813       0.71029948
H       -0.48328743       1.53910778      -1.02880495
H       -0.80793388       1.75903406       0.70121750
14
Frame=8 idx=003302 GeodesicLength=0.7640570386182622 rxn_smarts="[O:1]=[C:2]([C:3]1([H:8])[C:4]([H:9])([H:10])[C:5]([H:11])([H:12])[C:6]1([H:13])[H:14])[H:7]>>[O:1]1[C:2]([H:7])([H:8])[C:3]12[C:4]([H:9])([H:10])[C:5]([H:11])([H:12])[C:6]2([H:13])[H:14]"
O        2.38736008      -0.31385870      -0.46972341
C        1.88269379       0.22635539       0.60082632
C        0.51435502       0.02758659       0.16334258
C       -0.28378371      -1.09802576      -0.41259885
C       -1.54099766      -0.21037525      -0.21985600
C       -0.60154708       1.01653734      -0.07651700
H        2.10571264       1.29074409       0.82316053
H        1.37163054      -0.30736664       1.62293613
H       -0.05187581      -1.24767114      -1.46922579
H       -0.18868245      -2.05697610       0.09776423
H       -2.25986308      -0.18422961      -1.03651302
H       -2.06432773      -0.43442257       0.70862332
H       -0.46796105       1.53399735      -1.02985418
H       -0.80271350       1.75770502       0.69763514
14
Frame=9 idx=003302 GeodesicLength=0.859967282919692 rxn_smarts="[O:1]=[C:2]([C:3]1([H:8])[C:4]([H:9])([H:10])[C:5]([H:11])([H:12])[C:6]1([H:13])[H:14])[H:7]>>[O:1]1[C:2]([H:7])([H:8])[C:3]12[C:4]([H:9])([H:10])[C:5]([H:11])([H:12])[C:6]2([H:13])[H:14]"
O        2.35883267      -0.26830728      -0.50616691
C        1.89095739       0.23548492       0.59801251
C        0.52230212       0.02055200       0.16955811
C       -0.28332692      -1.10528660      -0.40333896
C       -1.53560906      -0.20981303      -0.22020634
C       -0.59273659       1.01359818      -0.07706281
H        2.11541558       1.29233359       0.84552329
H        1.33947193      -0.32852743       1.60616016
H       -0.04693189      -1.26235082      -1.45767349
H       -0.20116237      -2.06145232       0.11402050
H       -2.25112370      -0.18407660      -1.03994170
H       -2.06494163      -0.42740734       0.70656504
H       -0.45345507       1.52937272      -1.03027562
H       -0.79769247       1.75588003       0.69482622
14
Frame=10 idx=003302 GeodesicLength=0.9559504161865702 rxn_smarts="[O:1]=[C:2]([C:3]1([H:8])[C:4]([H:9])([H:10])[C:5]([H:11])([H:12])[C:6]1([H:13])[H:14])[H:7]>>[O:1]1[C:2]([H:7])([H:8])[C:3]12[C:4]([H:9])([H:10])[C:5]([H:11])([H:12])[C:6]2([H:13])[H:14]"
O        2.32946990      -0.22403068      -0.53964898
C        1.89903962       0.24403871       0.59486164
C        0.53018857       0.01368314       0.17533144
C       -0.28283060      -1.11238380      -0.39458586
C       -1.53026778      -0.20944677      -0.22077245
C       -0.58430288       1.01064068      -0.07726158
H        2.12638829       1.29288780       0.86574514
H        1.30829273      -0.34705482       1.59012091
H       -0.04172115      -1.27649868      -1.44656187
H       -0.21364806      -2.06570104       0.12948502
H       -2.24241469      -0.18401440      -1.04357184
H       -2.06553211      -0.42100595       0.70415797
H       -0.43975860       1.52527256      -1.03009064
H       -0.79290324       1.75361326       0.69279110
14
Frame=11 idx=003302 GeodesicLength=1.0519928059752646 rxn_smarts="[O:1]=[C:2]([C:3]1([H:8])[C:4]([H:9])([H:10])[C:5]([H:11])([H:12])[C:6]1([H:13])[H:14])[H:7]>>[O:1]1[C:2]([H:7])([H:8])[C:3]12[C:4]([H:9])([H:10])[C:5]([H:11])([H:12])[C:6]2([H:13])[H:14]"
O        2.29943421      -0.18113373      -0.57033623
C        1.90697149       0.25211592       0.59131935
C        0.53802712       0.00699510       0.18067851
C       -0.28228042      -1.11930957      -0.38630027
C       -1.52496584      -0.20926288      -0.22154382
C       -0.57624518       1.00767713      -0.07712552
H        2.13858545       1.29257734       0.88387259
H        1.27786473      -0.36321825       1.57487452
H       -0.03623719      -1.29012669      -1.43585032
H       -0.22610124      -2.06970303       0.14421397
H       -2.23372053      -0.18404137      -1.04740012
H       -2.06609649      -0.41519036       0.70141480
H       -0.42687049       1.52169762      -1.02932248
H       -0.78836562       1.75092279       0.69150503
14
Frame=12 idx=003302 GeodesicLength=1.1480872531967043 rxn_smarts="[O:1]=[C:2]([C:3]1([H:8])[C:4]([H:9])([H:10])[C:5]([H:11])([H:12])[C:6]1([H:13])[H:14])[H:7]>>[O:1]1[C:2]([H:7])([H:8])[C:3]12[C:4]([H:9])([H:10])[C:5]([H:11])([H:12])[C:6]2([H:13])[H:14]"
O        2.26888227      -0.13969997      -0.59839385
C        1.91477821       0.25981159       0.58735594
C        0.54582938       0.00049793       0.18562501
C       -0.28166655      -1.12606311      -0.37844653
C       -1.51970074      -0.20924998      -0.22250861
C       -0.56855789       1.00472113      -0.07666342
H        2.15196347       1.29156204       0.89995311
H        1.24798357      -0.37726418       1.56044895
H       -0.03047379      -1.30325164      -1.42550446
H       -0.23849357      -2.07345517       0.15825161
H       -2.22503016      -0.18415640      -1.05142213
H       -2.06664438      -0.40993529       0.69835069
H       -0.41477249       1.51864846      -1.02799142
H       -0.78409733       1.74783462       0.69094509
14
Frame=13 idx=003302 GeodesicLength=1.2442291546125273 rxn_smarts="[O:1]=[C:2]([C:3]1([H:8])[C:4]([H:9])([H:10])[C:5]([H:11])([H:12])[C:6]1([H:13])[H:14])[H:7]>>[O:1]1[C:2]([H:7])([H:8])[C:3]12[C:4]([H:9])([H:10])[C:5]([H:11])([H:12])[C:6]2([H:13])[H:14]"
O        2.23795235      -0.09979400      -0.62398120
C        1.92247745       0.26721319       0.58295933
C        0.55360478      -0.00580423       0.19020629
C       -0.28098119      -1.13264480      -0.37098977
C       -1.51446961      -0.20939619      -0.22365575
C       -0.56123197       1.00178317      -0.07588175
H        2.16647468       1.28998579       0.91402963
H        1.21847085      -0.38941823       1.54685083
H       -0.02442746      -1.31588845      -1.41549064
H       -0.25080143      -2.07695968       0.17163579
H       -2.21633066      -0.18435437      -1.05563481
H       -2.06718634      -0.40521586       0.69497801
H       -0.40343774       1.51612128      -1.02611376
H       -0.78011371       1.74437239       0.69108779
14
Frame=14 idx=003302 GeodesicLength=1.3404133404752712 rxn_smarts="[O:1]=[C:2]([C:3]1([H:8])[C:4]([H:9])([H:10])[C:5]([H:11])([H:12])[C:6]1([H:13])[H:14])[H:7]>>[O:1]1[C:2]([H:7])([H:8])[C:3]12[C:4]([H:9])([H:10])[C:5]([H:11])([H:12])[C:6]2([H:13])[H:14]"
O        2.20676624      -0.06146137      -0.64725184
C        1.93008165       0.27440152       0.57813026
C        0.56136147      -0.01191285       0.19446635
C       -0.28021855      -1.13905645      -0.36389582
C       -1.50926950      -0.20968903      -0.22497558
C       -0.55425523       0.99887054      -0.07478452
H        2.18206723       1.28798074       0.92614067
H        1.18917347      -0.39989029       1.53406934
H       -0.01809729      -1.32805236      -1.40577578
H       -0.26300786      -2.08022280       0.18440049
H       -2.20760765      -0.18462641      -1.06003768
H       -2.06773459      -0.40100626       0.69130582
H       -0.39283214       1.51410772      -1.02370181
H       -0.77642724       1.74055729       0.69191009
14
Frame=15 idx=003302 GeodesicLength=1.4366354944255748 rxn_smarts="[O:1]=[C:2]([C:3]1([H:8])[C:4]([H:9])([H:10])[C:5]([H:11])([H:12])[C:6]1([H:13])[H:14])[H:7]>>[O:1]1[C:2]([H:7])([H:8])[C:3]12[C:4]([H:9])([H:10])[C:5]([H:11])([H:12])[C:6]2([H:13])[H:14]"
O        2.17542917      -0.02473492      -0.66835142
C        1.93759867       0.28145261       0.57287904
C        0.56910648      -0.01783414       0.19845677
C       -0.27937455      -1.14530079      -0.35713156
C       -1.50409679      -0.21011577      -0.22645950
C       -0.54761237       0.99598754      -0.07337308
H        2.19868698       1.28567054       0.93631693
H        1.15995823      -0.40887463       1.52208099
H       -0.01148463      -1.33975783      -1.39632754
H       -0.27510193      -2.08325465       0.19657442
H       -2.19884460      -0.18496020      -1.06463180
H       -2.06830191      -0.39728123       0.68733995
H       -0.38291500       1.51259602      -1.02076321
H       -0.77304776       1.73640745       0.69338999
14
Frame=16 idx=003302 GeodesicLength=1.5328912725575776 rxn_smarts="[O:1]=[C:2]([C:3]1([H:8])[C:4]([H:9])([H:10])[C:5]([H:11])([H:12])[C:6]1([H:13])[H:14])[H:7]>>[O:1]1[C:2]([H:7])([H:8])[C:3]12[C:4]([H:9])([H:10])[C:5]([H:11])([H:12])[C:6]2([H:13])[H:14]"
O        2.14403125       0.01036544      -0.68741839
C        1.94503316       0.28843798       0.56722274
C        0.57684665      -0.02357870       0.20223546
C       -0.27844663      -1.15138147      -0.35066487
C       -1.49894708      -0.21066346      -0.22809999
C       -0.54128508       0.99313546      -0.07164642
H        2.21627725       1.28317249       0.94458222
H        1.13070935      -0.41655333       1.51085257
H       -0.00459275      -1.35101948      -1.38711414
H       -0.28707953      -2.08606815       0.20818234
H       -2.19002320      -0.18534037      -1.06941975
H       -2.06890131      -0.39401522       0.68308334
H       -0.37364048       1.51157078      -1.01730156
H       -0.76998160       1.73193802       0.69550647
