17
Frame=0 idx=006432 GeodesicLength=0.0 rxn_smarts="[C:1]([C@@:2]12[C:3]([H:11])([H:12])[C@@:4]3([H:13])[C@@:5]([H:14])([C:6]1([H:15])[H:16])[C@@:7]23[H:17])([H:8])([H:9])[H:10]>>[C:1](=[C:2]1[C:3]([H:11])([H:12])[C@@:4]2([H:13])[C@@:5]3([H:14])[C@:6]1([H:16])[C@@:7]23[H:17])([H:8])[H:9].[H:10][H:15]"
C        1.45078370      -1.30114286      -0.12047101
C        0.34024215      -0.44405842      -0.15403074
C       -1.10101804      -0.88881046       0.07147094
C       -1.59893508       0.45718643      -0.42069152
C       -0.73393934       1.54255932       0.14150200
C        0.49259991       0.84465702       0.55505579
C       -0.33072316       0.84084212      -1.11892774
H        1.30534927      -2.35928059      -0.30236881
H        2.42248323      -0.91317646      -0.40763076
H        1.47444752      -0.78853783       1.49648550
H       -1.34047672      -1.17677825       1.09818547
H       -1.37278927      -1.68651095      -0.61992623
H       -2.58820910       0.70129285      -0.78020682
H       -0.98200362       2.58397908       0.24857464
H        1.13775666      -0.05614832       1.90593887
H        1.42842693       1.38922337       0.46390228
H       -0.00399505       1.25470396      -2.05686182
17
Frame=1 idx=006432 GeodesicLength=0.07018922052573254 rxn_smarts="[C:1]([C@@:2]12[C:3]([H:11])([H:12])[C@@:4]3([H:13])[C@@:5]([H:14])([C:6]1([H:15])[H:16])[C@@:7]23[H:17])([H:8])([H:9])[H:10]>>[C:1](=[C:2]1[C:3]([H:11])([H:12])[C@@:4]2([H:13])[C@@:5]3([H:14])[C@:6]1([H:16])[C@@:7]23[H:17])([H:8])[H:9].[H:10][H:15]"
C        1.45165719      -1.30763860      -0.11163779
C        0.34390407      -0.44599241      -0.15767304
C       -1.09879788      -0.88930234       0.06351512
C       -1.59751357       0.45730725      -0.42554607
C       -0.73767024       1.54239575       0.14560157
C        0.49417527       0.84650701       0.55014852
C       -0.33008811       0.85290632      -1.11858735
H        1.30084921      -2.37016995      -0.26262169
H        2.41764310      -0.93344364      -0.43436243
H        1.49168257      -0.79164422       1.50191013
H       -1.34324045      -1.18027058       1.08823747
H       -1.36942954      -1.68457665      -0.63139222
H       -2.58739833       0.69918237      -0.78515748
H       -0.99252058       2.58090785       0.26572256
H        1.14066380      -0.04256428       1.91176102
H        1.42778704       1.39511445       0.45762076
H       -0.01170354       1.27128169      -2.05753907
17
Frame=2 idx=006432 GeodesicLength=0.14038621238282173 rxn_smarts="[C:1]([C@@:2]12[C:3]([H:11])([H:12])[C@@:4]3([H:13])[C@@:5]([H:14])([C:6]1([H:15])[H:16])[C@@:7]23[H:17])([H:8])([H:9])[H:10]>>[C:1](=[C:2]1[C:3]([H:11])([H:12])[C@@:4]2([H:13])[C@@:5]3([H:14])[C@:6]1([H:16])[C@@:7]23[H:17])([H:8])[H:9].[H:10][H:15]"
C        1.45260683      -1.31398158      -0.10266028
C        0.34768152      -0.44789562      -0.16133231
C       -1.09645311      -0.88981361       0.05546427
C       -1.59602156       0.45740667      -0.43043376
C       -0.74138804       1.54215699       0.14970211
C        0.49578059       0.84841791       0.54520122
C       -0.32949198       0.86503046      -1.11820682
H        1.29639059      -2.37994768      -0.22296131
H        2.41189977      -0.95514186      -0.46106601
H        1.50937643      -0.79481890       1.50735874
H       -1.34591412      -1.18384069       1.07813551
H       -1.36581250      -1.68265214      -0.64299471
H       -2.58653373       0.69701843      -0.79011380
H       -1.00305303       2.57753073       0.28293753
H        1.14334298      -0.02851960       1.91773363
H        1.42714496       1.40109255       0.45133999
H       -0.01955557       1.28795791      -2.05810400
17
Frame=3 idx=006432 GeodesicLength=0.2105789056426291 rxn_smarts="[C:1]([C@@:2]12[C:3]([H:11])([H:12])[C@@:4]3([H:13])[C@@:5]([H:14])([C:6]1([H:15])[H:16])[C@@:7]23[H:17])([H:8])([H:9])[H:10]>>[C:1](=[C:2]1[C:3]([H:11])([H:12])[C@@:4]2([H:13])[C@@:5]3([H:14])[C@:6]1([H:16])[C@@:7]23[H:17])([H:8])[H:9].[H:10][H:15]"
C        1.45363024      -1.32015271      -0.09355982
C        0.35157632      -0.44976141      -0.16500663
C       -1.09396624      -0.89034076       0.04732159
C       -1.59444638       0.45748524      -0.43535249
C       -0.74509168       1.54183901       0.15379856
C        0.49741026       0.85038934       0.54020809
C       -0.32893988       0.87722217      -1.11778027
H        1.29197447      -2.38861717      -0.18343180
H        2.40519395      -0.97828566      -0.48763968
H        1.52752603      -0.79811295       1.51279803
H       -1.34847070      -1.18749157       1.06787606
H       -1.36191837      -1.68072824      -0.65472220
H       -2.58559738       0.69480040      -0.79506842
H       -1.01360401       2.57383590       0.30020228
H        1.14580021      -0.01398891       1.92384457
H        1.42648237       1.40716229       0.44505386
H       -0.02755919       1.30474503      -2.05854173
17
Frame=4 idx=006432 GeodesicLength=0.28070808347062715 rxn_smarts="[C:1]([C@@:2]12[C:3]([H:11])([H:12])[C@@:4]3([H:13])[C@@:5]([H:14])([C:6]1([H:15])[H:16])[C@@:7]23[H:17])([H:8])([H:9])[H:10]>>[C:1](=[C:2]1[C:3]([H:11])([H:12])[C@@:4]2([H:13])[C@@:5]3([H:14])[C@:6]1([H:16])[C@@:7]23[H:17])([H:8])[H:9].[H:10][H:15]"
C        1.45474660      -1.32612850      -0.08435198
C        0.35559007      -0.45158608      -0.16867777
C       -1.09133443      -0.89087967       0.03910939
C       -1.59278468       0.45753929      -0.44029604
C       -0.74877887       1.54144441       0.15788253
C        0.49905641       0.85242498       0.53518189
C       -0.32843048       0.88947101      -1.11730613
H        1.28758417      -2.39616955      -0.14421540
H        2.39749326      -1.00287100      -0.51399295
H        1.54619922      -0.80151814       1.51822183
H       -1.35089969      -1.19121331       1.05748607
H       -1.35774842      -1.67880705      -0.66654050
H       -2.58458516       0.69251825      -0.80001775
H       -1.02414347       2.56983210       0.31746941
H        1.14794742       0.00101017       1.93011320
H        1.42579030       1.41332903       0.43879288
H       -0.03570225       1.32160407      -2.05885868
17
Frame=5 idx=006432 GeodesicLength=0.35084324467843736 rxn_smarts="[C:1]([C@@:2]12[C:3]([H:11])([H:12])[C@@:4]3([H:13])[C@@:5]([H:14])([C:6]1([H:15])[H:16])[C@@:7]23[H:17])([H:8])([H:9])[H:10]>>[C:1](=[C:2]1[C:3]([H:11])([H:12])[C@@:4]2([H:13])[C@@:5]3([H:14])[C@:6]1([H:16])[C@@:7]23[H:17])([H:8])[H:9].[H:10][H:15]"
C        1.45597469      -1.33190358      -0.07507630
C        0.35972875      -0.45336870      -0.17234932
C       -1.08856402      -0.89143080       0.03082360
C       -1.59104848       0.45757022      -0.44526576
C       -0.75245607       1.54098206       0.16196027
C        0.50072347       0.85453428       0.53012803
C       -0.32796742       0.90177928      -1.11678522
H        1.28323594      -2.40264198      -0.10534583
H        2.38877749      -1.02890492      -0.54003312
H        1.56542060      -0.80508707       1.52359582
H       -1.35320664      -1.19500406       1.04696370
H       -1.35331314      -1.67689531      -0.67845918
H       -2.58351848       0.69017161      -0.80496126
H       -1.03468341       2.56553138       0.33474034
H        1.14979745       0.01652564       1.93655209
H        1.42507958       1.41960785       0.43256618
H       -0.04398031       1.33853411      -2.05905404
17
Frame=6 idx=006432 GeodesicLength=0.42095901235388666 rxn_smarts="[C:1]([C@@:2]12[C:3]([H:11])([H:12])[C@@:4]3([H:13])[C@@:5]([H:14])([C:6]1([H:15])[H:16])[C@@:7]23[H:17])([H:8])([H:9])[H:10]>>[C:1](=[C:2]1[C:3]([H:11])([H:12])[C@@:4]2([H:13])[C@@:5]3([H:14])[C@:6]1([H:16])[C@@:7]23[H:17])([H:8])[H:9].[H:10][H:15]"
C        1.45731919      -1.33746463      -0.06576279
C        0.36399502      -0.45510254      -0.17601873
C       -1.08564495      -0.89199092       0.02246549
C       -1.58923031       0.45757808      -0.45026205
C       -0.75612260       1.54044914       0.16602993
C        0.50240795       0.85671829       0.52504610
C       -0.32755272       0.91415292      -1.11621493
H        1.27891655      -2.40805233      -0.06684640
H        2.37899747      -1.05639266      -0.56568057
H        1.58524815      -0.80884043       1.52887820
H       -1.35537450      -1.19886656       1.03630791
H       -1.34860271      -1.67498486      -0.69047429
H       -2.58238662       0.68775691      -0.80989926
H       -1.04522289       2.56092542       0.35201035
H        1.15130890       0.03256767       1.94316418
H        1.42433986       1.42600378       0.42637824
H       -0.05239579       1.35554271      -2.05912137
17
Frame=7 idx=006432 GeodesicLength=0.49105450017147434 rxn_smarts="[C:1]([C@@:2]12[C:3]([H:11])([H:12])[C@@:4]3([H:13])[C@@:5]([H:14])([C:6]1([H:15])[H:16])[C@@:7]23[H:17])([H:8])([H:9])[H:10]>>[C:1](=[C:2]1[C:3]([H:11])([H:12])[C@@:4]2([H:13])[C@@:5]3([H:14])[C@:6]1([H:16])[C@@:7]23[H:17])([H:8])[H:9].[H:10][H:15]"
C        1.45879172      -1.34280684      -0.05644543
C        0.36839364      -0.45678371      -0.17968416
C       -1.08257377      -0.89255913       0.01403498
C       -1.58733013       0.45756488      -0.45528604
C       -0.75978191       1.53984913       0.17009178
C        0.50410792       0.85898148       0.51993805
C       -0.32718714       0.92659854      -1.11559361
H        1.27462148      -2.41242785      -0.02873331
H        2.36811428      -1.08534384      -0.59085920
H        1.60575352      -0.81279786       1.53401939
H       -1.35739681      -1.20280424       1.02551792
H       -1.34361370      -1.67307410      -0.70258588
H       -2.58119053       0.68527365      -0.81483378
H       -1.05576750       2.55601631       0.36927844
H        1.15243639       0.04914991       1.94996019
H        1.42356819       1.43252582       0.42023686
H       -0.06094564       1.37263784      -2.05905621
17
Frame=8 idx=006432 GeodesicLength=0.56115030708897 rxn_smarts="[C:1]([C@@:2]12[C:3]([H:11])([H:12])[C@@:4]3([H:13])[C@@:5]([H:14])([C:6]1([H:15])[H:16])[C@@:7]23[H:17])([H:8])([H:9])[H:10]>>[C:1](=[C:2]1[C:3]([H:11])([H:12])[C@@:4]2([H:13])[C@@:5]3([H:14])[C@:6]1([H:16])[C@@:7]23[H:17])([H:8])[H:9].[H:10][H:15]"
C        1.46039808      -1.34791767      -0.04716047
C        0.37292225      -0.45840855      -0.18333900
C       -1.07935118      -0.89313504       0.00552999
C       -1.58534230       0.45752547      -0.46034052
C       -0.76342790       1.53917862       0.17415140
C        0.50582281       0.86132696       0.51481537
C       -0.32686757       0.93911333      -1.11491905
H        1.27034913      -2.41578084       0.00898080
H        2.35605314      -1.11573789      -0.61552893
H        1.62701089      -0.81699596       1.53898705
H       -1.35927188      -1.20681832       1.01459335
H       -1.33834914      -1.67116178      -0.71480251
H       -2.57992038       0.68271148      -0.81977462
H       -1.06630413       2.55079807       0.38654307
H        1.15313411       0.06631154       1.95695675
H        1.42276278       1.43918002       0.41416286
H       -0.06961870       1.38981055      -2.05885554
17
Frame=9 idx=006432 GeodesicLength=0.6313068838915876 rxn_smarts="[C:1]([C@@:2]12[C:3]([H:11])([H:12])[C@@:4]3([H:13])[C@@:5]([H:14])([C:6]1([H:15])[H:16])[C@@:7]23[H:17])([H:8])([H:9])[H:10]>>[C:1](=[C:2]1[C:3]([H:11])([H:12])[C@@:4]2([H:13])[C@@:5]3([H:14])[C@:6]1([H:16])[C@@:7]23[H:17])([H:8])[H:9].[H:10][H:15]"
C        1.46216492      -1.35280351      -0.03795716
C        0.37759136      -0.45997703      -0.18698863
C       -1.07600968      -0.89374211      -0.00305584
C       -1.58329204       0.45744958      -0.46543305
C       -0.76706608       1.53845726       0.17822839
C        0.50756699       0.86378057       0.50969930
C       -0.32657600       0.95170841      -1.11420725
H        1.26608448      -2.41815504       0.04630262
H        2.34280093      -1.14761111      -0.63967193
H        1.64915604      -0.82140783       1.54373194
H       -1.36105331      -1.21093786       1.00354940
H       -1.33284588      -1.66928886      -0.72715586
H       -2.57861816       0.68004897      -0.82473465
H       -1.07683914       2.54530197       0.40383846
H        1.15333974       0.08408340       1.96422056
H        1.42196675       1.44601380       0.40818514
H       -0.07837091       1.40707940      -2.05855143
17
Frame=10 idx=006432 GeodesicLength=0.7013546893447494 rxn_smarts="[C:1]([C@@:2]12[C:3]([H:11])([H:12])[C@@:4]3([H:13])[C@@:5]([H:14])([C:6]1([H:15])[H:16])[C@@:7]23[H:17])([H:8])([H:9])[H:10]>>[C:1](=[C:2]1[C:3]([H:11])([H:12])[C@@:4]2([H:13])[C@@:5]3([H:14])[C@:6]1([H:16])[C@@:7]23[H:17])([H:8])[H:9].[H:10][H:15]"
C        1.46399758      -1.35752746      -0.02890771
C        0.38237238      -0.46150135      -0.19068042
C       -1.07247731      -0.89429116      -0.01165237
C       -1.58114868       0.45739263      -0.47049634
C       -0.77065236       1.53765920       0.18221714
C        0.50934386       0.86626641       0.50443864
C       -0.32642667       0.96433584      -1.11346332
H        1.26184108      -2.41963505       0.08260749
H        2.32874260      -1.18041783      -0.66215389
H        1.67183516      -0.82650583       1.54813331
H       -1.36254144      -1.21502629       0.99242533
H       -1.32712129      -1.66732824      -0.73944878
H       -2.57725003       0.67738404      -0.82954239
H       -1.08731306       2.53946768       0.42102436
H        1.15312804       0.10250310       1.97155564
H        1.42111787       1.45288179       0.40207802
H       -0.08744773       1.42434251      -2.05813471
17
Frame=11 idx=006432 GeodesicLength=0.7713372413288392 rxn_smarts="[C:1]([C@@:2]12[C:3]([H:11])([H:12])[C@@:4]3([H:13])[C@@:5]([H:14])([C:6]1([H:15])[H:16])[C@@:7]23[H:17])([H:8])([H:9])[H:10]>>[C:1](=[C:2]1[C:3]([H:11])([H:12])[C@@:4]2([H:13])[C@@:5]3([H:14])[C@:6]1([H:16])[C@@:7]23[H:17])([H:8])[H:9].[H:10][H:15]"
C        1.46602017      -1.36198491      -0.01991842
C        0.38730522      -0.46293558      -0.19427373
C       -1.06873308      -0.89482960      -0.02038846
C       -1.57886699       0.45732559      -0.47565545
C       -0.77428984       1.53676202       0.18623067
C        0.51105779       0.86882327       0.49924710
C       -0.32628446       0.97709229      -1.11257873
H        1.25762922      -2.42004174       0.11913902
H        2.31287913      -1.21509688      -0.68461541
H        1.69595887      -0.83163391       1.55205707
H       -1.36385736      -1.21923651       0.98103258
H       -1.32094971      -1.66529614      -0.75194807
H       -2.57571087       0.67465433      -0.83450685
H       -1.09788293       2.53326965       0.43820768
H        1.15215692       0.12145242       1.97916150
H        1.42011505       1.45987621       0.39622166
H       -0.09654713       1.44179950      -2.05741217
17
Frame=12 idx=006432 GeodesicLength=0.8413852074471861 rxn_smarts="[C:1]([C@@:2]12[C:3]([H:11])([H:12])[C@@:4]3([H:13])[C@@:5]([H:14])([C:6]1([H:15])[H:16])[C@@:7]23[H:17])([H:8])([H:9])[H:10]>>[C:1](=[C:2]1[C:3]([H:11])([H:12])[C@@:4]2([H:13])[C@@:5]3([H:14])[C@:6]1([H:16])[C@@:7]23[H:17])([H:8])[H:9].[H:10][H:15]"
C        1.46818306      -1.36626024      -0.01114051
C        0.39237176      -0.46431245      -0.19786641
C       -1.06487420      -0.89538281      -0.02920430
C       -1.57652253       0.45723292      -0.48085491
C       -0.77790908       1.53580869       0.19025256
C        0.51280446       0.87147789       0.49405157
C       -0.32618647       0.98992860      -1.11165910
H        1.25340307      -2.41954473       0.15518020
H        2.29578186      -1.25109337      -0.70607797
H        1.72126776      -0.83714441       1.55549184
H       -1.36505778      -1.22353834       0.96952164
H       -1.31457028      -1.66327515      -0.76457620
H       -2.57413956       0.67183612      -0.83948670
H       -1.10843990       2.52677107       0.45541672
H        1.15051099       0.14111342       1.98707664
H        1.41912416       1.46703246       0.39045697
H       -0.10574732       1.45935033      -2.05658204
17
Frame=13 idx=006432 GeodesicLength=0.9114477675800214 rxn_smarts="[C:1]([C@@:2]12[C:3]([H:11])([H:12])[C@@:4]3([H:13])[C@@:5]([H:14])([C:6]1([H:15])[H:16])[C@@:7]23[H:17])([H:8])([H:9])[H:10]>>[C:1](=[C:2]1[C:3]([H:11])([H:12])[C@@:4]2([H:13])[C@@:5]3([H:14])[C@:6]1([H:16])[C@@:7]23[H:17])([H:8])[H:9].[H:10][H:15]"
C        1.47047739      -1.37036826      -0.00259217
C        0.39756702      -0.46563028      -0.20143426
C       -1.06087065      -0.89592804      -0.03810004
C       -1.57408936       0.45713253      -0.48610052
C       -0.78151851       1.53478814       0.19426697
C        0.51455596       0.87420810       0.48885056
C       -0.32613896       1.00284914      -1.11067560
H        1.24917488      -2.41814186       0.19079314
H        2.27733663      -1.28839616      -0.72646877
H        1.74793636      -0.84307725       1.55829068
H       -1.36609982      -1.22791410       0.95786477
H       -1.30793697      -1.66122220      -0.77731439
H       -2.57248965       0.66895858      -0.84449753
H       -1.11899827       2.51994955       0.47261425
H        1.14806058       0.16147993       1.99529005
H        1.41809129       1.47431186       0.38480069
H       -0.11505791       1.47700034      -2.05558784
17
Frame=14 idx=006432 GeodesicLength=0.9815179809647556 rxn_smarts="[C:1]([C@@:2]12[C:3]([H:11])([H:12])[C@@:4]3([H:13])[C@@:5]([H:14])([C:6]1([H:15])[H:16])[C@@:7]23[H:17])([H:8])([H:9])[H:10]>>[C:1](=[C:2]1[C:3]([H:11])([H:12])[C@@:4]2([H:13])[C@@:5]3([H:14])[C@:6]1([H:16])[C@@:7]23[H:17])([H:8])[H:9].[H:10][H:15]"
C        1.47289658      -1.37432988       0.00569257
C        0.40288547      -0.46689134      -0.20496303
C       -1.05672627      -0.89645821      -0.04707605
C       -1.57156373       0.45703048      -0.49140009
C       -0.78511974       1.53369763       0.19827076
C        0.51630328       0.87700434       0.48365561
C       -0.32613833       1.01585300      -1.10961948
H        1.24494563      -2.41584147       0.22600324
H        2.25748444      -1.32696447      -0.74569808
H        1.77616252      -0.84946633       1.56030773
H       -1.36698598      -1.23235745       0.94605661
H       -1.30105335      -1.65912450      -0.79016137
H       -2.57075160       0.66603132      -0.84955722
H       -1.12955805       2.51279931       0.48978586
H        1.14467612       0.18257369       2.00383674
H        1.41700787       1.48169786       0.37928053
H       -0.12446486       1.49474602      -2.05441434
17
Frame=15 idx=006432 GeodesicLength=1.0516002935436446 rxn_smarts="[C:1]([C@@:2]12[C:3]([H:11])([H:12])[C@@:4]3([H:13])[C@@:5]([H:14])([C:6]1([H:15])[H:16])[C@@:7]23[H:17])([H:8])([H:9])[H:10]>>[C:1](=[C:2]1[C:3]([H:11])([H:12])[C@@:4]2([H:13])[C@@:5]3([H:14])[C@:6]1([H:16])[C@@:7]23[H:17])([H:8])[H:9].[H:10][H:15]"
C        1.47543160      -1.37817221       0.01367852
C        0.40831977      -0.46810009      -0.20843598
C       -1.05245106      -0.89696950      -0.05613252
C       -1.56894382       0.45693195      -0.49676302
C       -0.78871503       1.53253682       0.20226298
C        0.51803680       0.87985794       0.47848429
C       -0.32617658       1.02893902      -1.10848248
H        1.24071759      -2.41265102       0.26084608
H        2.23616538      -1.36675356      -0.76368023
H        1.80617609      -0.85634506       1.56137077
H       -1.36772923      -1.23686499       0.93409419
H       -1.29392873      -1.65697503      -0.80311849
H       -2.56891783       0.66306302      -0.85468846
H       -1.14011912       2.50532051       0.50691749
H        1.14020876       0.20442317       2.01276397
H        1.41586895       1.48917567       0.37393226
H       -0.13394353       1.51258336      -2.05304938
17
Frame=16 idx=006432 GeodesicLength=1.1217006918064492 rxn_smarts="[C:1]([C@@:2]12[C:3]([H:11])([H:12])[C@@:4]3([H:13])[C@@:5]([H:14])([C:6]1([H:15])[H:16])[C@@:7]23[H:17])([H:8])([H:9])[H:10]>>[C:1](=[C:2]1[C:3]([H:11])([H:12])[C@@:4]2([H:13])[C@@:5]3([H:14])[C@:6]1([H:16])[C@@:7]23[H:17])([H:8])[H:9].[H:10][H:15]"
C        1.47806849      -1.38192762       0.02133246
C        0.41386101      -0.46926196      -0.21183404
C       -1.04805704      -0.89745827      -0.06527112
C       -1.56622705       0.45684258      -0.50220157
C       -0.79230803       1.53130525       0.20624329
C        0.51974437       0.88275840       0.47335911
C       -0.32624248       1.04210636      -1.10725436
H        1.23649219      -2.40857042       0.29537647
H        2.21331355      -1.40772663      -0.78032692
H        1.83824708      -0.86374240       1.56126796
H       -1.36834711      -1.24143335       0.92197210
H       -1.28657285      -1.65476708      -0.81618930
H       -2.56697875       0.66006355      -0.85991921
H       -1.15068470       2.49751322       0.52399554
H        1.13448616       0.22705977       2.02212719
H        1.41466833       1.49672794       0.36880032
H       -0.14346316       1.53051066      -2.05147792
