19
Frame=0 idx=010899 GeodesicLength=0.0 rxn_smarts="[C:1]([C:2]([C@@:3]1([H:13])[C:4]([H:14])([H:15])[C:5]([H:16])([H:17])[C:6]([H:18])([H:19])[O:7]1)([H:11])[H:12])([H:8])([H:9])[H:10]>>[C:1]([C:2]([C:3]([O:7][C:6]1([H:18])[C:4]([H:14])([H:15])[C:5]1([H:16])[H:17])([H:13])[H:19])([H:11])[H:12])([H:8])([H:9])[H:10]"
C        2.71676076      -0.34687253       0.41702559
C        1.57932816      -0.31946203      -0.59567353
C        0.31091024       0.29539818      -0.01499547
C       -1.80046552       1.35841723      -0.16313502
C       -2.38854205       0.04006824      -0.05653100
C       -1.28296610      -1.01613156       0.15851222
O       -0.26554146      -0.53998900       0.96627095
H        2.97863556       0.66100417       0.74748242
H        2.43499510      -0.92749812       1.29676376
H        3.61139862      -0.79825893      -0.01577758
H        1.86344886       0.26850472      -1.47324153
H        1.34875638      -1.32969833      -0.94531483
H        0.54353893       1.28938794       0.36677333
H       -1.49669900       1.86146974       0.74458408
H       -2.04568385       2.00452523      -0.99818347
H       -3.02061134      -0.25636904      -0.89320753
H       -2.97929000      -0.02324442       0.86913461
H       -1.60101372      -2.02263748       0.45309262
H       -0.50695959      -0.19861394      -0.86357970
19
Frame=1 idx=010899 GeodesicLength=0.10329350751493055 rxn_smarts="[C:1]([C:2]([C@@:3]1([H:13])[C:4]([H:14])([H:15])[C:5]([H:16])([H:17])[C:6]([H:18])([H:19])[O:7]1)([H:11])[H:12])([H:8])([H:9])[H:10]>>[C:1]([C:2]([C:3]([O:7][C:6]1([H:18])[C:4]([H:14])([H:15])[C:5]1([H:16])[H:17])([H:13])[H:19])([H:11])[H:12])([H:8])([H:9])[H:10]"
C        2.71964183      -0.34057401       0.41359283
C        1.58727987      -0.31308392      -0.60480519
C        0.30967295       0.28953214      -0.03221778
C       -1.78230861       1.34331778      -0.14108049
C       -2.40674059       0.03838185      -0.05795784
C       -1.30202801      -1.00554060       0.18114777
O       -0.25516305      -0.54211383       0.95856678
H        2.97249192       0.66660858       0.75325049
H        2.43679546      -0.92955704       1.28738768
H        3.61998276      -0.78205949      -0.01757684
H        1.87350524       0.28141216      -1.47742501
H        1.36578013      -1.32310962      -0.96085642
H        0.54594669       1.28156234       0.35596331
H       -1.51821593       1.85439944       0.77461643
H       -1.98952420       1.99002274      -0.98613238
H       -3.01183772      -0.24479845      -0.91821843
H       -3.02127514      -0.02016333       0.85138578
H       -1.62565627      -2.00210864       0.50117729
H       -0.51834733      -0.24212811      -0.88081797
19
Frame=2 idx=010899 GeodesicLength=0.20641964047870426 rxn_smarts="[C:1]([C:2]([C@@:3]1([H:13])[C:4]([H:14])([H:15])[C:5]([H:16])([H:17])[C:6]([H:18])([H:19])[O:7]1)([H:11])[H:12])([H:8])([H:9])[H:10]>>[C:1]([C:2]([C:3]([O:7][C:6]1([H:18])[C:4]([H:14])([H:15])[C:5]1([H:16])[H:17])([H:13])[H:19])([H:11])[H:12])([H:8])([H:9])[H:10]"
C        2.72255073      -0.33476543       0.40989226
C        1.59508350      -0.30608591      -0.61396025
C        0.30851116       0.28331824      -0.04846617
C       -1.76437660       1.32767994      -0.11961760
C       -2.42435262       0.03709835      -0.06011895
C       -1.32070800      -0.99409595       0.20440016
O       -0.24488518      -0.54532587       0.95095003
H        2.96626232       0.67124454       0.75980681
H        2.43893805      -0.93312188       1.27705596
H        3.62849632      -0.76570419      -0.02021591
H        1.88296926       0.29609839      -1.48092793
H        1.38297229      -1.31541014      -0.97767412
H        0.54819877       1.27318647       0.34671677
H       -1.54010042       1.84817738       0.80150829
H       -1.93533417       1.97423728      -0.97312918
H       -3.00154253      -0.23382923      -0.94264705
H       -3.06256533      -0.01556698       0.83208938
H       -1.65032774      -1.97968910       0.55023249
H       -0.52978980      -0.28744591      -0.89589499
19
Frame=3 idx=010899 GeodesicLength=0.3094028567280123 rxn_smarts="[C:1]([C:2]([C@@:3]1([H:13])[C:4]([H:14])([H:15])[C:5]([H:16])([H:17])[C:6]([H:18])([H:19])[O:7]1)([H:11])[H:12])([H:8])([H:9])[H:10]>>[C:1]([C:2]([C:3]([O:7][C:6]1([H:18])[C:4]([H:14])([H:15])[C:5]1([H:16])[H:17])([H:13])[H:19])([H:11])[H:12])([H:8])([H:9])[H:10]"
C        2.72545866      -0.32949023       0.40591763
C        1.60270126      -0.29843967      -0.62312634
C        0.30741570       0.27680888      -0.06372581
C       -1.74674275       1.31158513      -0.09867435
C       -2.44126731       0.03616320      -0.06298549
C       -1.33892703      -0.98182644       0.22813148
O       -0.23475612      -0.54965467       0.94338576
H        2.95996474       0.67480762       0.76715313
H        2.44138044      -0.93820302       1.26571916
H        3.63688772      -0.74925806      -0.02366929
H        1.89180344       0.31259246      -1.48367827
H        1.40026168      -1.30650337      -0.99580195
H        0.55027789       1.26428835       0.33906582
H       -1.56243959       1.84294666       0.82528697
H       -1.88312244       1.95723030      -0.95939224
H       -2.98975174      -0.22355605      -0.96642481
H       -3.10293037      -0.00961573       0.81129831
H       -1.67494542      -1.95529744       0.60026002
H       -0.54126876      -0.33457791      -0.90873973
19
Frame=4 idx=010899 GeodesicLength=0.4122716301532309 rxn_smarts="[C:1]([C:2]([C@@:3]1([H:13])[C:4]([H:14])([H:15])[C:5]([H:16])([H:17])[C:6]([H:18])([H:19])[O:7]1)([H:11])[H:12])([H:8])([H:9])[H:10]>>[C:1]([C:2]([C:3]([O:7][C:6]1([H:18])[C:4]([H:14])([H:15])[C:5]1([H:16])[H:17])([H:13])[H:19])([H:11])[H:12])([H:8])([H:9])[H:10]"
C        2.72832930      -0.32479727       0.40167151
C        1.61009415      -0.29011221      -0.63228967
C        0.30637857       0.27006966      -0.07799064
C       -1.72946936       1.29511571      -0.07819529
C       -2.45737305       0.03551059      -0.06651722
C       -1.35659581      -0.96878160       0.25217215
O       -0.22483255      -0.55510792       0.93583528
H        2.95361607       0.67718067       0.77529515
H        2.44406117      -0.94481112       1.25332338
H        3.64509860      -0.73279455      -0.02789416
H        1.89998187       0.33091546      -1.48559335
H        1.41756299      -1.29627954      -1.01526368
H        0.55216887       1.25490279       0.33303531
H       -1.58529938       1.83883840       0.84593728
H       -1.83291691       1.93906555      -0.94510939
H       -2.97651443      -0.21406287      -0.98947010
H       -3.14213014      -0.00248909       0.78909483
H       -1.69939576      -1.92883564       0.65124606
H       -0.55276418      -0.38352702      -0.91928744
19
Frame=5 idx=010899 GeodesicLength=0.5149302610729397 rxn_smarts="[C:1]([C:2]([C@@:3]1([H:13])[C:4]([H:14])([H:15])[C:5]([H:16])([H:17])[C:6]([H:18])([H:19])[O:7]1)([H:11])[H:12])([H:8])([H:9])[H:10]>>[C:1]([C:2]([C:3]([O:7][C:6]1([H:18])[C:4]([H:14])([H:15])[C:5]1([H:16])[H:17])([H:13])[H:19])([H:11])[H:12])([H:8])([H:9])[H:10]"
C        2.73112564      -0.32073515       0.39715560
C        1.61722127      -0.28105555      -0.64140294
C        0.30538706       0.26317013      -0.09123274
C       -1.71258402       1.27833781      -0.05821932
C       -2.47258819       0.03508677      -0.07058581
C       -1.37365177      -0.95502059       0.27645544
O       -0.21514013      -0.56162087       0.92832578
H        2.94721582       0.67824446       0.78426964
H        2.44692619      -0.95300090       1.23980699
H        3.65307638      -0.71638622      -0.03288362
H        1.90749758       0.35108660      -1.48656049
H        1.43474891      -1.28458392      -1.03604099
H        0.55385823       1.24508362       0.32866828
H       -1.60861017       1.83587820       0.86334228
H       -1.78479697       1.91965859      -0.93058518
H       -2.96192088      -0.20544284      -1.01160087
H       -3.17995273       0.00566844       0.76566320
H       -1.72363421      -1.90027406       0.70292003
H       -0.56417802      -0.43409454      -0.92749529
19
Frame=6 idx=010899 GeodesicLength=0.6174867369367781 rxn_smarts="[C:1]([C:2]([C@@:3]1([H:13])[C:4]([H:14])([H:15])[C:5]([H:16])([H:17])[C:6]([H:18])([H:19])[O:7]1)([H:11])[H:12])([H:8])([H:9])[H:10]>>[C:1]([C:2]([C:3]([O:7][C:6]1([H:18])[C:4]([H:14])([H:15])[C:5]1([H:16])[H:17])([H:13])[H:19])([H:11])[H:12])([H:8])([H:9])[H:10]"
C        2.73379592      -0.31735955       0.39237796
C        1.62403597      -0.27125522      -0.65046087
C        0.30443160       0.25620638      -0.10347844
C       -1.69615857       1.26135275      -0.03863939
C       -2.48679129       0.03478978      -0.07518276
C       -1.38997298      -0.94064303       0.30072983
O       -0.20576675      -0.56915447       0.92079984
H        2.94078902       0.67787506       0.79405074
H        2.44987629      -0.96274637       1.22512842
H        3.66074349      -0.70013979      -0.03855943
H        1.91432917       0.37308862      -1.48650542
H        1.45171358      -1.27133963      -1.05814202
H        0.55533600       1.23489395       0.32592882
H       -1.63251128       1.83420773       0.87750491
H       -1.73871230       1.89921773      -0.91586860
H       -2.94599956      -0.19775078      -1.03283173
H       -3.21617628       0.01459029       0.74106488
H       -1.74741041      -1.86949075       0.75540435
H       -0.57555160      -0.48634271      -0.93332110
19
Frame=7 idx=010899 GeodesicLength=0.7199539348555333 rxn_smarts="[C:1]([C:2]([C@@:3]1([H:13])[C:4]([H:14])([H:15])[C:5]([H:16])([H:17])[C:6]([H:18])([H:19])[O:7]1)([H:11])[H:12])([H:8])([H:9])[H:10]>>[C:1]([C:2]([C:3]([O:7][C:6]1([H:18])[C:4]([H:14])([H:15])[C:5]1([H:16])[H:17])([H:13])[H:19])([H:11])[H:12])([H:8])([H:9])[H:10]"
C        2.73629304      -0.31473174       0.38734060
C        1.63049260      -0.26068859      -0.65941903
C        0.30350441       0.24928595      -0.11472829
C       -1.68024171       1.24425371      -0.01942127
C       -2.49990036       0.03452353      -0.08024124
C       -1.40546532      -0.92575516       0.32480681
O       -0.19677332      -0.57759990       0.91325751
H        2.93435992       0.67595565       0.80463872
H        2.45282147      -0.97405504       1.20924409
H        3.66802937      -0.68417282      -0.04487278
H        1.92047150       0.39689937      -1.48533793
H        1.46831128      -1.25644174      -1.08152863
H        0.55660373       1.22441782       0.32479986
H       -1.65702581       1.83387754       0.88833961
H       -1.69466852       1.87782669      -0.90109467
H       -2.92882664      -0.19103189      -1.05310145
H       -3.25061652       0.02403032       0.71544236
H       -1.77050340      -1.83642322       0.80862121
H       -0.58686571      -0.54017050      -0.93674548
19
Frame=8 idx=010899 GeodesicLength=0.822343465151772 rxn_smarts="[C:1]([C:2]([C@@:3]1([H:13])[C:4]([H:14])([H:15])[C:5]([H:16])([H:17])[C:6]([H:18])([H:19])[O:7]1)([H:11])[H:12])([H:8])([H:9])[H:10]>>[C:1]([C:2]([C:3]([O:7][C:6]1([H:18])[C:4]([H:14])([H:15])[C:5]1([H:16])[H:17])([H:13])[H:19])([H:11])[H:12])([H:8])([H:9])[H:10]"
C        2.73857196      -0.31290684       0.38205609
C        1.63655067      -0.24933673      -0.66824345
C        0.30260162       0.24252031      -0.12500078
C       -1.66487714       1.22713908      -0.00051805
C       -2.51184929       0.03418971      -0.08568672
C       -1.42003765      -0.91047937       0.34850144
O       -0.18821748      -0.58682376       0.90569983
H        2.92795575       0.67237037       0.81600184
H        2.45566350      -0.98689677       1.19212233
H        3.67486921      -0.66860679      -0.05175489
H        1.92593761       0.42244699      -1.48297123
H        1.48439500      -1.23980069      -1.10612077
H        0.55767294       1.21374922       0.32523449
H       -1.68216234       1.83491366       0.89576988
H       -1.65267584       1.85559950      -0.88635051
H       -2.91048227      -0.18531727      -1.07235759
H       -3.28312671       0.03371811       0.68894522
H       -1.79267565      -1.80100339       0.86243416
H       -0.59811388      -0.59547534      -0.93776129
19
Frame=9 idx=010899 GeodesicLength=0.9245122115153241 rxn_smarts="[C:1]([C:2]([C@@:3]1([H:13])[C:4]([H:14])([H:15])[C:5]([H:16])([H:17])[C:6]([H:18])([H:19])[O:7]1)([H:11])[H:12])([H:8])([H:9])[H:10]>>[C:1]([C:2]([C:3]([O:7][C:6]1([H:18])[C:4]([H:14])([H:15])[C:5]1([H:16])[H:17])([H:13])[H:19])([H:11])[H:12])([H:8])([H:9])[H:10]"
C        2.74061426      -0.31187495       0.37655080
C        1.64221446      -0.23718659      -0.67685104
C        0.30171961       0.23595975      -0.13429031
C       -1.65004892       1.21007014       0.01794624
C       -2.52265678       0.03380088      -0.09128022
C       -1.43369075      -0.89488739       0.37181487
O       -0.18008610      -0.59667560       0.89818289
H        2.92157618       0.66710160       0.82811308
H        2.45835396      -1.00121705       1.17380071
H        3.68124007      -0.65350443      -0.05919049
H        1.93080311       0.44964417      -1.47930379
H        1.49985946      -1.22134761      -1.13174555
H        0.55854894       1.20295241       0.32720696
H       -1.70768725       1.83716612       0.89970297
H       -1.61282404       1.83237491      -0.87197283
H       -2.89118618      -0.18064849      -1.09033459
H       -3.31360912       0.04363036       0.66194565
H       -1.81397620      -1.76347543       0.91618358
H       -0.60916471      -0.65188281      -0.93647892
19
Frame=10 idx=010899 GeodesicLength=1.0266121970457458 rxn_smarts="[C:1]([C:2]([C@@:3]1([H:13])[C:4]([H:14])([H:15])[C:5]([H:16])([H:17])[C:6]([H:18])([H:19])[O:7]1)([H:11])[H:12])([H:8])([H:9])[H:10]>>[C:1]([C:2]([C:3]([O:7][C:6]1([H:18])[C:4]([H:14])([H:15])[C:5]1([H:16])[H:17])([H:13])[H:19])([H:11])[H:12])([H:8])([H:9])[H:10]"
C        2.74236774      -0.31171428       0.37080478
C        1.64741320      -0.22425670      -0.68522342
C        0.30085585       0.22978023      -0.14263129
C       -1.63582433       1.19315852       0.03619602
C       -2.53225345       0.03317024      -0.09709607
C       -1.44630970      -0.87916625       0.39443648
O       -0.17246914      -0.60696744       0.89071318
H        2.91528768       0.66000292       0.84089165
H        2.46077663      -1.01695579       1.15421218
H        3.68705938      -0.63903206      -0.06708710
H        1.93503198       0.47837043      -1.47428560
H        1.51450574      -1.20104912      -1.15831952
H        0.55926065       1.19217640       0.33060694
H       -1.73377534       1.84072760       0.90006664
H       -1.57498379       1.80855369      -0.85772956
H       -2.87088820      -0.17698075      -1.10725108
H       -3.34200647       0.05326417       0.63439422
H       -1.83389790      -1.72357822       0.97009310
H       -0.62015051      -0.70950357      -0.93279154
19
Frame=11 idx=010899 GeodesicLength=1.1286526396195606 rxn_smarts="[C:1]([C:2]([C@@:3]1([H:13])[C:4]([H:14])([H:15])[C:5]([H:16])([H:17])[C:6]([H:18])([H:19])[O:7]1)([H:11])[H:12])([H:8])([H:9])[H:10]>>[C:1]([C:2]([C:3]([O:7][C:6]1([H:18])[C:4]([H:14])([H:15])[C:5]1([H:16])[H:17])([H:13])[H:19])([H:11])[H:12])([H:8])([H:9])[H:10]"
C        2.74381422      -0.31242822       0.36482176
C        1.65211956      -0.21056745      -0.69330211
C        0.30000841       0.22408339      -0.15002882
C       -1.62221977       1.17648550       0.05428202
C       -2.54064868       0.03223520      -0.10307321
C       -1.45787988      -0.86343379       0.41625042
O       -0.16539240      -0.61753680       0.88332430
H        2.90914611       0.65106219       0.85422608
H        2.46287097      -1.03399229       1.13338739
H        3.69228872      -0.62530065      -0.07539805
H        1.93863810       0.50847913      -1.46787973
H        1.52819537      -1.17888904      -1.18566020
H        0.55982599       1.18151223       0.33536921
H       -1.76033725       1.84544588       0.89682553
H       -1.53911043       1.78424945      -0.84362622
H       -2.84967130      -0.17426009      -1.12311760
H       -3.36831341       0.06241976       0.60642649
H       -1.85224789      -1.68137528       1.02391828
H       -0.63108643      -0.76818914      -0.92674555
19
Frame=12 idx=010899 GeodesicLength=1.2306395628257214 rxn_smarts="[C:1]([C:2]([C@@:3]1([H:13])[C:4]([H:14])([H:15])[C:5]([H:16])([H:17])[C:6]([H:18])([H:19])[O:7]1)([H:11])[H:12])([H:8])([H:9])[H:10]>>[C:1]([C:2]([C:3]([O:7][C:6]1([H:18])[C:4]([H:14])([H:15])[C:5]1([H:16])[H:17])([H:13])[H:19])([H:11])[H:12])([H:8])([H:9])[H:10]"
C        2.74493865      -0.31401518       0.35859273
C        1.65631701      -0.19613385      -0.70102795
C        0.29917506       0.21896104      -0.15649716
C       -1.60925414       1.16011699       0.07224056
C       -2.54788188       0.03094531      -0.10915105
C       -1.46841663      -0.84779454       0.43718572
O       -0.15886109      -0.62821970       0.87606331
H        2.90318112       0.64024172       0.86802557
H        2.46458481      -1.05221387       1.11130456
H        3.69690647      -0.61236308      -0.08409363
H        1.94165522       0.53982392      -1.46001834
H        1.54080338      -1.15486066      -1.21357231
H        0.56026683       1.17105840       0.34141586
H       -1.78723128       1.85111703       0.88997852
H       -1.50515055       1.75955539      -0.82968763
H       -2.82761168      -0.17243229      -1.13795633
H       -3.39257462       0.07091763       0.57815757
H       -1.86885653      -1.63688512       1.07739647
H       -0.64199016      -0.82781915      -0.91835646
19
Frame=13 idx=010899 GeodesicLength=1.3326015381063852 rxn_smarts="[C:1]([C:2]([C@@:3]1([H:13])[C:4]([H:14])([H:15])[C:5]([H:16])([H:17])[C:6]([H:18])([H:19])[O:7]1)([H:11])[H:12])([H:8])([H:9])[H:10]>>[C:1]([C:2]([C:3]([O:7][C:6]1([H:18])[C:4]([H:14])([H:15])[C:5]1([H:16])[H:17])([H:13])[H:19])([H:11])[H:12])([H:8])([H:9])[H:10]"
C        2.74573705      -0.31644814       0.35209226
C        1.65998597      -0.18097900      -0.70835207
C        0.29835440       0.21449686      -0.16202761
C       -1.59693000       1.14412324       0.09011100
C       -2.55400325       0.02926427      -0.11528796
C       -1.47796262      -0.83231859       0.45723679
O       -0.15286828      -0.63885382       0.86899321
H        2.89743918       0.62756633       0.88217064
H        2.46588891      -1.07149630       1.08797697
H        3.70089794      -0.60027236      -0.09317130
H        1.94409990       0.57223905      -1.45068801
H        1.55220649      -1.12897304      -1.24184468
H        0.56060684       1.16090396       0.34869127
H       -1.81429380       1.85751847       0.87957281
H       -1.47303429       1.73458313      -0.81590757
H       -2.80473974      -0.17145511      -1.15181233
H       -3.41486880       0.07861549       0.54964900
H       -1.88361508      -1.59018263       1.13016201
H       -0.65290082      -0.88833182      -0.90756443
19
Frame=14 idx=010899 GeodesicLength=1.4345029154585565 rxn_smarts="[C:1]([C:2]([C@@:3]1([H:13])[C:4]([H:14])([H:15])[C:5]([H:16])([H:17])[C:6]([H:18])([H:19])[O:7]1)([H:11])[H:12])([H:8])([H:9])[H:10]>>[C:1]([C:2]([C:3]([O:7][C:6]1([H:18])[C:4]([H:14])([H:15])[C:5]1([H:16])[H:17])([H:13])[H:19])([H:11])[H:12])([H:8])([H:9])[H:10]"
C        2.74620437      -0.31966481       0.34533061
C        1.66312902      -0.16513870      -0.71522277
C        0.29754017       0.21074436      -0.16664697
C       -1.58525190       1.12858089       0.10790969
C       -2.55908047       0.02720068      -0.12142055
C       -1.48657804      -0.81706300       0.47638199
O       -0.14741037      -0.64932313       0.86214064
H        2.89194516       0.61311660       0.89652848
H        2.46674232      -1.09164011       1.06345796
H        3.70426097      -0.58905173      -0.10258933
H        1.94601791       0.60555311      -1.43988427
H        1.56234317      -1.10130627      -1.27026485
H        0.56086431       1.15111453       0.35710984
H       -1.84125413       1.86441974       0.86565915
H       -1.44269236       1.70944229      -0.80229789
H       -2.78115675      -0.17123859      -1.16467945
H       -3.43526305       0.08545056       0.52104494
H       -1.89647757      -1.54155260       1.18181943
H       -0.66388275      -0.94964383      -0.89437665
19
Frame=15 idx=010899 GeodesicLength=1.5363192114848923 rxn_smarts="[C:1]([C:2]([C@@:3]1([H:13])[C:4]([H:14])([H:15])[C:5]([H:16])([H:17])[C:6]([H:18])([H:19])[O:7]1)([H:11])[H:12])([H:8])([H:9])[H:10]>>[C:1]([C:2]([C:3]([O:7][C:6]1([H:18])[C:4]([H:14])([H:15])[C:5]1([H:16])[H:17])([H:13])[H:19])([H:11])[H:12])([H:8])([H:9])[H:10]"
C        2.74634438      -0.32360003       0.33829773
C        1.66575219      -0.14864693      -0.72160192
C        0.29673053       0.20775362      -0.17037544
C       -1.57421740       1.11355910       0.12563943
C       -2.56319313       0.02477102      -0.12751181
C       -1.49434096      -0.80204668       0.49464377
O       -0.14246917      -0.65950620       0.85554239
H        2.88672269       0.59699252       0.91097028
H        2.46712537      -1.11246833       1.03781190
H        3.70700462      -0.57869932      -0.11233444
H        1.94745144       0.63959294      -1.42763127
H        1.57116389      -1.07194247      -1.29862908
H        0.56106175       1.14175705       0.36659145
H       -1.86782167       1.87156497       0.84836470
H       -1.41405451       1.68424191      -0.78886630
H       -2.75692846      -0.17172279      -1.17657999
H       -3.45385620       0.09139423       0.49243447
H       -1.90745901      -1.49128901       1.23195184
H       -0.67501634      -1.01170561      -0.87871770
19
Frame=16 idx=010899 GeodesicLength=1.6380122158771728 rxn_smarts="[C:1]([C:2]([C@@:3]1([H:13])[C:4]([H:14])([H:15])[C:5]([H:16])([H:17])[C:6]([H:18])([H:19])[O:7]1)([H:11])[H:12])([H:8])([H:9])[H:10]>>[C:1]([C:2]([C:3]([O:7][C:6]1([H:18])[C:4]([H:14])([H:15])[C:5]1([H:16])[H:17])([H:13])[H:19])([H:11])[H:12])([H:8])([H:9])[H:10]"
C        2.74616160      -0.32818327       0.33098567
C        1.66786825      -0.13153349      -0.72745844
C        0.29592322       0.20556575      -0.17324247
C       -1.56380989       1.09912613       0.14326403
C       -2.56642119       0.02200574      -0.13352755
C       -1.50133244      -0.78725516       0.51207909
O       -0.13801884      -0.66928894       0.84923519
H        2.88177641       0.57928774       0.92540001
H        2.46702440      -1.13383176       1.01107036
H        3.70914525      -0.56918056      -0.12239860
H        1.94845002       0.67420287      -1.41396513
H        1.57864032      -1.04096203      -1.32676010
H        0.56121822       1.13289770       0.37704266
H       -1.89369416       1.87871667       0.82786140
H       -1.38704473       1.65909664      -0.77564440
H       -2.73211162      -0.17287241      -1.18753521
H       -3.47075850       0.09644928       0.46388970
H       -1.91663799      -1.43975106       1.28016580
H       -0.68637834      -1.07448983      -0.86046202
