12
Frame=0 idx=003818 GeodesicLength=0.0 rxn_smarts="[C:1]([C@@:2]1([H:10])[N:3]([H:11])[C@:4]1([C:5]#[N:6])[H:12])([H:7])([H:8])[H:9]>>[C:1]([C:2](=[N+:6]=[C-:5]/[C:4](=[N:3]\[H:11])[H:12])[H:10])([H:7])([H:8])[H:9]"
C       -1.22310050       0.99944366      -0.30004416
C       -0.28165732       0.05611641       0.35971448
N        0.08450871      -1.12203612      -0.35998622
C        1.47891497      -1.31190213       0.10414316
C        1.66164295      -0.02962389       0.47658047
N        1.24196049       1.10321695       0.57001645
H       -0.81961545       1.35987652      -1.24564773
H       -2.14403623       0.44076356      -0.49889834
H       -1.44730541       1.84596134       0.34336373
H       -0.46703807      -0.16010484       1.40795564
H        0.04988776      -0.95286978      -1.36173860
H        1.86583815      -2.22884163       0.50454113
12
Frame=1 idx=003818 GeodesicLength=0.1293439420259842 rxn_smarts="[C:1]([C@@:2]1([H:10])[N:3]([H:11])[C@:4]1([C:5]#[N:6])[H:12])([H:7])([H:8])[H:9]>>[C:1]([C:2](=[N+:6]=[C-:5]/[C:4](=[N:3]\[H:11])[H:12])[H:10])([H:7])([H:8])[H:9]"
C       -1.22743685       1.00222289      -0.29123998
C       -0.28337848       0.05490969       0.36212017
N        0.09076802      -1.14601684      -0.38414379
C        1.46857691      -1.31385484       0.10724086
C        1.68272989      -0.02064840       0.44290492
N        1.25066855       1.10297309       0.56143379
H       -0.82076348       1.37153744      -1.23210744
H       -2.15036527       0.44930056      -0.49576046
H       -1.45754529       1.84255450       0.35881433
H       -0.47542325      -0.16455001       1.40895241
H        0.07451181      -0.96076072      -1.38359119
H        1.84765744      -2.21766736       0.54537638
12
Frame=2 idx=003818 GeodesicLength=0.25850530530593374 rxn_smarts="[C:1]([C@@:2]1([H:10])[N:3]([H:11])[C@:4]1([C:5]#[N:6])[H:12])([H:7])([H:8])[H:9]>>[C:1]([C:2](=[N+:6]=[C-:5]/[C:4](=[N:3]\[H:11])[H:12])[H:10])([H:7])([H:8])[H:9]"
C       -1.23127023       1.00517217      -0.28256640
C       -0.28560274       0.05370560       0.36550973
N        0.09695941      -1.17128158      -0.40778003
C        1.45808069      -1.31449037       0.10988122
C        1.70307198      -0.01189711       0.40876964
N        1.25941751       1.10187078       0.55452774
H       -0.82042316       1.38246725      -1.21853132
H       -2.15635298       0.45851744      -0.49304803
H       -1.46714716       1.83976284       0.37346562
H       -0.48539345      -0.16909987       1.41065813
H        0.09801611      -0.97074998      -1.40449318
H        1.83064401      -2.20397718       0.58360688
12
Frame=3 idx=003818 GeodesicLength=0.3875315467017407 rxn_smarts="[C:1]([C@@:2]1([H:10])[N:3]([H:11])[C@:4]1([C:5]#[N:6])[H:12])([H:7])([H:8])[H:9]>>[C:1]([C:2](=[N+:6]=[C-:5]/[C:4](=[N:3]\[H:11])[H:12])[H:10])([H:7])([H:8])[H:9]"
C       -1.23463613       1.00830868      -0.27401019
C       -0.28834629       0.05257558       0.36994328
N        0.10318964      -1.19786470      -0.43086597
C        1.44743260      -1.31381042       0.11202994
C        1.72258055      -0.00331421       0.37437320
N        1.26826191       1.09993097       0.54918387
H       -0.81864992       1.39267473      -1.20491089
H       -2.16198458       0.46838199      -0.49076704
H       -1.47618135       1.83762628       0.38730953
H       -0.49701745      -0.17371528       1.41308085
H        0.12045190      -0.98277741      -1.42448991
H        1.81489913      -2.18801622       0.61912334
12
Frame=4 idx=003818 GeodesicLength=0.5164519585596056 rxn_smarts="[C:1]([C@@:2]1([H:10])[N:3]([H:11])[C@:4]1([C:5]#[N:6])[H:12])([H:7])([H:8])[H:9]>>[C:1]([C:2](=[N+:6]=[C-:5]/[C:4](=[N:3]\[H:11])[H:12])[H:10])([H:7])([H:8])[H:9]"
C       -1.23758398       1.01164631      -0.26555724
C       -0.29161723       0.05159593       0.37548289
N        0.10958349      -1.22578620      -0.45338624
C        1.43660805      -1.31184730       0.11370814
C        1.74118611       0.00513199       0.34000059
N        1.27725561       1.09719799       0.54521182
H       -0.81553867       1.40215662      -1.19125693
H       -2.16726165       0.47884911      -0.48889242
H       -1.48472431       1.83619245       0.40032592
H       -0.51034251      -0.17832637       1.41624068
H        0.14193557      -0.99674580      -1.44362815
H        1.80049953      -2.17006473       0.65175093
12
Frame=5 idx=003818 GeodesicLength=0.6453487588259984 rxn_smarts="[C:1]([C@@:2]1([H:10])[N:3]([H:11])[C@:4]1([C:5]#[N:6])[H:12])([H:7])([H:8])[H:9]>>[C:1]([C:2](=[N+:6]=[C-:5]/[C:4](=[N:3]\[H:11])[H:12])[H:10])([H:7])([H:8])[H:9]"
C       -1.24018340       1.01519016      -0.25716610
C       -0.29539059       0.05087179       0.38216868
N        0.11630857      -1.25504039      -0.47542879
C        1.42558492      -1.30865098       0.11489930
C        1.75886858       0.01344838       0.30594673
N        1.28646553       1.09373869       0.54229515
H       -0.81126812       1.41091911      -1.17757121
H       -2.17219881       0.48983152      -0.48733289
H       -1.49286366       1.83549056       0.41254322
H       -0.52535775      -0.18288983       1.42011746
H        0.16266191      -1.01245236      -1.46202479
H        1.78737283      -2.15045665       0.68155322
12
Frame=6 idx=003818 GeodesicLength=0.7742224119742942 rxn_smarts="[C:1]([C@@:2]1([H:10])[N:3]([H:11])[C@:4]1([C:5]#[N:6])[H:12])([H:7])([H:8])[H:9]>>[C:1]([C:2](=[N+:6]=[C-:5]/[C:4](=[N:3]\[H:11])[H:12])[H:10])([H:7])([H:8])[H:9]"
C       -1.24251079       1.01893631      -0.24880861
C       -0.29964496       0.05049323       0.39005101
N        0.12353293      -1.28560888      -0.49705721
C        1.41428197      -1.30432132       0.11568929
C        1.77564264       0.02161750       0.27255434
N        1.29593926       1.08966144       0.54009748
H       -0.80602284       1.41894967      -1.16387908
H       -2.17682926       0.50124379      -0.48600019
H       -1.50069260       1.83555154       0.42396159
H       -0.54203347      -0.18729014       1.42473196
H        0.18287586      -1.02968792      -1.47975168
H        1.77546126      -2.12954522       0.70841110
12
Frame=7 idx=003818 GeodesicLength=0.903142689467893 rxn_smarts="[C:1]([C@@:2]1([H:10])[N:3]([H:11])[C@:4]1([C:5]#[N:6])[H:12])([H:7])([H:8])[H:9]>>[C:1]([C:2](=[N+:6]=[C-:5]/[C:4](=[N:3]\[H:11])[H:12])[H:10])([H:7])([H:8])[H:9]"
C       -1.24465487       1.02287955      -0.24043444
C       -0.30432815       0.05058996       0.39917934
N        0.13146323      -1.31745999      -0.51842033
C        1.40260453      -1.29897000       0.11614095
C        1.79157849       0.02958615       0.24012996
N        1.30572881       1.08509546       0.53821103
H       -0.80004137       1.42623582      -1.15019820
H       -2.18119133       0.51296113      -0.48475477
H       -1.50831140       1.83639873       0.43460588
H       -0.56029831      -0.19144473       1.43007213
H        0.20286345      -1.04816991      -1.49692308
H        1.76458690      -2.10770217       0.73239154
12
Frame=8 idx=003818 GeodesicLength=1.0321170167108638 rxn_smarts="[C:1]([C@@:2]1([H:10])[N:3]([H:11])[C@:4]1([C:5]#[N:6])[H:12])([H:7])([H:8])[H:9]>>[C:1]([C:2](=[N+:6]=[C-:5]/[C:4](=[N:3]\[H:11])[H:12])[H:10])([H:7])([H:8])[H:9]"
C       -1.24670287       1.02700033      -0.23199664
C       -0.30938072       0.05128431       0.40959896
N        0.14032386      -1.35054539      -0.53967857
C        1.39042902      -1.29272708       0.11631165
C        1.80679364       0.03726689       0.20895848
N        1.31586724       1.08018822       0.53625700
H       -0.79355972       1.43276576      -1.13655447
H       -2.18532918       0.52484629      -0.48345274
H       -1.51582556       1.83803843       0.44449961
H       -0.58004463      -0.19522344       1.43614865
H        0.22290848      -1.06762429      -1.51364877
H        1.75452044      -2.08527002       0.75355684
12
Frame=9 idx=003818 GeodesicLength=1.1618956386594275 rxn_smarts="[C:1]([C@@:2]1([H:10])[N:3]([H:11])[C@:4]1([C:5]#[N:6])[H:12])([H:7])([H:8])[H:9]>>[C:1]([C:2](=[N+:6]=[C-:5]/[C:4](=[N:3]\[H:11])[H:12])[H:10])([H:7])([H:8])[H:9]"
C       -1.24872000       1.03129995      -0.22338521
C       -0.31466858       0.05290029       0.42153892
N        0.15050356      -1.38494872      -0.56126303
C        1.37738157      -1.28581223       0.11647524
C        1.82128766       0.04449825       0.17902790
N        1.32639709       1.07504594       0.53382510
H       -0.78681851       1.43844818      -1.12291216
H       -2.18924222       0.53670076      -0.48183775
H       -1.52333949       1.84052790       0.45362901
H       -0.60123073      -0.19854455       1.44296338
H        0.24343850      -1.08766400      -1.53015593
H        1.74501114      -2.06245176       0.77209452
12
Frame=10 idx=003818 GeodesicLength=1.2918041636372135 rxn_smarts="[C:1]([C@@:2]1([H:10])[N:3]([H:11])[C@:4]1([C:5]#[N:6])[H:12])([H:7])([H:8])[H:9]>>[C:1]([C:2](=[N+:6]=[C-:5]/[C:4](=[N:3]\[H:11])[H:12])[H:10])([H:7])([H:8])[H:9]"
C       -1.25078066       1.03575980      -0.21460830
C       -0.32018302       0.05542891       0.43494202
N        0.16215033      -1.42053821      -0.58306772
C        1.36350585      -1.27819848       0.11638726
C        1.83533230       0.05125441       0.15071424
N        1.33730474       1.06983890       0.53074169
H       -0.77995833       1.44331864      -1.10934334
H       -2.19298886       0.54844088      -0.47988493
H       -1.53094763       1.84385519       0.46201538
H       -0.62372083      -0.20129370       1.45051905
H        0.26444448      -1.10823557      -1.54641915
H        1.73584165      -2.03963076       0.78800379
12
Frame=11 idx=003818 GeodesicLength=1.4218539531123158 rxn_smarts="[C:1]([C@@:2]1([H:10])[N:3]([H:11])[C@:4]1([C:5]#[N:6])[H:12])([H:7])([H:8])[H:9]>>[C:1]([C:2](=[N+:6]=[C-:5]/[C:4](=[N:3]\[H:11])[H:12])[H:10])([H:7])([H:8])[H:9]"
C       -1.25292734       1.04037533      -0.20561528
C       -0.32584013       0.05901764       0.44991271
N        0.17553224      -1.45732548      -0.60524926
C        1.34865039      -1.26994417       0.11600187
C        1.84907176       0.05746485       0.12402820
N        1.34858678       1.06468319       0.52684572
H       -0.77310712       1.44736031      -1.09585240
H       -2.19657434       0.55994012      -0.47748484
H       -1.53874186       1.84804914       0.46967473
H       -0.64744159      -0.20342855       1.45881629
H        0.28605220      -1.12919745      -1.56253425
H        1.72673901      -2.01699493       0.80145649
12
Frame=12 idx=003818 GeodesicLength=1.5519480994589465 rxn_smarts="[C:1]([C@@:2]1([H:10])[N:3]([H:11])[C@:4]1([C:5]#[N:6])[H:12])([H:7])([H:8])[H:9]>>[C:1]([C:2](=[N+:6]=[C-:5]/[C:4](=[N:3]\[H:11])[H:12])[H:10])([H:7])([H:8])[H:9]"
C       -1.25519456       1.04514656      -0.19635731
C       -0.33157650       0.06379998       0.46655312
N        0.19090944      -1.49532506      -0.62794698
C        1.33266052      -1.26110050       0.11527129
C        1.86263399       0.06303669       0.09897244
N        1.36023379       1.05964268       0.52201650
H       -0.76636801       1.45055418      -1.08243777
H       -2.20000863       0.57109008      -0.47454601
H       -1.54678617       1.85312802       0.47661096
H       -0.67233048      -0.20489205       1.46786365
H        0.30835445      -1.15043546      -1.57858550
H        1.71747217      -1.99464512       0.81258562
12
Frame=13 idx=003818 GeodesicLength=1.6820126401751385 rxn_smarts="[C:1]([C@@:2]1([H:10])[N:3]([H:11])[C@:4]1([C:5]#[N:6])[H:12])([H:7])([H:8])[H:9]>>[C:1]([C:2](=[N+:6]=[C-:5]/[C:4](=[N:3]\[H:11])[H:12])[H:10])([H:7])([H:8])[H:9]"
C       -1.25760650       1.05007088      -0.18678203
C       -0.33733122       0.06992742       0.48499381
N        0.20858853      -1.53456549      -0.65130232
C        1.31535172      -1.25171660       0.11413177
C        1.87612229       0.06785659       0.07553177
N        1.37224702       1.05474962       0.51615718
H       -0.75981409       1.45286465      -1.06908519
H       -2.20328790       0.58177909      -0.47097479
H       -1.55514685       1.85911109       0.48281033
H       -0.69833328      -0.20562389       1.47768385
H        0.33142094      -1.17185186      -1.59466240
H        1.70778933      -1.97260150       0.82149802
12
Frame=14 idx=003818 GeodesicLength=1.8119907018927064 rxn_smarts="[C:1]([C@@:2]1([H:10])[N:3]([H:11])[C@:4]1([C:5]#[N:6])[H:12])([H:7])([H:8])[H:9]>>[C:1]([C:2](=[N+:6]=[C-:5]/[C:4](=[N:3]\[H:11])[H:12])[H:10])([H:7])([H:8])[H:9]"
C       -1.26016080       1.05515433      -0.17682752
C       -0.34302148       0.07757759       0.50540392
N        0.22893270      -1.57510732      -0.67543216
C        1.29652950      -1.24178976       0.11244931
C        1.88960708       0.07183982       0.05361502
N        1.38461443       1.05002286       0.50923525
H       -0.75347738       1.45425422      -1.05577422
H       -2.20637745       0.59189149      -0.46668771
H       -1.56387799       1.86603787       0.48826322
H       -0.72542153      -0.20563298       1.48826531
H        0.35524818      -1.19340662      -1.61085580
H        1.69740474      -1.95084149       0.82834539
12
Frame=15 idx=003818 GeodesicLength=1.941796058934302 rxn_smarts="[C:1]([C@@:2]1([H:10])[N:3]([H:11])[C@:4]1([C:5]#[N:6])[H:12])([H:7])([H:8])[H:9]>>[C:1]([C:2](=[N+:6]=[C-:5]/[C:4](=[N:3]\[H:11])[H:12])[H:10])([H:7])([H:8])[H:9]"
C       -1.26285277       1.06039583      -0.16642766
C       -0.34858344       0.08693119       0.52796791
N        0.25238209      -1.61699654      -0.70044522
C        1.27595847      -1.23132517       0.11007083
C        1.90313398       0.07485985       0.03316253
N        1.39734136       1.04544702       0.50122008
H       -0.74737664       1.45466338      -1.04247710
H       -2.20924399       0.60130315      -0.46158789
H       -1.57301981       1.87394032       0.49294324
H       -0.75355900      -0.20489321       1.49960793
H        0.37982441      -1.21506557      -1.62726019
H        1.68599535      -1.92926023       0.83322555
12
Frame=16 idx=003818 GeodesicLength=2.0714086984632125 rxn_smarts="[C:1]([C@@:2]1([H:10])[N:3]([H:11])[C@:4]1([C:5]#[N:6])[H:12])([H:7])([H:8])[H:9]>>[C:1]([C:2](=[N+:6]=[C-:5]/[C:4](=[N:3]\[H:11])[H:12])[H:10])([H:7])([H:8])[H:9]"
C       -1.26566886       1.06580323      -0.15550382
C       -0.35395100       0.09820013       0.55288895
N        0.27950022      -1.66029782      -0.72642744
C        1.25336663      -1.22031667       0.10677205
C        1.91673245       0.07679250       0.01411264
N        1.41043805       1.04099722       0.49209261
H       -0.74151144       1.45402616      -1.02915032
H       -2.21184009       0.60989181      -0.45556278
H       -1.58261311       1.88285856       0.49682211
H       -0.78271178      -0.20340463       1.51168795
H        0.40508273      -1.23683829      -1.64398815
H        1.67317621      -1.90771220       0.83625618
