16
Frame=0 idx=009353 GeodesicLength=0.0 rxn_smarts="[C:1]([N:2]1[C@@:3]2([H:11])[C@@:4]3([H:12])[C:5]([H:13])([H:14])[C@:6]1([H:15])[C@@:7]23[H:16])([H:8])([H:9])[H:10]>>[C:1]([N:2]1[C:3]([H:11])([H:12])[C@@:7]2([H:16])[C:4][C:5]([H:13])([H:14])[C@@:6]12[H:15])([H:8])([H:9])[H:10]"
C        1.87440774       0.36686176       0.12310163
N        0.81135120      -0.52997436      -0.27432513
C       -0.07415654      -1.06282047       0.71333063
C       -1.67330279       0.07391409       0.75258184
C       -1.06908726       1.08036674      -0.23572547
C       -0.34661003      -0.03158094      -1.02926955
C       -1.25584505      -1.00850835      -0.22591680
H        1.53343596       1.19953101       0.75315435
H        2.34785356       0.77704112      -0.77019814
H        2.62876148      -0.19378292       0.67754605
H        0.16050319      -1.93309617       1.31965815
H       -0.43610014      -0.25652914       1.53985246
H       -0.54192601       1.96955755       0.11554497
H       -1.94162511       1.39255465      -0.81653562
H       -0.20888545       0.04169130      -2.10746238
H       -1.80877476      -1.88522584      -0.53533696
16
Frame=1 idx=009353 GeodesicLength=0.05457446834256902 rxn_smarts="[C:1]([N:2]1[C@@:3]2([H:11])[C@@:4]3([H:12])[C:5]([H:13])([H:14])[C@:6]1([H:15])[C@@:7]23[H:16])([H:8])([H:9])[H:10]>>[C:1]([N:2]1[C:3]([H:11])([H:12])[C@@:7]2([H:16])[C:4][C:5]([H:13])([H:14])[C@@:6]12[H:15])([H:8])([H:9])[H:10]"
C        1.87428361       0.36781086       0.12229030
N        0.81205317      -0.53024508      -0.27415608
C       -0.07504751      -1.06176248       0.71486139
C       -1.66497602       0.07406310       0.75131040
C       -1.06772159       1.08145232      -0.23781730
C       -0.34551101      -0.03211695      -1.02984326
C       -1.25564266      -1.00906164      -0.22742859
H        1.53330146       1.20052804       0.75234706
H        2.34668632       0.77837548      -0.77146182
H        2.62988194      -0.19192157       0.67600694
H        0.16162623      -1.93782750       1.31205482
H       -0.44799498      -0.25862397       1.56076348
H       -0.53993186       1.97107965       0.11140920
H       -1.94172739       1.39271045      -0.81711372
H       -0.20861011       0.04052671      -2.10815521
H       -1.81066960      -1.88498744      -0.53506760
16
Frame=2 idx=009353 GeodesicLength=0.10914201080104394 rxn_smarts="[C:1]([N:2]1[C@@:3]2([H:11])[C@@:4]3([H:12])[C:5]([H:13])([H:14])[C@:6]1([H:15])[C@@:7]23[H:16])([H:8])([H:9])[H:10]>>[C:1]([N:2]1[C:3]([H:11])([H:12])[C@@:7]2([H:16])[C:4][C:5]([H:13])([H:14])[C@@:6]12[H:15])([H:8])([H:9])[H:10]"
C        1.87418112       0.36875668       0.12144044
N        0.81281233      -0.53054185      -0.27408146
C       -0.07584957      -1.06069315       0.71636115
C       -1.65650893       0.07423631       0.75006921
C       -1.06629531       1.08253346      -0.23992444
C       -0.34438472      -0.03266256      -1.03046102
C       -1.25540080      -1.00959415      -0.22892872
H        1.53317114       1.20142678       0.75161824
H        2.34547902       0.77983540      -0.77273617
H        2.63108435      -0.19008234       0.67432408
H        0.16280111      -1.94231754       1.30457981
H       -0.46050523      -0.26098663       1.58176581
H       -0.53786179       1.97259099       0.10723773
H       -1.94180827       1.39285608      -0.81764013
H       -0.20834761       0.03935478      -2.10889529
H       -1.81256685      -1.88471225      -0.53472923
16
Frame=3 idx=009353 GeodesicLength=0.16370547957779902 rxn_smarts="[C:1]([N:2]1[C@@:3]2([H:11])[C@@:4]3([H:12])[C:5]([H:13])([H:14])[C@:6]1([H:15])[C@@:7]23[H:16])([H:8])([H:9])[H:10]>>[C:1]([N:2]1[C:3]([H:11])([H:12])[C@@:7]2([H:16])[C:4][C:5]([H:13])([H:14])[C@@:6]12[H:15])([H:8])([H:9])[H:10]"
C        1.87410401       0.36969985       0.12054793
N        0.81363154      -0.53086419      -0.27410271
C       -0.07655726      -1.05961264       0.71782997
C       -1.64789690       0.07443436       0.74886103
C       -1.06480741       1.08361076      -0.24204433
C       -0.34323012      -0.03321651      -1.03112120
C       -1.25511714      -1.01010424      -0.23041332
H        1.53304975       1.20222998       0.75096135
H        2.34423543       0.78141766      -0.77402648
H        2.63237139      -0.18826288       0.67249528
H        0.16403175      -1.94656886       1.29724110
H       -0.47366978      -0.26362650       1.60285004
H       -0.53571445       1.97409252       0.10303133
H       -1.94186774       1.39299167      -0.81811019
H       -0.20809950       0.03817703      -2.10968119
H       -1.81446358      -1.88439801      -0.53431860
16
Frame=4 idx=009353 GeodesicLength=0.21828431752965732 rxn_smarts="[C:1]([N:2]1[C@@:3]2([H:11])[C@@:4]3([H:12])[C:5]([H:13])([H:14])[C@:6]1([H:15])[C@@:7]23[H:16])([H:8])([H:9])[H:10]>>[C:1]([N:2]1[C:3]([H:11])([H:12])[C@@:7]2([H:16])[C:4][C:5]([H:13])([H:14])[C@@:6]12[H:15])([H:8])([H:9])[H:10]"
C        1.87405622       0.37064083       0.11960848
N        0.81451395      -0.53121166      -0.27422193
C       -0.07716437      -1.05852260       0.71926639
C       -1.63913528       0.07465700       0.74768839
C       -1.06325676       1.08468446      -0.24417388
C       -0.34204622      -0.03377759      -1.03182228
C       -1.25478907      -1.01059066      -0.23187873
H        1.53294216       1.20293968       0.75037037
H        2.34295899       0.78311969      -0.77533816
H        2.63374649      -0.18646109       0.67051741
H        0.16532271      -1.95058541       1.29004808
H       -0.48753027      -0.26654753       1.62400764
H       -0.53348836       1.97558474       0.09879137
H       -1.94190541       1.39311749      -0.81851866
H       -0.20786765       0.03699536      -2.11051166
H       -1.81635715      -1.88404270      -0.53383285
16
Frame=5 idx=009353 GeodesicLength=0.27287756074163994 rxn_smarts="[C:1]([N:2]1[C@@:3]2([H:11])[C@@:4]3([H:12])[C:5]([H:13])([H:14])[C@:6]1([H:15])[C@@:7]23[H:16])([H:8])([H:9])[H:10]>>[C:1]([N:2]1[C:3]([H:11])([H:12])[C@@:7]2([H:16])[C:4][C:5]([H:13])([H:14])[C@@:6]12[H:15])([H:8])([H:9])[H:10]"
C        1.87404190       0.37158038       0.11861788
N        0.81546221      -0.53158345      -0.27443912
C       -0.07766565      -1.05742259       0.72067183
C       -1.63022027       0.07490514       0.74655416
C       -1.06164238       1.08575525      -0.24630998
C       -0.34083197      -0.03434458      -1.03256173
C       -1.25441421      -1.01105170      -0.23332005
H        1.53285400       1.20355969       0.74983791
H        2.34165364       0.78493735      -0.77667706
H        2.63521229      -0.18467413       0.66838809
H        0.16667954      -1.95437244       1.28300532
H       -0.50212788      -0.26975785       1.64522665
H       -0.53118215       1.97706866       0.09451883
H       -1.94192090       1.39323367      -0.81886074
H       -0.20765344       0.03581073      -2.11138435
H       -1.81824472      -1.88364414      -0.53326764
16
Frame=6 idx=009353 GeodesicLength=0.32748461479362684 rxn_smarts="[C:1]([N:2]1[C@@:3]2([H:11])[C@@:4]3([H:12])[C:5]([H:13])([H:14])[C@:6]1([H:15])[C@@:7]23[H:16])([H:8])([H:9])[H:10]>>[C:1]([N:2]1[C:3]([H:11])([H:12])[C@@:7]2([H:16])[C:4][C:5]([H:13])([H:14])[C@@:6]12[H:15])([H:8])([H:9])[H:10]"
C        1.87406574       0.37251926       0.11757105
N        0.81647979      -0.53197898      -0.27475561
C       -0.07805468      -1.05631195       0.72204747
C       -1.62114632       0.07517925       0.74546295
C       -1.05996251       1.08682385      -0.24844931
C       -0.33958609      -0.03491620      -1.03333737
C       -1.25398945      -1.01148573      -0.23473264
H        1.53279155       1.20409296       0.74935610
H        2.34032325       0.78686734      -0.77804992
H        2.63677316      -0.18289908       0.66610391
H        0.16810591      -1.95793087       1.27612115
H       -0.51751143      -0.27326991       1.66649275
H       -0.52879354       1.97854524       0.09021494
H       -1.94191411       1.39334023      -0.81912993
H       -0.20745888       0.03462456      -2.11229724
H       -1.82012240      -1.88319997      -0.53261828
16
Frame=7 idx=009353 GeodesicLength=0.3821179858828634 rxn_smarts="[C:1]([N:2]1[C@@:3]2([H:11])[C@@:4]3([H:12])[C:5]([H:13])([H:14])[C@:6]1([H:15])[C@@:7]23[H:16])([H:8])([H:9])[H:10]>>[C:1]([N:2]1[C:3]([H:11])([H:12])[C@@:7]2([H:16])[C:4][C:5]([H:13])([H:14])[C@@:6]12[H:15])([H:8])([H:9])[H:10]"
C        1.87413289       0.37345808       0.11646231
N        0.81757033      -0.53239763      -0.27517291
C       -0.07832457      -1.05519094       0.72339319
C       -1.61190764       0.07547847       0.74441943
C       -1.05821577       1.08789036      -0.25058702
C       -0.33830719      -0.03549084      -1.03414681
C       -1.25351134      -1.01189178      -0.23611230
H        1.53276209       1.20454231       0.74891696
H        2.33897201       0.78890612      -0.77946398
H        2.63843383      -0.18113387       0.66366030
H        0.16960711      -1.96126473       1.26940726
H       -0.53373370      -0.27708835       1.68778879
H       -0.52632083       1.98001497       0.08588268
H       -1.94188483       1.39343711      -0.81931845
H       -0.20728597       0.03343942      -2.11324827
H       -1.82198644      -1.88270871      -0.53188119
16
Frame=8 idx=009353 GeodesicLength=0.4367784075172367 rxn_smarts="[C:1]([N:2]1[C@@:3]2([H:11])[C@@:4]3([H:12])[C:5]([H:13])([H:14])[C@:6]1([H:15])[C@@:7]23[H:16])([H:8])([H:9])[H:10]>>[C:1]([N:2]1[C:3]([H:11])([H:12])[C@@:7]2([H:16])[C:4][C:5]([H:13])([H:14])[C@@:6]12[H:15])([H:8])([H:9])[H:10]"
C        1.87424823       0.37439751       0.11528662
N        0.81873692      -0.53283866      -0.27569090
C       -0.07846902      -1.05405884       0.72471146
C       -1.60249997       0.07580314       0.74342712
C       -1.05640060       1.08895526      -0.25271893
C       -0.33699417      -0.03606744      -1.03498683
C       -1.25297683      -1.01226826      -0.23745306
H        1.53277273       1.20491131       0.74851193
H        2.33760329       0.79104967      -0.78092619
H        2.64019856      -0.17937503       0.66105269
H        0.17118862      -1.96437716       1.26286832
H       -0.55084439      -0.28122262       1.70909879
H       -0.52376192       1.98147847       0.08152450
H       -1.94183177       1.39352496      -0.81942042
H       -0.20713670       0.03225600      -2.11423435
H       -1.82383298      -1.88216832      -0.53105075
16
Frame=9 idx=009353 GeodesicLength=0.4914503111237495 rxn_smarts="[C:1]([N:2]1[C@@:3]2([H:11])[C@@:4]3([H:12])[C:5]([H:13])([H:14])[C@:6]1([H:15])[C@@:7]23[H:16])([H:8])([H:9])[H:10]>>[C:1]([N:2]1[C:3]([H:11])([H:12])[C@@:7]2([H:16])[C:4][C:5]([H:13])([H:14])[C@@:6]12[H:15])([H:8])([H:9])[H:10]"
C        1.87441680       0.37533875       0.11403793
N        0.81998278      -0.53330107      -0.27631036
C       -0.07848221      -1.05291314       0.72600411
C       -1.59291740       0.07615361       0.74249231
C       -1.05451543       1.09001965      -0.25484143
C       -0.33564563      -0.03664420      -1.03585518
C       -1.25238275      -1.01261344      -0.23875081
H        1.53283066       1.20520413       0.74813193
H        2.33622140       0.79329429      -0.78244520
H        2.64207305      -0.17762030       0.65827757
H        0.17285279      -1.96726790       1.25651794
H       -0.56889289      -0.28569116       1.73040239
H       -0.52111482       1.98293711       0.07714204
H       -1.94175560       1.39360359      -0.81942781
H       -0.20701297       0.03107618      -2.11525345
H       -1.82565778      -1.88157610      -0.53012199
16
Frame=10 idx=009353 GeodesicLength=0.5461482996330794 rxn_smarts="[C:1]([N:2]1[C@@:3]2([H:11])[C@@:4]3([H:12])[C:5]([H:13])([H:14])[C@:6]1([H:15])[C@@:7]23[H:16])([H:8])([H:9])[H:10]>>[C:1]([N:2]1[C:3]([H:11])([H:12])[C@@:7]2([H:16])[C:4][C:5]([H:13])([H:14])[C@@:6]12[H:15])([H:8])([H:9])[H:10]"
C        1.87464517       0.37628217       0.11270995
N        0.82131214      -0.53378424      -0.27703111
C       -0.07835571      -1.05175383       0.72727361
C       -1.58315459       0.07652919       0.74162044
C       -1.05255822       1.09108336      -0.25694689
C       -0.33426021      -0.03721989      -1.03674721
C       -1.25172468      -1.01292683      -0.23999827
H        1.53294582       1.20542379       0.74776840
H        2.33483012       0.79563621      -0.78402932
H        2.64406344      -0.17586720       0.65532754
H        0.17460874      -1.96994422       1.25036243
H       -0.58794628      -0.29049236       1.75167121
H       -0.51837673       1.98439115       0.07273955
H       -1.94165513       1.39367280      -0.81933043
H       -0.20691768       0.02990166      -2.11630129
H       -1.82745621      -1.88093176      -0.52908861
16
Frame=11 idx=009353 GeodesicLength=0.6008744786973899 rxn_smarts="[C:1]([N:2]1[C@@:3]2([H:11])[C@@:4]3([H:12])[C:5]([H:13])([H:14])[C@:6]1([H:15])[C@@:7]23[H:16])([H:8])([H:9])[H:10]>>[C:1]([N:2]1[C:3]([H:11])([H:12])[C@@:7]2([H:16])[C:4][C:5]([H:13])([H:14])[C@@:6]12[H:15])([H:8])([H:9])[H:10]"
C        1.87493931       0.37722848       0.11129646
N        0.82272874      -0.53428741      -0.27785297
C       -0.07808182      -1.05058011       0.72852285
C       -1.57320547       0.07692963       0.74081806
C       -1.05052704       1.09214658      -0.25902900
C       -0.33283669      -0.03779325      -1.03765870
C       -1.25099860      -1.01320744      -0.24118842
H        1.53312722       1.20557384       0.74741235
H        2.33343314       0.79807180      -0.78568745
H        2.64617622      -0.17411319       0.65219640
H        0.17646357      -1.97241012       1.24440876
H       -0.60806688      -0.29563243       1.77287726
H       -0.51554510       1.98584110       0.06832071
H       -1.94152937       1.39373262      -0.81911896
H       -0.20685367       0.02873353      -2.11737397
H       -1.82922357      -1.88023364      -0.52794340
16
Frame=12 idx=009353 GeodesicLength=0.6556261285969193 rxn_smarts="[C:1]([N:2]1[C@@:3]2([H:11])[C@@:4]3([H:12])[C:5]([H:13])([H:14])[C@:6]1([H:15])[C@@:7]23[H:16])([H:8])([H:9])[H:10]>>[C:1]([N:2]1[C:3]([H:11])([H:12])[C@@:7]2([H:16])[C:4][C:5]([H:13])([H:14])[C@@:6]12[H:15])([H:8])([H:9])[H:10]"
C        1.87530591       0.37817837       0.10979056
N        0.82423664      -0.53480981      -0.27877560
C       -0.07765236      -1.04939061       0.72975513
C       -1.56306446       0.07735373       0.74009207
C       -1.04842007       1.09320927      -0.26107987
C       -0.33137369      -0.03836276      -1.03858497
C       -1.25020005      -1.01345465      -0.24231432
H        1.53338516       1.20565802       0.74705451
H        2.33203458       0.80059702      -0.78742927
H        2.64841879      -0.17235647       0.64887705
H        0.17842452      -1.97466974       1.23866711
H       -0.62932026      -0.30111493       1.79398545
H       -0.51261747       1.98728731       0.06389047
H       -1.94137796       1.39378259      -0.81878177
H       -0.20682405       0.02757395      -2.11846701
H       -1.83095522      -1.87948131      -0.52667952
16
Frame=13 idx=009353 GeodesicLength=0.7103939712293822 rxn_smarts="[C:1]([N:2]1[C@@:3]2([H:11])[C@@:4]3([H:12])[C:5]([H:13])([H:14])[C@:6]1([H:15])[C@@:7]23[H:16])([H:8])([H:9])[H:10]>>[C:1]([N:2]1[C:3]([H:11])([H:12])[C@@:7]2([H:16])[C:4][C:5]([H:13])([H:14])[C@@:6]12[H:15])([H:8])([H:9])[H:10]"
C        1.87575176       0.37913251       0.10818484
N        0.82583983      -0.53535069      -0.27979835
C       -0.07705893      -1.04818338       0.73097484
C       -1.55272431       0.07780095       0.73945100
C       -1.04623517       1.09427166      -0.26309157
C       -0.32987001      -0.03892688      -1.03952090
C       -1.24932444      -1.01366746      -0.24336794
H        1.53373053       1.20568020       0.74668435
H        2.33063829       0.80320758      -0.78926518
H        2.65079867      -0.17059435       0.64536159
H        0.18049828      -1.97672432       1.23314822
H       -0.65177616      -0.30694978       1.81495659
H       -0.50959085       1.98873029       0.05945389
H       -1.94120018       1.39382257      -0.81830704
H       -0.20683226       0.02642452      -2.11957549
H       -1.83264505      -1.87867342      -0.52528884
16
Frame=14 idx=009353 GeodesicLength=0.7651730559756833 rxn_smarts="[C:1]([N:2]1[C@@:3]2([H:11])[C@@:4]3([H:12])[C:5]([H:13])([H:14])[C@:6]1([H:15])[C@@:7]23[H:16])([H:8])([H:9])[H:10]>>[C:1]([N:2]1[C:3]([H:11])([H:12])[C@@:7]2([H:16])[C:4][C:5]([H:13])([H:14])[C@@:6]12[H:15])([H:8])([H:9])[H:10]"
C        1.87628435       0.38009128       0.10647179
N        0.82754270      -0.53590947      -0.28092035
C       -0.07629241      -1.04695689       0.73218679
C       -1.54217771       0.07826991       0.73890429
C       -1.04397012       1.09533353      -0.26505453
C       -0.32832427      -0.03948405      -1.04046054
C       -1.24836666      -1.01384560      -0.24434092
H        1.53417511       1.20564431       0.74629181
H        2.32924817       0.80589923      -0.79120592
H        2.65332409      -0.16882476       0.64164118
H        0.18269341      -1.97857703       1.22786202
H       -0.67550897      -0.31313997       1.83574473
H       -0.50646213       1.99017017       0.05501654
H       -1.94099578       1.39385156      -0.81768035
H       -0.20688209       0.02528729      -2.12069386
H       -1.83428767      -1.87780951      -0.52376268
16
Frame=15 idx=009353 GeodesicLength=0.8199567715524784 rxn_smarts="[C:1]([N:2]1[C@@:3]2([H:11])[C@@:4]3([H:12])[C:5]([H:13])([H:14])[C@:6]1([H:15])[C@@:7]23[H:16])([H:8])([H:9])[H:10]>>[C:1]([N:2]1[C:3]([H:11])([H:12])[C@@:7]2([H:16])[C:4][C:5]([H:13])([H:14])[C@@:6]12[H:15])([H:8])([H:9])[H:10]"
C        1.87691144       0.38105510       0.10464329
N        0.82934968      -0.53648556      -0.28214053
C       -0.07534310      -1.04570956       0.73339630
C       -1.53141685       0.07875851       0.73846254
C       -1.04162290       1.09639431      -0.26695795
C       -0.32673524      -0.04003266      -1.04139735
C       -1.24732116      -1.01398889      -0.24522398
H        1.53473155       1.20555416       0.74586638
H        2.32786824       0.80866743      -0.79326321
H        2.65600438      -0.16704620       0.63770610
H        0.18501855      -1.98023059       1.22281955
H       -0.70059705      -0.31968644       1.85629671
H       -0.50322851       1.99160681       0.05058581
H       -1.94076455       1.39386844      -0.81688615
H       -0.20697790       0.02416465      -2.12181570
H       -1.83587659      -1.87688951      -0.52209181
16
Frame=16 idx=009353 GeodesicLength=0.8747334079377949 rxn_smarts="[C:1]([N:2]1[C@@:3]2([H:11])[C@@:4]3([H:12])[C:5]([H:13])([H:14])[C@:6]1([H:15])[C@@:7]23[H:16])([H:8])([H:9])[H:10]>>[C:1]([N:2]1[C:3]([H:11])([H:12])[C@@:7]2([H:16])[C:4][C:5]([H:13])([H:14])[C@@:6]12[H:15])([H:8])([H:9])[H:10]"
C        1.87764122       0.38202416       0.10269076
N        0.83126526      -0.53707854      -0.28345732
C       -0.07420089      -1.04443957       0.73460972
C       -1.52043346       0.07926433       0.73813738
C       -1.03919138       1.09745337      -0.26878974
C       -0.32510180      -0.04057097      -1.04232390
C       -1.24618214      -1.01409744      -0.24600722
H        1.53541343       1.20541384       0.74539677
H        2.32650240       0.81150713      -0.79544931
H        2.65884906      -0.16525690       0.63354584
H        0.18748289      -1.98168699       1.21803296
H       -0.72712167      -0.32658965       1.87655127
H       -0.49988692       1.99303984       0.04616994
H       -1.94050637       1.39387191      -0.81590696
H       -0.20712449       0.02305921      -2.12293383
H       -1.83740513      -1.87591372      -0.52026637
