18
Frame=0 idx=008122 GeodesicLength=0.0 rxn_smarts="[C:1]([N:2]([C:3](=[O:4])[C:5]([C:6]([H:13])([H:14])[H:15])([C:7]([H:16])([H:17])[H:18])[H:12])[H:11])([H:8])([H:9])[H:10]>>[C:1](/[N:2]=[C:3]1\[O:4][C@@:5]1([C:7]([H:16])([H:17])[H:18])[H:12])([H:8])([H:9])[H:10].[C:6]([H:11])([H:13])([H:14])[H:15]"
C        2.79001397      -0.01639975       0.26124871
N        1.38496573      -0.18106196      -0.03608224
C        0.62729557       0.86045542       0.05286632
O        0.74705722       2.06765473       0.33460299
C       -0.83075788       0.58767649      -0.26485192
C       -1.11403780      -1.39111609      -0.89620967
C       -1.79672815       0.64620494       0.86473235
H        3.39655143      -0.32674713      -0.59388989
H        3.07396903      -0.64868392       1.10719311
H        3.03767492       1.02129141       0.50556868
H       -0.14420077      -0.82239370      -0.53211058
H       -1.15750334       1.01978493      -1.20677756
H       -1.34110316      -2.05811334      -0.06835395
H       -0.59896888      -1.90569955      -1.70917592
H       -2.02388541      -0.95734177      -1.29577102
H       -2.82421543       0.44079536       0.56952641
H       -1.49147556      -0.01139357       1.67853331
H       -1.73465147       1.67508745       1.22895084
18
Frame=1 idx=008122 GeodesicLength=0.12105904355502338 rxn_smarts="[C:1]([N:2]([C:3](=[O:4])[C:5]([C:6]([H:13])([H:14])[H:15])([C:7]([H:16])([H:17])[H:18])[H:12])[H:11])([H:8])([H:9])[H:10]>>[C:1](/[N:2]=[C:3]1\[O:4][C@@:5]1([C:7]([H:16])([H:17])[H:18])[H:12])([H:8])([H:9])[H:10].[C:6]([H:11])([H:13])([H:14])[H:15]"
C        2.80109959      -0.01465099       0.25015353
N        1.39805655      -0.18274168      -0.05510516
C        0.63136985       0.84990763       0.06260983
O        0.73287939       2.04786542       0.38877251
C       -0.82457836       0.58939194      -0.25500755
C       -1.11855644      -1.39675406      -0.88919752
C       -1.80778777       0.66354541       0.85989573
H        3.41220952      -0.27557401      -0.61809225
H        3.09275024      -0.68282250       1.06517813
H        3.03442066       1.01338407       0.54381466
H       -0.10203459      -0.84074737      -0.55465827
H       -1.14065873       1.02334871      -1.20052953
H       -1.34749762      -2.05115331      -0.05136696
H       -0.62437566      -1.94100169      -1.69592454
H       -2.02668426      -0.96759190      -1.29887016
H       -2.82897958       0.44108973       0.55467938
H       -1.50783934       0.02397745       1.68975860
H       -1.77379344       1.70052717       1.20388958
18
Frame=2 idx=008122 GeodesicLength=0.24201124377143002 rxn_smarts="[C:1]([N:2]([C:3](=[O:4])[C:5]([C:6]([H:13])([H:14])[H:15])([C:7]([H:16])([H:17])[H:18])[H:12])[H:11])([H:8])([H:9])[H:10]>>[C:1](/[N:2]=[C:3]1\[O:4][C@@:5]1([C:7]([H:16])([H:17])[H:18])[H:12])([H:8])([H:9])[H:10].[C:6]([H:11])([H:13])([H:14])[H:15]"
C        2.81191761      -0.01293784       0.23893112
N        1.41090011      -0.18385781      -0.07463503
C        0.63505536       0.83869231       0.07289117
O        0.71895870       2.02551654       0.44328967
C       -0.81890514       0.59147987      -0.24465270
C       -1.12221805      -1.40211198      -0.88182044
C       -1.81933792       0.68156324       0.85491626
H        3.42699304      -0.22272428      -0.64025944
H        3.11179921      -0.71622344       1.02058886
H        3.03080865       1.00255991       0.58255167
H       -0.05921004      -0.85871202      -0.58045424
H       -1.12397609       1.02718922      -1.19380846
H       -1.35192756      -2.04358567      -0.03373897
H       -0.64958645      -1.97582924      -1.68118022
H       -2.02952451      -0.97886747      -1.30082495
H       -2.83386227       0.44191844       0.53992828
H       -1.52552536       0.06018906       1.70054506
H       -1.81235930       1.72574117       1.17773236
18
Frame=3 idx=008122 GeodesicLength=0.3628411284344594 rxn_smarts="[C:1]([N:2]([C:3](=[O:4])[C:5]([C:6]([H:13])([H:14])[H:15])([C:7]([H:16])([H:17])[H:18])[H:12])[H:11])([H:8])([H:9])[H:10]>>[C:1](/[N:2]=[C:3]1\[O:4][C@@:5]1([C:7]([H:16])([H:17])[H:18])[H:12])([H:8])([H:9])[H:10].[C:6]([H:11])([H:13])([H:14])[H:15]"
C        2.82239449      -0.01127887       0.22755751
N        1.42340769      -0.18436839      -0.09460716
C        0.63828810       0.82674159       0.08372211
O        0.70526342       2.00048620       0.49828949
C       -0.81380419       0.59400548      -0.23378033
C       -1.12491080      -1.40716855      -0.87409459
C       -1.83140442       0.70023450       0.84980425
H        3.44071812      -0.16890726      -0.66021402
H        3.13095315      -0.74836628       0.97377242
H        3.02694703       0.98887869       0.62101437
H       -0.01575173      -0.87614568      -0.60954181
H       -1.10749212       1.03138500      -1.18658891
H       -1.35443958      -2.03544090      -0.01558625
H       -0.67420319      -2.01000510      -1.66486415
H       -2.03229750      -0.99117740      -1.30164628
H       -2.83888869       0.44332335       0.52526151
H       -1.54458596       0.09709816       1.71082309
H       -1.85019382       1.75070547       1.15067873
18
Frame=4 idx=008122 GeodesicLength=0.4835590815964601 rxn_smarts="[C:1]([N:2]([C:3](=[O:4])[C:5]([C:6]([H:13])([H:14])[H:15])([C:7]([H:16])([H:17])[H:18])[H:12])[H:11])([H:8])([H:9])[H:10]>>[C:1](/[N:2]=[C:3]1\[O:4][C@@:5]1([C:7]([H:16])([H:17])[H:18])[H:12])([H:8])([H:9])[H:10].[C:6]([H:11])([H:13])([H:14])[H:15]"
C        2.83242353      -0.00966115       0.21595429
N        1.43554576      -0.18417623      -0.11526247
C        0.64100603       0.81395238       0.09503447
O        0.69176622       1.97260556       0.55368629
C       -0.80931632       0.59701867      -0.22246001
C       -1.12657626      -1.41198339      -0.86589722
C       -1.84396579       0.71963569       0.84449122
H        3.45334940      -0.11363905      -0.67783019
H        3.15007043      -0.77943085       0.92423866
H        3.02273085       0.97197885       0.65959885
H        0.02827855      -0.89304857      -0.64169658
H       -1.09121789       1.03591028      -1.17895014
H       -1.35519925      -2.02673306       0.00316309
H       -0.69783756      -2.04353786      -1.64667185
H       -2.03488720      -1.00460893      -1.30128209
H       -2.84403810       0.44544283       0.51061127
H       -1.56503901       0.13473030       1.72050046
H       -1.88709339       1.77554451       1.12277197
18
Frame=5 idx=008122 GeodesicLength=0.6042299659599709 rxn_smarts="[C:1]([N:2]([C:3](=[O:4])[C:5]([C:6]([H:13])([H:14])[H:15])([C:7]([H:16])([H:17])[H:18])[H:12])[H:11])([H:8])([H:9])[H:10]>>[C:1](/[N:2]=[C:3]1\[O:4][C@@:5]1([C:7]([H:16])([H:17])[H:18])[H:12])([H:8])([H:9])[H:10].[C:6]([H:11])([H:13])([H:14])[H:15]"
C        2.84201939      -0.00810056       0.20407211
N        1.44718671      -0.18331314      -0.13649319
C        0.64315240       0.80020102       0.10689144
O        0.67828066       1.94186633       0.60949602
C       -0.80549051       0.60060450      -0.21063530
C       -1.12711658      -1.41647220      -0.85736083
C       -1.85704222       0.73966176       0.83905930
H        3.46503849      -0.05832142      -0.69290184
H        3.16904800      -0.80845375       0.87296977
H        3.01831287       0.95238729       0.69674572
H        0.07288602      -0.90955867      -0.67647654
H       -1.07517170       1.04094417      -1.17079491
H       -1.35454185      -2.01752086       0.02216185
H       -0.72022153      -2.07615456      -1.62672409
H       -2.03711617      -1.01890898      -1.29998865
H       -2.84936575       0.44832009       0.49598099
H       -1.58694531       0.17274187       1.72949310
H       -1.92291293       1.80007709       1.09450504
18
Frame=6 idx=008122 GeodesicLength=0.7248551314097185 rxn_smarts="[C:1]([N:2]([C:3](=[O:4])[C:5]([C:6]([H:13])([H:14])[H:15])([C:7]([H:16])([H:17])[H:18])[H:12])[H:11])([H:8])([H:9])[H:10]>>[C:1](/[N:2]=[C:3]1\[O:4][C@@:5]1([C:7]([H:16])([H:17])[H:18])[H:12])([H:8])([H:9])[H:10].[C:6]([H:11])([H:13])([H:14])[H:15]"
C        2.85106205      -0.00650526       0.19179723
N        1.45833026      -0.18167240      -0.15839472
C        0.64468494       0.78534802       0.11922607
O        0.66485534       1.90789469       0.66571408
C       -0.80230989       0.60476172      -0.19842372
C       -1.12659793      -1.42076712      -0.84828344
C       -1.87058732       0.76046862       0.83333830
H        3.47540728      -0.00159606      -0.70558979
H        3.18795569      -0.83601329       0.81874601
H        3.01352337       0.92947114       0.73357075
H        0.11804414      -0.92588488      -0.71318394
H       -1.05924030       1.04635576      -1.16228568
H       -1.35287463      -2.00779248       0.04158901
H       -0.74082359      -2.10795855      -1.60458886
H       -2.03882192      -1.03422474      -1.29778439
H       -2.85481195       0.45218394       0.48117098
H       -1.61033157       0.21131072       1.73769533
H       -1.95746396       1.82462015       1.06568677
18
Frame=7 idx=008122 GeodesicLength=0.845422605026332 rxn_smarts="[C:1]([N:2]([C:3](=[O:4])[C:5]([C:6]([H:13])([H:14])[H:15])([C:7]([H:16])([H:17])[H:18])[H:12])[H:11])([H:8])([H:9])[H:10]>>[C:1](/[N:2]=[C:3]1\[O:4][C@@:5]1([C:7]([H:16])([H:17])[H:18])[H:12])([H:8])([H:9])[H:10].[C:6]([H:11])([H:13])([H:14])[H:15]"
C        2.85952096      -0.00482031       0.17913323
N        1.46887918      -0.17919023      -0.18081240
C        0.64555704       0.76937712       0.13189529
O        0.65140707       1.87052518       0.72233876
C       -0.79980893       0.60953132      -0.18586957
C       -1.12509331      -1.42483166      -0.83878065
C       -1.88452322       0.78198067       0.82738215
H        3.48437298       0.05564188      -0.71585409
H        3.20669859      -0.86150737       0.76223208
H        3.00846113       0.90365132       0.76916682
H        0.16381585      -0.94226741      -0.75117063
H       -1.04349058       1.05221424      -1.15342325
H       -1.35060370      -1.99759057       0.06118155
H       -0.75931232      -2.13870590      -1.58044201
H       -2.03990327      -1.05041166      -1.29491498
H       -2.86034580       0.45705263       0.46624110
H       -1.63505672       0.25019956       1.74506352
H       -1.99057494       1.84915119       1.03663309
18
Frame=8 idx=008122 GeodesicLength=0.9659037132109648 rxn_smarts="[C:1]([N:2]([C:3](=[O:4])[C:5]([C:6]([H:13])([H:14])[H:15])([C:7]([H:16])([H:17])[H:18])[H:12])[H:11])([H:8])([H:9])[H:10]>>[C:1](/[N:2]=[C:3]1\[O:4][C@@:5]1([C:7]([H:16])([H:17])[H:18])[H:12])([H:8])([H:9])[H:10].[C:6]([H:11])([H:13])([H:14])[H:15]"
C        2.86731353      -0.00288534       0.16597188
N        1.47879251      -0.17600245      -0.20348733
C        0.64576105       0.75207293       0.14491765
O        0.63785163       1.82935673       0.77934426
C       -0.79790193       0.61488126      -0.17303888
C       -1.12274888      -1.42874247      -0.82879951
C       -1.89874716       0.80429849       0.82107236
H        3.49154155       0.11418299      -0.72369996
H        3.22553072      -0.88475604       0.70267643
H        3.00307114       0.87465534       0.80377341
H        0.21031699      -0.95930025      -0.78935009
H       -1.02771665       1.05845680      -1.14428811
H       -1.34834020      -1.98692626       0.08088560
H       -0.77548387      -2.16842650      -1.55418451
H       -2.04021882      -1.06735425      -1.29160230
H       -2.86588550       0.46319182       0.45099036
H       -1.66113678       0.28943032       1.75145961
H       -2.02199933       1.87386687       1.00735913
18
Frame=9 idx=008122 GeodesicLength=1.086819478155657 rxn_smarts="[C:1]([N:2]([C:3](=[O:4])[C:5]([C:6]([H:13])([H:14])[H:15])([C:7]([H:16])([H:17])[H:18])[H:12])[H:11])([H:8])([H:9])[H:10]>>[C:1](/[N:2]=[C:3]1\[O:4][C@@:5]1([C:7]([H:16])([H:17])[H:18])[H:12])([H:8])([H:9])[H:10].[C:6]([H:11])([H:13])([H:14])[H:15]"
C        2.87445009      -0.00064081       0.15261732
N        1.48798842      -0.17196148      -0.22684349
C        0.64527541       0.73363137       0.15753239
O        0.62390985       1.78460675       0.83571649
C       -0.79663029       0.62084774      -0.16009461
C       -1.11980887      -1.43245311      -0.81860466
C       -1.91292278       0.82723003       0.81470695
H        3.49770307       0.17307994      -0.72840624
H        3.24396554      -0.90514913       0.64147911
H        2.99720087       0.84302062       0.83681123
H        0.25789659      -0.97742936      -0.82760129
H       -1.01236735       1.06517184      -1.13491311
H       -1.34631229      -1.97588797       0.10039092
H       -0.78977991      -2.19692497      -1.52630193
H       -2.04005269      -1.08479600      -1.28800318
H       -2.87125033       0.47043211       0.43601582
H       -1.68781280       0.32868078       1.75699066
H       -2.05145253       1.89854164       0.97850763
18
Frame=10 idx=008122 GeodesicLength=1.207711348485531 rxn_smarts="[C:1]([N:2]([C:3](=[O:4])[C:5]([C:6]([H:13])([H:14])[H:15])([C:7]([H:16])([H:17])[H:18])[H:12])[H:11])([H:8])([H:9])[H:10]>>[C:1](/[N:2]=[C:3]1\[O:4][C@@:5]1([C:7]([H:16])([H:17])[H:18])[H:12])([H:8])([H:9])[H:10].[C:6]([H:11])([H:13])([H:14])[H:15]"
C        2.88082727       0.00206847       0.13889669
N        1.49640671      -0.16741059      -0.25012210
C        0.64409852       0.71387853       0.16995258
O        0.60964644       1.73579180       0.89177074
C       -0.79587644       0.62737811      -0.14707066
C       -1.11643132      -1.43603267      -0.80814571
C       -1.92702356       0.85093161       0.80810310
H        3.50180482       0.23321158      -0.73049623
H        3.26259731      -0.92263649       0.57768232
H        2.99092988       0.80855987       0.86857488
H        0.30670361      -0.99731173      -0.86465550
H       -0.99708520       1.07226856      -1.12538182
H       -1.34505833      -1.96445347       0.11964799
H       -0.80184343      -2.22424009      -1.49676865
H       -2.03919923      -1.10266352      -1.28438898
H       -2.87640017       0.47905543       0.42100693
H       -1.71523430       0.36811143       1.76153535
H       -2.07886258       1.92349318       0.94985908
18
Frame=11 idx=008122 GeodesicLength=1.3280215981915506 rxn_smarts="[C:1]([N:2]([C:3](=[O:4])[C:5]([C:6]([H:13])([H:14])[H:15])([C:7]([H:16])([H:17])[H:18])[H:12])[H:11])([H:8])([H:9])[H:10]>>[C:1](/[N:2]=[C:3]1\[O:4][C@@:5]1([C:7]([H:16])([H:17])[H:18])[H:12])([H:8])([H:9])[H:10].[C:6]([H:11])([H:13])([H:14])[H:15]"
C        2.88652748       0.00528205       0.12478946
N        1.50387456      -0.16272042      -0.27225335
C        0.64221568       0.69282963       0.18230276
O        0.59494504       1.68288448       0.94787695
C       -0.79564018       0.63443828      -0.13385555
C       -1.11280370      -1.43926187      -0.79794255
C       -1.94101589       0.87509463       0.80148769
H        3.50361551       0.29133057      -0.73091968
H        3.28152740      -0.93573411       0.51415767
H        2.98483196       0.77357621       0.89608976
H        0.35698458      -1.01917832      -0.89949815
H       -0.98185859       1.08000289      -1.11545754
H       -1.34505924      -1.95275907       0.13785898
H       -0.81159277      -2.24977382      -1.46653431
H       -2.03765395      -1.12047403      -1.28142162
H       -2.88138487       0.48888860       0.40605180
H       -1.74326620       0.40707576       1.76522843
H       -2.10424682       1.94849854       0.92203925
18
Frame=12 idx=008122 GeodesicLength=1.447929303215615 rxn_smarts="[C:1]([N:2]([C:3](=[O:4])[C:5]([C:6]([H:13])([H:14])[H:15])([C:7]([H:16])([H:17])[H:18])[H:12])[H:11])([H:8])([H:9])[H:10]>>[C:1](/[N:2]=[C:3]1\[O:4][C@@:5]1([C:7]([H:16])([H:17])[H:18])[H:12])([H:8])([H:9])[H:10].[C:6]([H:11])([H:13])([H:14])[H:15]"
C        2.89149317       0.00917687       0.11041945
N        1.51037171      -0.15823997      -0.29311271
C        0.63963818       0.67047179       0.19424996
O        0.57967438       1.62557443       1.00355259
C       -0.79583723       0.64197711      -0.12057121
C       -1.10921680      -1.44217772      -0.78810384
C       -1.95464169       0.89976377       0.79493774
H        3.50300554       0.34798500      -0.72973632
H        3.30087430      -0.94434269       0.45101124
H        2.97874406       0.73838849       0.91972312
H        0.40916240      -1.04375378      -0.93153635
H       -0.96670521       1.08832654      -1.10522679
H       -1.34663814      -1.94084475       0.15492156
H       -0.81940235      -2.27358999      -1.43592228
H       -2.03558899      -1.13806843      -1.27926376
H       -2.88605110       0.50004926       0.39134311
H       -1.77150459       0.44560591       1.76812580
H       -2.12737762       1.97369816       0.89518870
18
Frame=13 idx=008122 GeodesicLength=1.5678999869574204 rxn_smarts="[C:1]([N:2]([C:3](=[O:4])[C:5]([C:6]([H:13])([H:14])[H:15])([C:7]([H:16])([H:17])[H:18])[H:12])[H:11])([H:8])([H:9])[H:10]>>[C:1](/[N:2]=[C:3]1\[O:4][C@@:5]1([C:7]([H:16])([H:17])[H:18])[H:12])([H:8])([H:9])[H:10].[C:6]([H:11])([H:13])([H:14])[H:15]"
C        2.89568400       0.01406964       0.09587210
N        1.51589059      -0.15457506      -0.31282560
C        0.63639875       0.64673727       0.20539763
O        0.56356242       1.56357915       1.05799753
C       -0.79631222       0.64991832      -0.10734388
C       -1.10599477      -1.44483578      -0.77872660
C       -1.96757493       0.92504056       0.78852426
H        3.49995936       0.40461336      -0.72677765
H        3.32080460      -0.94844520       0.38765338
H        2.97245697       0.70297041       0.94059666
H        0.46377648      -1.07220238      -0.95993907
H       -0.95157369       1.09714204      -1.09477717
H       -1.35020529      -1.92868449       0.17074890
H       -0.82594883      -2.29590444      -1.40503994
H       -2.03325925      -1.15521114      -1.27811858
H       -2.89019559       0.51272571       0.37706946
H       -1.79951406       0.48385565       1.77027804
H       -2.14795452       1.99920637       0.86941053
18
Frame=14 idx=008122 GeodesicLength=1.6876641339620648 rxn_smarts="[C:1]([N:2]([C:3](=[O:4])[C:5]([C:6]([H:13])([H:14])[H:15])([C:7]([H:16])([H:17])[H:18])[H:12])[H:11])([H:8])([H:9])[H:10]>>[C:1](/[N:2]=[C:3]1\[O:4][C@@:5]1([C:7]([H:16])([H:17])[H:18])[H:12])([H:8])([H:9])[H:10].[C:6]([H:11])([H:13])([H:14])[H:15]"
C        2.89909183       0.02002192       0.08121377
N        1.52037628      -0.15219385      -0.33073156
C        0.63248443       0.62169179       0.21573431
O        0.54660251       1.49669694       1.11132722
C       -0.79703737       0.65819237      -0.09418157
C       -1.10338948      -1.44712748      -0.77014608
C       -1.97970121       0.95080691       0.78241009
H        3.49397262       0.45974571      -0.72302676
H        3.34151979      -0.94751005       0.32589743
H        2.96622986       0.66892873       0.95749976
H        0.52121563      -1.10476980      -0.98410031
H       -0.93645184       1.10652490      -1.08405401
H       -1.35597480      -1.91639078       0.18492666
H       -0.83134184      -2.31641113      -1.37471539
H       -2.03082299      -1.17168684      -1.27831290
H       -2.89379663       0.52684116       0.36340846
H       -1.82700703       0.52159500       1.77186697
H       -2.16596974       2.02504452       0.84498390
18
Frame=15 idx=008122 GeodesicLength=1.8075355997298947 rxn_smarts="[C:1]([N:2]([C:3](=[O:4])[C:5]([C:6]([H:13])([H:14])[H:15])([C:7]([H:16])([H:17])[H:18])[H:12])[H:11])([H:8])([H:9])[H:10]>>[C:1](/[N:2]=[C:3]1\[O:4][C@@:5]1([C:7]([H:16])([H:17])[H:18])[H:12])([H:8])([H:9])[H:10].[C:6]([H:11])([H:13])([H:14])[H:15]"
C        2.90172478       0.02732834       0.06651734
N        1.52386015      -0.15189988      -0.34653386
C        0.62791884       0.59516447       0.22522897
O        0.52858767       1.42450818       1.16324290
C       -0.79785770       0.66666675      -0.08110756
C       -1.10173021      -1.44905600      -0.76256727
C       -1.99078491       0.97711644       0.77667122
H        3.48457360       0.51390222      -0.71908697
H        3.36336144      -0.94134453       0.26599881
H        2.96010500       0.63712818       0.97074459
H        0.58203420      -1.14230259      -1.00327740
H       -0.92112783       1.11641092      -1.07304506
H       -1.36432956      -1.90400337       0.19722659
H       -0.83617729      -2.33517819      -1.34533611
H       -2.02853660      -1.18724666      -1.28013771
H       -2.89673255       0.54256542       0.35044163
H       -1.85370068       0.55888162       1.77301295
H       -2.18118834       2.05135866       0.82200694
18
Frame=16 idx=008122 GeodesicLength=1.9278527267307144 rxn_smarts="[C:1]([N:2]([C:3](=[O:4])[C:5]([C:6]([H:13])([H:14])[H:15])([C:7]([H:16])([H:17])[H:18])[H:12])[H:11])([H:8])([H:9])[H:10]>>[C:1](/[N:2]=[C:3]1\[O:4][C@@:5]1([C:7]([H:16])([H:17])[H:18])[H:12])([H:8])([H:9])[H:10].[C:6]([H:11])([H:13])([H:14])[H:15]"
C        2.90358190       0.03626123       0.05181759
N        1.52635410      -0.15450326      -0.36003576
C        0.62270918       0.56699770       0.23380906
O        0.50929605       1.34663206       1.21341695
C       -0.79864692       0.67519900      -0.06811414
C       -1.10139633      -1.45056928      -0.75634595
C       -2.00056999       1.00393586       0.77151244
H        3.47158770       0.56679990      -0.71579112
H        3.38648996      -0.92957476       0.20921622
H        2.95419232       0.60912017       0.98006786
H        0.64679934      -1.18554391      -1.01673106
H       -0.90547220       1.12680294      -1.06166719
H       -1.37560582      -1.89161537       0.20724420
H       -0.84108234      -2.35214754      -1.31752637
H       -2.02674375      -1.20158718      -1.28396602
H       -2.89890017       0.55997182       0.33838173
H       -1.87920592       0.59562426       1.77394569
H       -2.19338711       2.07819636       0.80076587
