19
Frame=0 idx=010809 GeodesicLength=0.0 rxn_smarts="[C:1]([C:2]([C:3]([C:4]([C:5]#[C:6][C:7]([H:17])([H:18])[H:19])([H:15])[H:16])([H:13])[H:14])([H:11])[H:12])([H:8])([H:9])[H:10]>>[C:1]([C:2]([C:3]([C:4]([C-:5]=[C:6]([C+:7]([H:18])[H:19])[H:17])([H:15])[H:16])([H:13])[H:14])([H:11])[H:12])([H:8])([H:9])[H:10]"
C       -2.79417117       0.84347665       0.37241994
C       -1.90114385       0.09024502      -0.60453878
C       -0.46085256      -0.03110117      -0.12247168
C        0.43580944      -0.80146498      -1.09316522
C        1.86076544      -0.92390019      -0.74069963
C        2.59056146      -0.53763345       0.23879191
C        3.59930396       0.04326122       0.98951825
H       -2.82802988       0.34017479       1.34182530
H       -2.42570663       1.85848737       0.54037250
H       -3.81787865       0.91905295       0.00158096
H       -2.30943564      -0.91121382      -0.77765665
H       -1.91330050       0.59494069      -1.57649658
H       -0.44612111      -0.53402155       0.85194280
H       -0.03946964       0.96734912       0.03718857
H        0.02944074      -1.80088614      -1.28260177
H        0.41512489      -0.31597786      -2.07775290
H        2.06587452      -0.39897691       1.26742265
H        4.06300802       0.97662538       0.68826407
H        3.87622115      -0.37843714       1.94605632
19
Frame=1 idx=010809 GeodesicLength=0.05912684283532903 rxn_smarts="[C:1]([C:2]([C:3]([C:4]([C:5]#[C:6][C:7]([H:17])([H:18])[H:19])([H:15])[H:16])([H:13])[H:14])([H:11])[H:12])([H:8])([H:9])[H:10]>>[C:1]([C:2]([C:3]([C:4]([C-:5]=[C:6]([C+:7]([H:18])[H:19])[H:17])([H:15])[H:16])([H:13])[H:14])([H:11])[H:12])([H:8])([H:9])[H:10]"
C       -2.80155374       0.84064934       0.36766032
C       -1.90217506       0.09403303      -0.60854460
C       -0.46567306      -0.03358352      -0.11652007
C        0.43596761      -0.79748342      -1.08759154
C        1.85736799      -0.93090696      -0.72724590
C        2.59018452      -0.56542832       0.25884117
C        3.59655161       0.04741014       0.98738211
H       -2.84356143       0.32950431       1.33263099
H       -2.43284942       1.85368570       0.54663410
H       -3.82231901       0.92066611      -0.01031000
H       -2.31081243      -0.90528666      -0.79293983
H       -1.90625218       0.60656600      -1.57647111
H       -0.45962414      -0.54451224       0.85369210
H       -0.04447319       0.96310476       0.05390482
H        0.02699689      -1.79314713      -1.29111020
H        0.42578970      -0.30152333      -2.06723379
H        2.07887042      -0.37869601       1.30194910
H        4.06818487       0.95971497       0.63810863
H        3.90938006      -0.36476676       1.93716372
19
Frame=2 idx=010809 GeodesicLength=0.11809346119337238 rxn_smarts="[C:1]([C:2]([C:3]([C:4]([C:5]#[C:6][C:7]([H:17])([H:18])[H:19])([H:15])[H:16])([H:13])[H:14])([H:11])[H:12])([H:8])([H:9])[H:10]>>[C:1]([C:2]([C:3]([C:4]([C-:5]=[C:6]([C+:7]([H:18])[H:19])[H:17])([H:15])[H:16])([H:13])[H:14])([H:11])[H:12])([H:8])([H:9])[H:10]"
C       -2.81054291       0.83691509       0.36225080
C       -1.90405739       0.09704605      -0.61251931
C       -0.47126368      -0.03491022      -0.11057600
C        0.43621271      -0.79210383      -1.08136279
C        1.85411100      -0.93479500      -0.71311500
C        2.58862251      -0.58886338       0.27976440
C        3.59704556       0.04858825       0.98487708
H       -2.86004383       0.31876238       1.32312007
H       -2.44278508       1.84845763       0.55133042
H       -3.82842481       0.91997805      -0.02280386
H       -2.31186058      -0.90066102      -0.80729350
H       -1.90069439       0.61654285      -1.57673969
H       -0.47316901      -0.55296573       0.85574558
H       -0.05140394       0.96053761       0.06978214
H        0.02582325      -1.78443019      -1.29827681
H        0.43603849      -0.28643350      -2.05620352
H        2.09316372      -0.35139809       1.33594362
H        4.07998714       0.93580009       0.58953415
H        3.94324126      -0.35606704       1.92654222
19
Frame=3 idx=010809 GeodesicLength=0.17718416453197852 rxn_smarts="[C:1]([C:2]([C:3]([C:4]([C:5]#[C:6][C:7]([H:17])([H:18])[H:19])([H:15])[H:16])([H:13])[H:14])([H:11])[H:12])([H:8])([H:9])[H:10]>>[C:1]([C:2]([C:3]([C:4]([C-:5]=[C:6]([C+:7]([H:18])[H:19])[H:17])([H:15])[H:16])([H:13])[H:14])([H:11])[H:12])([H:8])([H:9])[H:10]"
C       -2.82078885       0.83237118       0.35636060
C       -1.90661962       0.09940828      -0.61644801
C       -0.47746275      -0.03529849      -0.10465521
C        0.43653735      -0.78554090      -1.07463200
C        1.85099600      -0.93608991      -0.69846085
C        2.58595327      -0.60848778       0.30144025
C        3.60030481       0.04720729       0.98203374
H       -2.87719086       0.30784760       1.31338587
H       -2.45496254       1.84281660       0.55481017
H       -3.83584188       0.91734400      -0.03570872
H       -2.31260253      -0.89712486      -0.82087064
H       -1.89638734       0.62519838      -1.57721403
H       -0.48665667      -0.55978395       0.85802871
H       -0.05990306       0.95933920       0.08496250
H        0.02572259      -1.77487364      -1.30440042
H        0.44592070      -0.27073438      -2.04475540
H        2.10904472      -0.31757763       1.36901000
H        4.09684310       0.90555141       0.54235436
H        3.97709357      -0.35157240       1.91475908
19
Frame=4 idx=010809 GeodesicLength=0.2365286667078335 rxn_smarts="[C:1]([C:2]([C:3]([C:4]([C:5]#[C:6][C:7]([H:17])([H:18])[H:19])([H:15])[H:16])([H:13])[H:14])([H:11])[H:12])([H:8])([H:9])[H:10]>>[C:1]([C:2]([C:3]([C:4]([C-:5]=[C:6]([C+:7]([H:18])[H:19])[H:17])([H:15])[H:16])([H:13])[H:14])([H:11])[H:12])([H:8])([H:9])[H:10]"
C       -2.83193179       0.82716913       0.35013234
C       -1.90968686       0.10123249      -0.62031065
C       -0.48410535      -0.03495908      -0.09878223
C        0.43692597      -0.77804960      -1.06753951
C        1.84801547      -0.93530627      -0.68345837
C        2.58225782      -0.62474588       0.32367266
C        3.60584200       0.04363125       0.97882814
H       -2.89470247       0.29678837       1.30352665
H       -2.46881606       1.83683352       0.55732295
H       -3.84420853       0.91314841      -0.04884751
H       -2.31306486      -0.89447795      -0.83375802
H       -1.89309007       0.63277959      -1.57782558
H       -0.49998617      -0.56531327       0.86047214
H       -0.06959878       0.95920100       0.09954033
H        0.02650244      -1.76466673      -1.30968573
H        0.45545118      -0.25456923      -2.03299767
H        2.12682592      -0.27805613       1.40076141
H        4.11692108       0.87008012       0.49677021
H        4.01044906      -0.35071974       1.90217843
19
Frame=5 idx=010809 GeodesicLength=0.2960266277919052 rxn_smarts="[C:1]([C:2]([C:3]([C:4]([C:5]#[C:6][C:7]([H:17])([H:18])[H:19])([H:15])[H:16])([H:13])[H:14])([H:11])[H:12])([H:8])([H:9])[H:10]>>[C:1]([C:2]([C:3]([C:4]([C-:5]=[C:6]([C+:7]([H:18])[H:19])[H:17])([H:15])[H:16])([H:13])[H:14])([H:11])[H:12])([H:8])([H:9])[H:10]"
C       -2.84364539       0.82149314       0.34367166
C       -1.91309126       0.10263771      -0.62409955
C       -0.49104064      -0.03410990      -0.09296030
C        0.43736800      -0.76990688      -1.06018555
C        1.84515783      -0.93296725      -0.66823193
C        2.57760856      -0.63802128       0.34631887
C        3.61313710       0.03832785       0.97523265
H       -2.91234112       0.28566534       1.29360599
H       -2.48381085       1.83060634       0.55907953
H       -3.85319163       0.90781347      -0.06210595
H       -2.31328270      -0.89250617      -0.84605750
H       -1.89054172       0.63952265      -1.57852211
H       -0.51310082      -0.56989891       0.86302601
H       -0.08013195       0.95979920       0.11364538
H        0.02799088      -1.75402581      -1.31427838
H        0.46465702      -0.23813687      -2.02101268
H        2.14676935      -0.23406341       1.43099421
H        4.13855349       0.83073590       0.45301038
H        4.04293583      -0.35296513       1.88886928
19
Frame=6 idx=010809 GeodesicLength=0.35569383755509754 rxn_smarts="[C:1]([C:2]([C:3]([C:4]([C:5]#[C:6][C:7]([H:17])([H:18])[H:19])([H:15])[H:16])([H:13])[H:14])([H:11])[H:12])([H:8])([H:9])[H:10]>>[C:1]([C:2]([C:3]([C:4]([C-:5]=[C:6]([C+:7]([H:18])[H:19])[H:17])([H:15])[H:16])([H:13])[H:14])([H:11])[H:12])([H:8])([H:9])[H:10]"
C       -2.85574969       0.81541564       0.33704602
C       -1.91673516       0.10371030      -0.62781829
C       -0.49820078      -0.03289728      -0.08717802
C        0.43784435      -0.76127193      -1.05261668
C        1.84239348      -0.92941508      -0.65281197
C        2.57210545      -0.64843223       0.36922852
C        3.62178343       0.03158147       0.97131372
H       -2.93001371       0.27443196       1.28363244
H       -2.49964112       1.82414225       0.56027931
H       -3.86259156       0.90158364      -0.07542706
H       -2.31328418      -0.89105337      -0.85789940
H       -1.88856060       0.64563894      -1.57924716
H       -0.52602367      -0.57379951       0.86565296
H       -0.09130163       0.96091333       0.12740847
H        0.03005326      -1.74306014      -1.31828847
H        0.47357166      -0.22151525      -2.00881612
H        2.16912137      -0.18612367       1.45940966
H        4.16091347       0.78805871       0.41097003
H        4.07431563      -0.35790779       1.87516204
19
Frame=7 idx=010809 GeodesicLength=0.41529741973708434 rxn_smarts="[C:1]([C:2]([C:3]([C:4]([C:5]#[C:6][C:7]([H:17])([H:18])[H:19])([H:15])[H:16])([H:13])[H:14])([H:11])[H:12])([H:8])([H:9])[H:10]>>[C:1]([C:2]([C:3]([C:4]([C-:5]=[C:6]([C+:7]([H:18])[H:19])[H:17])([H:15])[H:16])([H:13])[H:14])([H:11])[H:12])([H:8])([H:9])[H:10]"
C       -2.86792939       0.80918665       0.33030327
C       -1.92043469       0.10461739      -0.63148999
C       -0.50546059      -0.03160496      -0.08139746
C        0.43833631      -0.75252025      -1.04486469
C        1.83966533      -0.92536008      -0.63720415
C        2.56584969      -0.65648366       0.39231169
C        3.63116052       0.02403069       0.96702180
H       -2.94759206       0.26320269       1.27357480
H       -2.51573858       1.81756718       0.56115096
H       -3.87205356       0.89503109      -0.08880741
H       -2.31313114      -0.88981669      -0.86949056
H       -1.88677550       0.65144597      -1.57994474
H       -0.53882640      -0.57745453       0.86831034
H       -0.10272987       0.96211607       0.14106147
H        0.03247141      -1.73204981      -1.32183149
H        0.48229322      -0.20499451      -1.99640501
H        2.19402120      -0.13595031       1.48607612
H        4.18216583       0.74384030       0.37082433
H        4.10470826      -0.36480322       1.86080073
19
Frame=8 idx=010809 GeodesicLength=0.4748997391340003 rxn_smarts="[C:1]([C:2]([C:3]([C:4]([C:5]#[C:6][C:7]([H:17])([H:18])[H:19])([H:15])[H:16])([H:13])[H:14])([H:11])[H:12])([H:8])([H:9])[H:10]>>[C:1]([C:2]([C:3]([C:4]([C-:5]=[C:6]([C+:7]([H:18])[H:19])[H:17])([H:15])[H:16])([H:13])[H:14])([H:11])[H:12])([H:8])([H:9])[H:10]"
C       -2.88012691       0.80282198       0.32346513
C       -1.92414889       0.10541233      -0.63512301
C       -0.51280975      -0.03031483      -0.07559388
C        0.43882724      -0.74372052      -1.03692419
C        1.83693639      -0.92097584      -0.62137890
C        2.55896565      -0.66217074       0.41546457
C        3.64103297       0.01587204       0.96246244
H       -2.96509091       0.25190268       1.26339777
H       -2.53198989       1.81085471       0.56182447
H       -3.88149595       0.88826922      -0.10225318
H       -2.31283901      -0.88869742      -0.88094385
H       -1.88507630       0.65708752      -1.58056894
H       -0.55157964      -0.58102606       0.87097692
H       -0.11434359       0.96327982       0.15472333
H        0.03517203      -1.72103035      -1.32495186
H        0.49085092      -0.18859607      -1.98374724
H        2.22162205      -0.08378033       1.51081359
H        4.20215086       0.69822923       0.33233432
H        4.13394270      -0.37341737       1.84602252
19
Frame=9 idx=010809 GeodesicLength=0.5334645757401549 rxn_smarts="[C:1]([C:2]([C:3]([C:4]([C:5]#[C:6][C:7]([H:17])([H:18])[H:19])([H:15])[H:16])([H:13])[H:14])([H:11])[H:12])([H:8])([H:9])[H:10]>>[C:1]([C:2]([C:3]([C:4]([C-:5]=[C:6]([C+:7]([H:18])[H:19])[H:17])([H:15])[H:16])([H:13])[H:14])([H:11])[H:12])([H:8])([H:9])[H:10]"
C       -2.89246436       0.79637713       0.31642888
C       -1.92794167       0.10606883      -0.63872872
C       -0.52031504      -0.02898613      -0.06970456
C        0.43930000      -0.73491280      -1.02864552
C        1.83420513      -0.91613665      -0.60515551
C        2.55163970      -0.66474359       0.43839113
C        3.65154903       0.00703823       0.95759955
H       -2.98265016       0.24068310       1.25305933
H       -2.54854362       1.80409298       0.56211191
H       -3.89103948       0.88129190      -0.11591520
H       -2.31244655      -0.88775300      -0.89219781
H       -1.88351222       0.66245032      -1.58118858
H       -0.56439053      -0.58441496       0.87376034
H       -0.12623842       0.96447065       0.16840012
H        0.03820912      -1.71013389      -1.32732727
H        0.49914506      -0.17252401      -1.97081563
H        2.25200856      -0.03022588       1.53345816
H        4.22105641       0.65200215       0.29627549
H        4.16242903      -0.38464439       1.83019391
19
Frame=10 idx=010809 GeodesicLength=0.5920341537883499 rxn_smarts="[C:1]([C:2]([C:3]([C:4]([C:5]#[C:6][C:7]([H:17])([H:18])[H:19])([H:15])[H:16])([H:13])[H:14])([H:11])[H:12])([H:8])([H:9])[H:10]>>[C:1]([C:2]([C:3]([C:4]([C-:5]=[C:6]([C+:7]([H:18])[H:19])[H:17])([H:15])[H:16])([H:13])[H:14])([H:11])[H:12])([H:8])([H:9])[H:10]"
C       -2.90470274       0.78989151       0.30930881
C       -1.93165610       0.10673009      -0.64232113
C       -0.52788116      -0.02783400      -0.06372981
C        0.43975086      -0.72624279      -1.02014432
C        1.83140391      -0.91137656      -0.58862402
C        2.54393152      -0.66520902       0.46128646
C        3.66213452      -0.00198144       0.95254251
H       -3.00016922       0.22934230       1.24251328
H       -2.56500915       1.79720043       0.56241032
H       -3.90039752       0.87441099      -0.12969704
H       -2.31194635      -0.88671376      -0.90353321
H       -1.88179006       0.66791357      -1.58166586
H       -0.57729802      -0.58804028       0.87652624
H       -0.13816471       0.96535395       0.18232438
H        0.04139379      -1.69935214      -1.32935119
H        0.50735725      -0.15667490      -1.95756228
H        2.28522694       0.02446401       1.55407564
H        4.23813502       0.60517326       0.26156578
H        4.18968121      -0.39705521       1.81407543
19
Frame=11 idx=010809 GeodesicLength=0.6505787465022987 rxn_smarts="[C:1]([C:2]([C:3]([C:4]([C:5]#[C:6][C:7]([H:17])([H:18])[H:19])([H:15])[H:16])([H:13])[H:14])([H:11])[H:12])([H:8])([H:9])[H:10]>>[C:1]([C:2]([C:3]([C:4]([C-:5]=[C:6]([C+:7]([H:18])[H:19])[H:17])([H:15])[H:16])([H:13])[H:14])([H:11])[H:12])([H:8])([H:9])[H:10]"
C       -2.91671316       0.78351747       0.30209133
C       -1.93520272       0.10748771      -0.64592127
C       -0.53546158      -0.02701407      -0.05763010
C        0.44017860      -0.71792795      -1.01139193
C        1.82850059      -0.90707432      -0.57173585
C        2.53596900      -0.66386201       0.48411648
C        3.67246933      -0.01074226       0.94726012
H       -3.01764353       0.21797268       1.23169763
H       -2.58113335       1.79025960       0.56280460
H       -3.90941211       0.86795425      -0.14365800
H       -2.31136863      -0.88541166      -0.91507461
H       -1.87969982       0.67363839      -1.58197255
H       -0.59039183      -0.59214040       0.87925763
H       -0.14995609       0.96569591       0.19664207
H        0.04463704      -1.68885986      -1.33103103
H        0.51555536      -0.14124546      -1.94394879
H        2.32114231       0.07914072       1.57300483
H        4.25267617       0.55876245       0.22817492
H        4.21585443      -0.41015119       1.79731453
19
Frame=12 idx=010809 GeodesicLength=0.7093066235938006 rxn_smarts="[C:1]([C:2]([C:3]([C:4]([C:5]#[C:6][C:7]([H:17])([H:18])[H:19])([H:15])[H:16])([H:13])[H:14])([H:11])[H:12])([H:8])([H:9])[H:10]>>[C:1]([C:2]([C:3]([C:4]([C-:5]=[C:6]([C+:7]([H:18])[H:19])[H:17])([H:15])[H:16])([H:13])[H:14])([H:11])[H:12])([H:8])([H:9])[H:10]"
C       -2.92861595       0.77712019       0.29479151
C       -1.93864676       0.10829952      -0.64951494
C       -0.54311031      -0.02643976      -0.05140933
C        0.44057705      -0.70979851      -1.00239188
C        1.82549844      -0.90294668      -0.55451290
C        2.52784866      -0.66044582       0.50681254
C        3.68272043      -0.01949053       0.94182338
H       -3.03513197       0.20642871       1.22061460
H       -2.59713510       1.78316409       0.56331122
H       -3.91820839       0.86169565      -0.15777096
H       -2.31068457      -0.88392088      -0.92680658
H       -1.87736849       0.67958623      -1.58208342
H       -0.60367261      -0.59663073       0.88194248
H       -0.16176342       0.96561841       0.21133704
H        0.04800334      -1.67851888      -1.33237281
H        0.52367772      -0.12606051      -1.92997630
H        2.35985402       0.13457737       1.58988366
H        4.26552231       0.51189104       0.19593629
H        4.24063558      -0.42412889       1.78038641
19
Frame=13 idx=010809 GeodesicLength=0.7681684421047046 rxn_smarts="[C:1]([C:2]([C:3]([C:4]([C:5]#[C:6][C:7]([H:17])([H:18])[H:19])([H:15])[H:16])([H:13])[H:14])([H:11])[H:12])([H:8])([H:9])[H:10]>>[C:1]([C:2]([C:3]([C:4]([C-:5]=[C:6]([C+:7]([H:18])[H:19])[H:17])([H:15])[H:16])([H:13])[H:14])([H:11])[H:12])([H:8])([H:9])[H:10]"
C       -2.94022695       0.77094005       0.28737768
C       -1.94187735       0.10926584      -0.65312522
C       -0.55075945      -0.02630703      -0.04503827
C        0.44093458      -0.70218052      -0.99311631
C        1.82235599      -0.89952038      -0.53692047
C        2.51969861      -0.65549674       0.52933009
C        3.69253965      -0.02777329       0.93614237
H       -3.05259737       0.19492836       1.20920373
H       -2.61265649       1.77607693       0.56396008
H       -3.92657237       0.85608410      -0.17210848
H       -2.30995224      -0.88205387      -0.93881954
H       -1.87454402       0.68589157      -1.58199118
H       -0.61722949      -0.60176061       0.88456491
H       -0.17335852       0.96483743       0.22651282
H        0.05135415      -1.66860194      -1.33335395
H        0.53179916      -0.11145553      -1.91562392
H        2.40114982       0.18924096       1.60526364
H        4.27551546       0.46634064       0.16503115
H        4.26442684      -0.43845597       1.76271089
19
Frame=14 idx=010809 GeodesicLength=0.8272147369617946 rxn_smarts="[C:1]([C:2]([C:3]([C:4]([C:5]#[C:6][C:7]([H:17])([H:18])[H:19])([H:15])[H:16])([H:13])[H:14])([H:11])[H:12])([H:8])([H:9])[H:10]>>[C:1]([C:2]([C:3]([C:4]([C-:5]=[C:6]([C+:7]([H:18])[H:19])[H:17])([H:15])[H:16])([H:13])[H:14])([H:11])[H:12])([H:8])([H:9])[H:10]"
C       -2.95173983       0.76476960       0.27985315
C       -1.94499504       0.11032181      -0.65673576
C       -0.55849807      -0.02646520      -0.03851553
C        0.44124996      -0.69479380      -0.98354889
C        1.81908408      -0.89633421      -0.51893973
C        2.51155264      -0.64859683       0.55164562
C        3.70220826      -0.03590677       0.93035624
H       -3.07014359       0.18325388       1.19745385
H       -2.62805207       1.76883816       0.56475059
H       -3.93470203       0.85076259      -0.18665807
H       -2.30911643      -0.87993003      -0.95108713
H       -1.87141952       0.69248819      -1.58166912
H       -0.63106332      -0.60736877       0.88712382
H       -0.18498516       0.96356229       0.24214517
H        0.05480737      -1.65887759      -1.33396493
H        0.53984797      -0.09714119      -1.90086989
H        2.44522895       0.24423813       1.61859647
H        4.28379560       0.42072796       0.13521393
H        4.28694023      -0.45354823       1.74485023
19
Frame=15 idx=010809 GeodesicLength=0.8863036597135501 rxn_smarts="[C:1]([C:2]([C:3]([C:4]([C:5]#[C:6][C:7]([H:17])([H:18])[H:19])([H:15])[H:16])([H:13])[H:14])([H:11])[H:12])([H:8])([H:9])[H:10]>>[C:1]([C:2]([C:3]([C:4]([C-:5]=[C:6]([C+:7]([H:18])[H:19])[H:17])([H:15])[H:16])([H:13])[H:14])([H:11])[H:12])([H:8])([H:9])[H:10]"
C       -2.96306299       0.75876508       0.27216695
C       -1.94793661       0.11151832      -0.66036148
C       -0.56629534      -0.02701527      -0.03181311
C        0.44151793      -0.68783854      -0.97363526
C        1.81565758      -0.89367260      -0.50049814
C        2.50351770      -0.64002966       0.57372825
C        3.71152609      -0.04359752       0.92443066
H       -3.08777041       0.17157434       1.18530509
H       -2.64313954       1.76156555       0.56564333
H       -3.94248070       0.84599448      -0.20150539
H       -2.30819993      -0.87745507      -0.96364068
H       -1.86784462       0.69941942      -1.58112378
H       -0.64524070      -0.61356216       0.88962892
H       -0.19653268       0.96164855       0.25827964
H        0.05829423      -1.64953206      -1.33412377
H        0.54786697      -0.08335691      -1.88568565
H        2.49197718       0.29846219       1.63031391
H        4.28964956       0.37631800       0.10658024
H        4.30849631      -0.46920613       1.72631028
19
Frame=16 idx=010809 GeodesicLength=0.9453473966760775 rxn_smarts="[C:1]([C:2]([C:3]([C:4]([C:5]#[C:6][C:7]([H:17])([H:18])[H:19])([H:15])[H:16])([H:13])[H:14])([H:11])[H:12])([H:8])([H:9])[H:10]>>[C:1]([C:2]([C:3]([C:4]([C-:5]=[C:6]([C+:7]([H:18])[H:19])[H:17])([H:15])[H:16])([H:13])[H:14])([H:11])[H:12])([H:8])([H:9])[H:10]"
C       -2.97428585       0.75285719       0.26430086
C       -1.95074334       0.11283398      -0.66399727
C       -0.57419650      -0.02789835      -0.02492023
C        0.44173322      -0.68121902      -0.96334302
C        1.81207017      -0.89136167      -0.48154947
C        2.49564082      -0.62961498       0.59554906
C        3.72062498      -0.05098515       0.91839559
H       -3.10554840       0.15981868       1.17272753
H       -2.65807393       1.75420371       0.56662229
H       -3.94999102       0.84165892      -0.21667796
H       -2.30717959      -0.87466789      -0.97647099
H       -1.86388698       0.70665724      -1.58034319
H       -0.65978398      -0.62026890       0.89208774
H       -0.20811330       0.95917644       0.27490902
H        0.06185961      -1.64049649      -1.33378643
H        0.55582425      -0.07001912      -1.87004930
H        2.54153586       0.35218083       1.64018123
H        4.29346752       0.33282189       0.07912062
H        4.32904647      -0.48567732       1.70724392
