15
Frame=0 idx=009024 GeodesicLength=0.0 rxn_smarts="[C:1]([C@@:2]12[O:3][C@@:4]3([H:11])[C:5]([H:12])([H:13])[C@:6]1([H:14])[C@@:7]23[H:15])([H:8])([H:9])[H:10]>>[C:1]([C:2]1=[C:7]([H:15])[C@:6]1([C:5]([C:4](=[O:3])[H:11])([H:12])[H:13])[H:14])([H:8])([H:9])[H:10]"
C        2.00910543       0.26233704      -0.23314143
C        0.56970159       0.26951200       0.16596972
O       -0.19427922       1.25517556      -0.66544868
C       -1.40299672       0.89814902      -0.62418178
C       -1.67064223      -0.51549467      -0.27448231
C       -0.37520331      -0.88173345       0.40306493
C       -0.07920321       0.13033482       1.47100431
H        2.48420936       1.21103149       0.02322142
H        2.51781343      -0.52606792       0.32088207
H        2.15042916       0.07629566      -1.30002621
H       -2.11727897       1.57121148      -1.09364836
H       -2.52290798      -0.61959313       0.39644033
H       -1.92327148      -1.02972381      -1.21991269
H       -0.02186669      -1.90863872       0.35284035
H        0.57639090      -0.19279542       2.27741828
15
Frame=1 idx=009024 GeodesicLength=0.09266513620533727 rxn_smarts="[C:1]([C@@:2]12[O:3][C@@:4]3([H:11])[C:5]([H:12])([H:13])[C@:6]1([H:14])[C@@:7]23[H:15])([H:8])([H:9])[H:10]>>[C:1]([C:2]1=[C:7]([H:15])[C@:6]1([C:5]([C:4](=[O:3])[H:11])([H:12])[H:13])[H:14])([H:8])([H:9])[H:10]"
C        2.02020454       0.25063940      -0.23435764
C        0.57854121       0.26395481       0.15351959
O       -0.19906614       1.25208628      -0.71103420
C       -1.40904180       0.90198708      -0.60259005
C       -1.66595996      -0.52450278      -0.28944113
C       -0.37141388      -0.88300892       0.39619853
C       -0.08696447       0.15087537       1.44693572
H        2.49680912       1.19939238       0.01876558
H        2.52586967      -0.53599866       0.32522940
H        2.16612053       0.05744442      -1.29933646
H       -2.14960187       1.59803802      -0.99158351
H       -2.52199441      -0.65115703       0.37301886
H       -1.89956502      -1.02548622      -1.24568254
H       -0.02242641      -1.91207430       0.37347339
H        0.53848889      -0.14218985       2.28688445
15
Frame=2 idx=009024 GeodesicLength=0.18520806084015504 rxn_smarts="[C:1]([C@@:2]12[O:3][C@@:4]3([H:11])[C:5]([H:12])([H:13])[C@:6]1([H:14])[C@@:7]23[H:15])([H:8])([H:9])[H:10]>>[C:1]([C:2]1=[C:7]([H:15])[C@:6]1([C:5]([C:4](=[O:3])[H:11])([H:12])[H:13])[H:14])([H:8])([H:9])[H:10]"
C        2.03043779       0.23997413      -0.23568574
C        0.58702590       0.25824538       0.14225060
O       -0.20601666       1.24985929      -0.75378616
C       -1.41363831       0.90473717      -0.58256407
C       -1.66169165      -0.53271528      -0.30339875
C       -0.36795147      -0.88460186       0.38948952
C       -0.09409169       0.16937554       1.42362307
H        2.50839572       1.18847650       0.01543974
H        2.53363117      -0.54579819       0.32755058
H        2.17980601       0.04174439      -1.29924636
H       -2.17352990       1.61932818      -0.89351594
H       -2.52093600      -0.67944507       0.35094784
H       -1.87770511      -1.02127757      -1.26904106
H       -0.02368945      -1.91517944       0.39308791
H        0.49995366      -0.09272318       2.29484882
15
Frame=3 idx=009024 GeodesicLength=0.278118572093235 rxn_smarts="[C:1]([C@@:2]12[O:3][C@@:4]3([H:11])[C:5]([H:12])([H:13])[C@:6]1([H:14])[C@@:7]23[H:15])([H:8])([H:9])[H:10]>>[C:1]([C:2]1=[C:7]([H:15])[C@:6]1([C:5]([C:4](=[O:3])[H:11])([H:12])[H:13])[H:14])([H:8])([H:9])[H:10]"
C        2.04017229       0.23013608      -0.23705563
C        0.59533863       0.25243498       0.13212991
O       -0.21491094       1.24883936      -0.79390747
C       -1.41726227       0.90679274      -0.56378760
C       -1.65792722      -0.54028299      -0.31648989
C       -0.36475239      -0.88653551       0.38296848
C       -0.10052479       0.18610654       1.40111002
H        2.51952887       1.17813973       0.01329207
H        2.54143920      -0.55578323       0.32805727
H        2.19188792       0.02884676      -1.29969871
H       -2.19081454       1.63585223      -0.79965308
H       -2.51999556      -0.70503707       0.33006731
H       -1.85758428      -1.01722688      -1.29038282
H       -0.02556172      -1.91817581       0.41193470
H        0.46096679      -0.04410692       2.30141543
15
Frame=4 idx=009024 GeodesicLength=0.37086099620238383 rxn_smarts="[C:1]([C@@:2]12[O:3][C@@:4]3([H:11])[C:5]([H:12])([H:13])[C@:6]1([H:14])[C@@:7]23[H:15])([H:8])([H:9])[H:10]>>[C:1]([C:2]1=[C:7]([H:15])[C@:6]1([C:5]([C:4](=[O:3])[H:11])([H:12])[H:13])[H:14])([H:8])([H:9])[H:10]"
C        2.04931544       0.22095942      -0.23855724
C        0.60346151       0.24645353       0.12300009
O       -0.22545614       1.24865013      -0.83193827
C       -1.41991140       0.90818098      -0.54586126
C       -1.65430462      -0.54723256      -0.32872501
C       -0.36172659      -0.88865795       0.37665001
C       -0.10646933       0.20121904       1.37931605
H        2.52994818       1.16813516       0.01198804
H        2.54904869      -0.56584562       0.32690538
H        2.20257197       0.01836168      -1.30072832
H       -2.20201449       1.64828611      -0.70927154
H       -2.51886981      -0.72840226       0.31035912
H       -1.83844303      -1.01312578      -1.30990683
H       -0.02796370      -1.92079601       0.43015562
H        0.42081332       0.00381412       2.30661416
15
Frame=5 idx=009024 GeodesicLength=0.4634281928039352 rxn_smarts="[C:1]([C@@:2]12[O:3][C@@:4]3([H:11])[C:5]([H:12])([H:13])[C@:6]1([H:14])[C@@:7]23[H:15])([H:8])([H:9])[H:10]>>[C:1]([C:2]1=[C:7]([H:15])[C@:6]1([C:5]([C:4](=[O:3])[H:11])([H:12])[H:13])[H:14])([H:8])([H:9])[H:10]"
C        2.05794763       0.21225390      -0.24003960
C        0.61152367       0.24037003       0.11501261
O       -0.23760604       1.24969023      -0.86753326
C       -1.42179012       0.90916277      -0.52838481
C       -1.65084584      -0.55358940      -0.34021202
C       -0.35878938      -0.89092309       0.37052875
C       -0.11161651       0.21491821       1.35839330
H        2.54003812       1.15820028       0.01190511
H        2.55651078      -0.57635100       0.32406840
H        2.21165938       0.01011978      -1.30220493
H       -2.20854699       1.65659292      -0.62333844
H       -2.51754991      -0.74972888       0.29162315
H       -1.82035977      -1.00897539      -1.32791461
H       -0.03084568      -1.92310369       0.44770625
H        0.38027064       0.05136334       2.31039010
15
Frame=6 idx=009024 GeodesicLength=0.5564480743619141 rxn_smarts="[C:1]([C@@:2]12[O:3][C@@:4]3([H:11])[C:5]([H:12])([H:13])[C@:6]1([H:14])[C@@:7]23[H:15])([H:8])([H:9])[H:10]>>[C:1]([C:2]1=[C:7]([H:15])[C@:6]1([C:5]([C:4](=[O:3])[H:11])([H:12])[H:13])[H:14])([H:8])([H:9])[H:10]"
C        2.06648215       0.20396108      -0.24158574
C        0.61964415       0.23415431       0.10801768
O       -0.25124988       1.25187753      -0.90132450
C       -1.42316919       0.90990495      -0.51124571
C       -1.64764097      -0.55950229      -0.35096270
C       -0.35595031      -0.89346528       0.36469410
C       -0.11619399       0.22730279       1.33829064
H        2.55012561       1.14845046       0.01265468
H        2.56425844      -0.58729355       0.31977611
H        2.21988298       0.00384034      -1.30416684
H       -2.21125426       1.66187748      -0.54112721
H       -2.51638108      -0.76952728       0.27384691
H       -1.80313082      -1.00481868      -1.34453987
H       -0.03410944      -1.92538521       0.46483469
H        0.33868661       0.09862336       2.31283775
15
Frame=7 idx=009024 GeodesicLength=0.6494672490671137 rxn_smarts="[C:1]([C@@:2]12[O:3][C@@:4]3([H:11])[C:5]([H:12])([H:13])[C@:6]1([H:14])[C@@:7]23[H:15])([H:8])([H:9])[H:10]>>[C:1]([C:2]1=[C:7]([H:15])[C@:6]1([C:5]([C:4](=[O:3])[H:11])([H:12])[H:13])[H:14])([H:8])([H:9])[H:10]"
C        2.07472390       0.19588814      -0.24318244
C        0.62781971       0.22782304       0.10205520
O       -0.26633987       1.25525173      -0.93320511
C       -1.42395887       0.91037951      -0.49424978
C       -1.64439143      -0.56495094      -0.36113493
C       -0.35310569      -0.89610852       0.35915039
C       -0.12012924       0.23854729       1.31904698
H        2.56014224       1.13848858       0.01435146
H        2.57196656      -0.59885755       0.31392699
H        2.22691876      -0.00064343      -1.30659565
H       -2.21080941       1.66406769      -0.46243263
H       -2.51500182      -0.78795520       0.25675046
H       -1.78629118      -1.00050773      -1.36007398
H       -0.03775574      -1.92737228       0.48177186
H        0.29621208       0.14594966       2.31382120
15
Frame=8 idx=009024 GeodesicLength=0.7424737636829813 rxn_smarts="[C:1]([C@@:2]12[O:3][C@@:4]3([H:11])[C:5]([H:12])([H:13])[C@:6]1([H:14])[C@@:7]23[H:15])([H:8])([H:9])[H:10]>>[C:1]([C:2]1=[C:7]([H:15])[C@:6]1([C:5]([C:4](=[O:3])[H:11])([H:12])[H:13])[H:14])([H:8])([H:9])[H:10]"
C        2.08275471       0.18803282      -0.24478583
C        0.63610086       0.22129938       0.09707615
O       -0.28282209       1.25956333      -0.96352013
C       -1.42417653       0.91060005      -0.47728522
C       -1.64111812      -0.56996712      -0.37064114
C       -0.35022876      -0.89889800       0.35389902
C       -0.12339312       0.24866386       1.30064828
H        2.57004170       1.12839428       0.01688350
H        2.57973932      -0.61088098       0.30673142
H        2.23297497      -0.00346357      -1.30938490
H       -2.20748183       1.66373524      -0.38722040
H       -2.51341605      -0.80510276       0.24048954
H       -1.76991617      -0.99604987      -1.37445468
H       -0.04167816      -1.92913903       0.49830972
H        0.25261928       0.19321236       2.31325467
15
Frame=9 idx=009024 GeodesicLength=0.8357259991721667 rxn_smarts="[C:1]([C@@:2]12[O:3][C@@:4]3([H:11])[C:5]([H:12])([H:13])[C@:6]1([H:14])[C@@:7]23[H:15])([H:8])([H:9])[H:10]>>[C:1]([C:2]1=[C:7]([H:15])[C@:6]1([C:5]([C:4](=[O:3])[H:11])([H:12])[H:13])[H:14])([H:8])([H:9])[H:10]"
C        2.09077980       0.18027276      -0.24640756
C        0.64457402       0.21462544       0.09311393
O       -0.30070039       1.26505599      -0.99222076
C       -1.42396802       0.91066949      -0.46027381
C       -1.63783615      -0.57464239      -0.37960167
C       -0.34732347      -0.90185587       0.34899959
C       -0.12605802       0.25782621       1.28313055
H        2.58020360       1.11801142       0.02033419
H        2.58772666      -0.62364483       0.29805704
H        2.23823864      -0.00468155      -1.31253861
H       -2.20212429       1.66111547      -0.31521260
H       -2.51178972      -0.82123707       0.22483232
H       -1.75381994      -0.99150833      -1.38788789
H       -0.04589988      -1.93080258       0.51473585
H        0.20799715       0.24079584       2.31093943
15
Frame=10 idx=009024 GeodesicLength=0.9291354227016044 rxn_smarts="[C:1]([C@@:2]12[O:3][C@@:4]3([H:11])[C:5]([H:12])([H:13])[C@:6]1([H:14])[C@@:7]23[H:15])([H:8])([H:9])[H:10]>>[C:1]([C:2]1=[C:7]([H:15])[C@:6]1([C:5]([C:4](=[O:3])[H:11])([H:12])[H:13])[H:14])([H:8])([H:9])[H:10]"
C        2.09875684       0.17255091      -0.24804801
C        0.65325431       0.20778154       0.09014722
O       -0.31998218       1.27157696      -1.01949572
C       -1.42328660       0.91054434      -0.44318419
C       -1.63442698      -0.57899356      -0.38805072
C       -0.34434171      -0.90492638       0.34447573
C       -0.12810837       0.26613047       1.26648215
H        2.59058127       1.10721970       0.02466209
H        2.59582713      -0.63712735       0.28791699
H        2.24268970      -0.00437568      -1.31601463
H       -2.19488464       1.65644537      -0.24598995
H       -2.50998367      -0.83646694       0.20971203
H       -1.73781415      -0.98685596      -1.40044914
H       -0.05039364      -1.93227154       0.53112460
H        0.16211269       0.28876814       2.30671156
15
Frame=11 idx=009024 GeodesicLength=1.0228186422888215 rxn_smarts="[C:1]([C@@:2]12[O:3][C@@:4]3([H:11])[C:5]([H:12])([H:13])[C@:6]1([H:14])[C@@:7]23[H:15])([H:8])([H:9])[H:10]>>[C:1]([C:2]1=[C:7]([H:15])[C@:6]1([C:5]([C:4](=[O:3])[H:11])([H:12])[H:13])[H:14])([H:8])([H:9])[H:10]"
C        2.10676449       0.16479192      -0.24969681
C        0.66218871       0.20078077       0.08821835
O       -0.34071980       1.27920117      -1.04536318
C       -1.42220118       0.91026209      -0.42597217
C       -1.63086938      -0.58306977      -0.39604991
C       -0.34127414      -0.90810756       0.34039090
C       -0.12956446       0.27369492       1.25074164
H        2.60135042       1.09589605       0.02992388
H        2.60407920      -0.65146532       0.27623020
H        2.24637487      -0.00256626      -1.31977363
H       -2.18619594       1.64990574      -0.17934184
H       -2.50803968      -0.85094998       0.19498672
H       -1.72175998      -0.98211497      -1.41224671
H       -0.05515155      -1.93357862       0.54762414
H        0.11501842       0.33731983       2.30032843
15
Frame=12 idx=009024 GeodesicLength=1.1166309412222004 rxn_smarts="[C:1]([C@@:2]12[O:3][C@@:4]3([H:11])[C:5]([H:12])([H:13])[C@:6]1([H:14])[C@@:7]23[H:15])([H:8])([H:9])[H:10]>>[C:1]([C:2]1=[C:7]([H:15])[C@:6]1([C:5]([C:4](=[O:3])[H:11])([H:12])[H:13])[H:14])([H:8])([H:9])[H:10]"
C        2.11466703       0.15692215      -0.25136087
C        0.67134370       0.19362175       0.08736839
O       -0.36293139       1.28789665      -1.06984340
C       -1.42062830       0.90976903      -0.40861712
C       -1.62697298      -0.58685352      -0.40364266
C       -0.33809581      -0.91130262       0.33682724
C       -0.13047891       0.28059354       1.23594007
H        2.61242583       1.08379369       0.03616364
H        2.61223594      -0.66672051       0.26287544
H        2.24914686       0.00079021      -1.32378036
H       -2.17622616       1.64147165      -0.11505419
H       -2.50575664      -0.86475593       0.18053679
H       -1.70531791      -0.97719096      -1.42334953
H       -0.06019860      -1.93454788       0.56443583
H        0.06678734       0.38651275       2.29150073
15
Frame=13 idx=009024 GeodesicLength=1.210749496138568 rxn_smarts="[C:1]([C@@:2]12[O:3][C@@:4]3([H:11])[C:5]([H:12])([H:13])[C@:6]1([H:14])[C@@:7]23[H:15])([H:8])([H:9])[H:10]>>[C:1]([C:2]1=[C:7]([H:15])[C@:6]1([C:5]([C:4](=[O:3])[H:11])([H:12])[H:13])[H:14])([H:8])([H:9])[H:10]"
C        2.12263237       0.14895837      -0.25297737
C        0.68078642       0.18631836       0.08763956
O       -0.38669262       1.29761480      -1.09309133
C       -1.41867417       0.90912991      -0.39115873
C       -1.62286618      -0.59039960      -0.41081020
C       -0.33483030      -0.91454332       0.33381929
C       -0.13088034       0.28697819       1.22210390
H        2.62399593       1.07099577       0.04340072
H        2.62047992      -0.68284438       0.24791989
H        2.25119973       0.00565102      -1.32790529
H       -2.16526671       1.63149918      -0.05309586
H       -2.50332188      -0.87791705       0.16639833
H       -1.68863916      -0.97223375      -1.43373388
H       -0.06550468      -1.93529707       0.58150576
H        0.01758167       0.43608958       2.27998522
15
Frame=14 idx=009024 GeodesicLength=1.3050897870631357 rxn_smarts="[C:1]([C@@:2]12[O:3][C@@:4]3([H:11])[C:5]([H:12])([H:13])[C@:6]1([H:14])[C@@:7]23[H:15])([H:8])([H:9])[H:10]>>[C:1]([C:2]1=[C:7]([H:15])[C@:6]1([C:5]([C:4](=[O:3])[H:11])([H:12])[H:13])[H:14])([H:8])([H:9])[H:10]"
C        2.13058146       0.14089353      -0.25450142
C        0.69049011       0.17888230       0.08909578
O       -0.41206008       1.30826504      -1.11520856
C       -1.41630285       0.90832732      -0.37366155
C       -1.61847923      -0.59369983      -0.41755983
C       -0.33148990      -0.91774980       0.33144872
C       -0.13084616       0.29297750       1.20925605
H        2.63600785       1.05738657       0.05170982
H        2.62865393      -0.69980704       0.23131858
H        2.25245450       0.01209145      -1.33203776
H       -2.15347394       1.62008696       0.00648812
H       -2.50066615      -0.89041827       0.15253919
H       -1.67158658      -0.96725785      -1.44339855
H       -0.07109248      -1.93571215       0.59894381
H       -0.03219049       0.48573427       2.26556761
15
Frame=15 idx=009024 GeodesicLength=1.399685212671161 rxn_smarts="[C:1]([C@@:2]12[O:3][C@@:4]3([H:11])[C:5]([H:12])([H:13])[C@:6]1([H:14])[C@@:7]23[H:15])([H:8])([H:9])[H:10]>>[C:1]([C:2]1=[C:7]([H:15])[C@:6]1([C:5]([C:4](=[O:3])[H:11])([H:12])[H:13])[H:14])([H:8])([H:9])[H:10]"
C        2.13851975       0.13274107      -0.25589223
C        0.70044747       0.17136269       0.09180341
O       -0.43910644       1.31982425      -1.13633233
C       -1.41354372       0.90740777      -0.35623328
C       -1.61381454      -0.59676167      -0.42391346
C       -0.32811590      -0.92085830       0.32979897
C       -0.13050252       0.29878817       1.19740292
H        2.64849891       1.04295299       0.06106213
H        2.63671285      -0.71752585       0.21311127
H        2.25293470       0.02008305      -1.33605390
H       -2.14112363       1.60741105       0.06359779
H       -2.49783978      -0.90225670       0.13892137
H       -1.65408655      -0.96233263      -1.45235604
H       -0.07700884      -1.93573734       0.61688669
H       -0.08197177       0.53490147       2.24819670
15
Frame=16 idx=009024 GeodesicLength=1.4945024044554716 rxn_smarts="[C:1]([C@@:2]12[O:3][C@@:4]3([H:11])[C:5]([H:12])([H:13])[C@:6]1([H:14])[C@@:7]23[H:15])([H:8])([H:9])[H:10]>>[C:1]([C:2]1=[C:7]([H:15])[C@:6]1([C:5]([C:4](=[O:3])[H:11])([H:12])[H:13])[H:14])([H:8])([H:9])[H:10]"
C        2.14636378       0.12451281      -0.25707006
C        0.71061141       0.16376641       0.09582310
O       -0.46796304       1.33214410      -1.15663946
C       -1.41041798       0.90636727      -0.33902658
C       -1.60885288      -0.59958560      -0.42990630
C       -0.32475035      -0.92379083       0.32895195
C       -0.12996572       0.30457123       1.18649580
H        2.66140265       1.02760051       0.07156415
H        2.64450298      -0.73593887       0.19328808
H        2.25255997       0.02973259      -1.33977632
H       -2.12834609       1.59362533       0.11813740
H       -2.49483264      -0.91341050       0.12546274
H       -1.63604979      -0.95751154      -1.46060971
H       -0.08326384      -1.93527012       0.63540405
H       -0.13099847       0.58318722       2.22790114
