16
Frame=0 idx=000677 GeodesicLength=0.0 rxn_smarts="[C:1]([C:2]([C:3]([H:11])([H:12])[H:13])([C:4](=[O:5])[C:6]([H:14])([H:15])[H:16])[H:10])([H:7])([H:8])[H:9]>>[C:1]([C:2]([C:3]([H:11])([H:12])[H:13])([C-:4]=[O+:5][C:6]([H:14])([H:15])[H:16])[H:10])([H:7])([H:8])[H:9]"
C       -1.07053518       0.73090869      -0.74315662
C       -0.55987369      -0.42114108       0.11665684
C       -1.27982795      -0.48278183       1.46901033
C        0.92722292      -0.37709532       0.45729249
O        1.43565058       0.81619817       0.46357261
C        2.19452596      -0.07882288      -0.77295537
H       -0.55447021       0.77676171      -1.70566775
H       -0.92306626       1.68935037      -0.24401167
H       -2.13709186       0.61321424      -0.94537267
H       -0.73152476      -1.37481177      -0.39420647
H       -1.12402449       0.44238350       2.02966383
H       -0.91353989      -1.31168664       2.07642575
H       -2.35359980      -0.61049080       1.32150099
H        3.08432592      -0.53287002      -0.36584693
H        1.64054667      -0.73722294      -1.45259861
H        2.36528208       0.85810653      -1.31030682
16
Frame=1 idx=000677 GeodesicLength=0.06025040133130216 rxn_smarts="[C:1]([C:2]([C:3]([H:11])([H:12])[H:13])([C:4](=[O:5])[C:6]([H:14])([H:15])[H:16])[H:10])([H:7])([H:8])[H:9]>>[C:1]([C:2]([C:3]([H:11])([H:12])[H:13])([C-:4]=[O+:5][C:6]([H:14])([H:15])[H:16])[H:10])([H:7])([H:8])[H:9]"
C       -1.09208470       0.73601996      -0.73922760
C       -0.56250078      -0.41047752       0.11618612
C       -1.27726382      -0.48671433       1.47051410
C        0.92357093      -0.34638461       0.45117168
O        1.42606841       0.84513441       0.42965888
C        2.20932258      -0.08966515      -0.77001566
H       -0.58010821       0.79150177      -1.70323146
H       -0.95623042       1.69535686      -0.23838194
H       -2.15788519       0.60443741      -0.93685044
H       -0.72278820      -1.36530513      -0.39654318
H       -1.13368424       0.43877860       2.03384225
H       -0.89798188      -1.31256138       2.07414282
H       -2.34967555      -0.62870688       1.32600690
H        3.07156939      -0.57887970      -0.34279304
H        1.65957841      -0.72854787      -1.47075555
H        2.44009328       0.83601356      -1.30372388
16
Frame=2 idx=000677 GeodesicLength=0.11999856171242693 rxn_smarts="[C:1]([C:2]([C:3]([H:11])([H:12])[H:13])([C:4](=[O:5])[C:6]([H:14])([H:15])[H:16])[H:10])([H:7])([H:8])[H:9]>>[C:1]([C:2]([C:3]([H:11])([H:12])[H:13])([C-:4]=[O+:5][C:6]([H:14])([H:15])[H:16])[H:10])([H:7])([H:8])[H:9]"
C       -1.11446895       0.74102425      -0.73539277
C       -0.56528179      -0.39952805       0.11523539
C       -1.27382644      -0.49045811       1.47188720
C        0.91962857      -0.31495299       0.44381298
O        1.41613083       0.87411631       0.39305753
C        2.22412474      -0.10057522      -0.76649049
H       -0.60765335       0.80582584      -1.70135797
H       -0.98969561       1.70114350      -0.23304109
H       -2.17947179       0.59554330      -0.92752735
H       -0.71414567      -1.35537782      -0.39936222
H       -1.14240941       0.43521565       2.03783721
H       -0.88103590      -1.31294802       2.07148169
H       -2.34470814      -0.64704416       1.33095504
H        3.05577736      -0.62533753      -0.31927395
H        1.68037274      -0.71846895      -1.48977052
H        2.51666280       0.81182198      -1.29205068
16
Frame=3 idx=000677 GeodesicLength=0.1792362853580938 rxn_smarts="[C:1]([C:2]([C:3]([H:11])([H:12])[H:13])([C:4](=[O:5])[C:6]([H:14])([H:15])[H:16])[H:10])([H:7])([H:8])[H:9]>>[C:1]([C:2]([C:3]([H:11])([H:12])[H:13])([C-:4]=[O+:5][C:6]([H:14])([H:15])[H:16])[H:10])([H:7])([H:8])[H:9]"
C       -1.13766902       0.74591501      -0.73163245
C       -0.56820470      -0.38828719       0.11377234
C       -1.26945177      -0.49397954       1.47310408
C        0.91539457      -0.28281206       0.43513426
O        1.40583735       0.90300716       0.35354967
C        2.23890409      -0.11155059      -0.76235446
H       -0.63713505       0.81967049      -1.70004413
H       -1.02337583       1.70671435      -0.22797815
H       -2.20183133       0.58655525      -0.91732828
H       -0.70561315      -1.34500688      -0.40270754
H       -1.15010137       0.43171543       2.04163310
H       -0.86264679      -1.31280407       2.06838159
H       -2.33862059      -0.66545035       1.33635109
H        3.03676982      -0.67212701      -0.29554770
H        1.70326952      -0.70699368      -1.50957380
H        2.59447426       0.78543368      -1.27475962
16
Frame=4 idx=000677 GeodesicLength=0.2379942909512846 rxn_smarts="[C:1]([C:2]([C:3]([H:11])([H:12])[H:13])([C:4](=[O:5])[C:6]([H:14])([H:15])[H:16])[H:10])([H:7])([H:8])[H:9]>>[C:1]([C:2]([C:3]([H:11])([H:12])[H:13])([C-:4]=[O+:5][C:6]([H:14])([H:15])[H:16])[H:10])([H:7])([H:8])[H:9]"
C       -1.16165644       0.75070271      -0.72793066
C       -0.57126064      -0.37675784       0.11176221
C       -1.26408152      -0.49725276       1.47415168
C        0.91086985      -0.24998928       0.42505465
O        1.39519336       0.93165092       0.31091226
C        2.25363715      -0.12259426      -0.75759498
H       -0.66856556       0.83299001      -1.69929523
H       -1.05716501       1.71210622      -0.22317463
H       -2.22493605       0.57751966      -0.90618663
H       -0.69722355      -1.33419182      -0.40663840
H       -1.15665105       0.42830326       2.04524158
H       -0.84277343      -1.31211407       2.06479322
H       -2.33134664      -0.68387214       1.34221015
H        3.01440322      -0.71908625      -0.27187939
H        1.72867500      -0.69422216      -1.53006876
H        2.67288129       0.75680778      -1.25135705
16
Frame=5 idx=000677 GeodesicLength=0.2962146828775604 rxn_smarts="[C:1]([C:2]([C:3]([H:11])([H:12])[H:13])([C:4](=[O:5])[C:6]([H:14])([H:15])[H:16])[H:10])([H:7])([H:8])[H:9]>>[C:1]([C:2]([C:3]([H:11])([H:12])[H:13])([C-:4]=[O+:5][C:6]([H:14])([H:15])[H:16])[H:10])([H:7])([H:8])[H:9]"
C       -1.18637660       0.75542339      -0.72425902
C       -0.57442819      -0.36492762       0.10916235
C       -1.25762041      -0.50026316       1.47497217
C        0.90605508      -0.21653092       0.41349707
O        1.38421708       0.95981601       0.26494262
C        2.26824308      -0.13373707      -0.75213324
H       -0.70194932       0.84577136      -1.69908092
H       -1.09091138       1.71735091      -0.21860038
H       -2.24872660       0.56854153      -0.89402413
H       -0.68900797      -1.32288024      -0.41122741
H       -1.16193028       0.42496335       2.04862515
H       -0.82132332      -1.31085864       2.06061672
H       -2.32276830      -0.70227065       1.34848609
H        2.98858041      -0.76594396      -0.24846682
H        1.75699332      -0.68036780      -1.55098968
H        2.75095339       0.72591353      -1.22152058
16
Frame=6 idx=000677 GeodesicLength=0.35395728038674984 rxn_smarts="[C:1]([C:2]([C:3]([H:11])([H:12])[H:13])([C:4](=[O:5])[C:6]([H:14])([H:15])[H:16])[H:10])([H:7])([H:8])[H:9]>>[C:1]([C:2]([C:3]([H:11])([H:12])[H:13])([C-:4]=[O+:5][C:6]([H:14])([H:15])[H:16])[H:10])([H:7])([H:8])[H:9]"
C       -1.21174682       0.76006165      -0.72059279
C       -0.57772171      -0.35285439       0.10594469
C       -1.25005248      -0.50296070       1.47556684
C        0.90095082      -0.18260590       0.40034625
O        1.37291123       0.98717379       0.21551726
C        2.28270029      -0.14493799      -0.74601147
H       -0.73720942       0.85790859      -1.69938324
H       -1.12440596       1.72247005      -0.21424572
H       -2.27312982       0.55969045      -0.88076581
H       -0.68108720      -1.31113515      -0.41651377
H       -1.16577687       0.42175433       2.05179788
H       -0.79835899      -1.30902430       2.05581180
H       -2.31288615      -0.72048084       1.35523171
H        2.95929993      -0.81242853      -0.22571949
H        1.78872375      -0.66563504      -1.57219776
H        2.82778939       0.69300397      -1.18478638
16
Frame=7 idx=000677 GeodesicLength=0.41124756187649164 rxn_smarts="[C:1]([C:2]([C:3]([H:11])([H:12])[H:13])([C:4](=[O:5])[C:6]([H:14])([H:15])[H:16])[H:10])([H:7])([H:8])[H:9]>>[C:1]([C:2]([C:3]([H:11])([H:12])[H:13])([C-:4]=[O+:5][C:6]([H:14])([H:15])[H:16])[H:10])([H:7])([H:8])[H:9]"
C       -1.23769645       0.76462999      -0.71687141
C       -0.58113939      -0.34055786       0.10207248
C       -1.24130673      -0.50530339       1.47586303
C        0.89555830      -0.14835845       0.38548765
O        1.36127282       1.01334036       0.16247468
C        2.29694101      -0.15620450      -0.73919874
H       -0.77431397       0.86935161      -1.70010342
H       -1.15746374       1.72746348      -0.21006900
H       -2.29807407       0.55108355      -0.86629839
H       -0.67355304      -1.29893142      -0.42254348
H       -1.16802574       0.41868515       2.05468758
H       -0.77384093      -1.30657487       2.05024264
H       -2.30162588      -0.73837211       1.36241091
H        2.92661178      -0.85821910      -0.20393943
H        1.82432806      -0.65030873      -1.59336410
H        2.90232797       0.65827629      -1.14085102
16
Frame=8 idx=000677 GeodesicLength=0.4683067170942709 rxn_smarts="[C:1]([C:2]([C:3]([H:11])([H:12])[H:13])([C:4](=[O:5])[C:6]([H:14])([H:15])[H:16])[H:10])([H:7])([H:8])[H:9]>>[C:1]([C:2]([C:3]([H:11])([H:12])[H:13])([C-:4]=[O+:5][C:6]([H:14])([H:15])[H:16])[H:10])([H:7])([H:8])[H:9]"
C       -1.26417099       0.76919526      -0.71303896
C       -0.58472305      -0.32808986       0.09751041
C       -1.23142529      -0.50729475       1.47587876
C        0.88989982      -0.11392696       0.36881568
O        1.34937224       1.03800889       0.10565929
C        2.31102960      -0.16754535      -0.73175326
H       -0.81320711       0.88011207      -1.70121106
H       -1.18989282       1.73247326      -0.20597425
H       -2.32355144       0.54286502      -0.85051291
H       -0.66656720      -1.28636371      -0.42942633
H       -1.16860465       0.41580043       2.05738214
H       -0.74786466      -1.30358084       2.04386495
H       -2.28907800      -0.75589026       1.37007217
H        2.89077176      -0.90294329      -0.18340066
H        1.86440958      -0.63490732      -1.61421151
H        2.97360221       0.62208742      -1.08965443
16
Frame=9 idx=000677 GeodesicLength=0.5247333584092825 rxn_smarts="[C:1]([C:2]([C:3]([H:11])([H:12])[H:13])([C:4](=[O:5])[C:6]([H:14])([H:15])[H:16])[H:10])([H:7])([H:8])[H:9]>>[C:1]([C:2]([C:3]([H:11])([H:12])[H:13])([C-:4]=[O+:5][C:6]([H:14])([H:15])[H:16])[H:10])([H:7])([H:8])[H:9]"
C       -1.29092342       0.77387484      -0.70907016
C       -0.58842586      -0.31545637       0.09220316
C       -1.22020253      -0.50899074       1.47545025
C        0.88387104      -0.07959262       0.35026631
O        1.33709246       1.06054943       0.04507337
C        2.32453446      -0.17898393      -0.72347968
H       -0.85373394       0.89031281      -1.70259422
H       -1.22127456       1.73748281      -0.20196446
H       -2.34921404       0.53538354      -0.83337253
H       -0.66022622      -1.27326643      -0.43722997
H       -1.16720913       0.41289183       2.05971327
H       -0.72030601      -1.30012979       2.03646772
H       -2.27491979      -0.77293858       1.37802403
H        2.85201146      -0.94584655      -0.16392296
H        1.90906330      -0.62012037      -1.63386575
H        3.03986278       0.58483011      -1.03169837
16
Frame=10 idx=000677 GeodesicLength=0.5809367478485516 rxn_smarts="[C:1]([C:2]([C:3]([H:11])([H:12])[H:13])([C:4](=[O:5])[C:6]([H:14])([H:15])[H:16])[H:10])([H:7])([H:8])[H:9]>>[C:1]([C:2]([C:3]([H:11])([H:12])[H:13])([C-:4]=[O+:5][C:6]([H:14])([H:15])[H:16])[H:10])([H:7])([H:8])[H:9]"
C       -1.31794128       0.77869282      -0.70484229
C       -0.59237346      -0.30280631       0.08613476
C       -1.20786647      -0.51036305       1.47462741
C        0.87755794      -0.04566484       0.32968131
O        1.32456069       1.08054483      -0.01926961
C        2.33778170      -0.19044269      -0.71459681
H       -0.89579318       0.89990760      -1.70413127
H       -1.25142890       1.74265095      -0.19786873
H       -2.37518135       0.52876285      -0.81471435
H       -0.65486065      -1.25990857      -0.44604331
H       -1.16378556       0.41010185       2.06181293
H       -0.69152462      -1.29633821       2.02798578
H       -2.25956256      -0.78929099       1.38639490
H        2.81105620      -0.98657210      -0.14590100
H        1.95896323      -0.60654439      -1.65208842
H        3.10039826       0.54727026      -0.96718131
16
Frame=11 idx=000677 GeodesicLength=0.6368744386826812 rxn_smarts="[C:1]([C:2]([C:3]([H:11])([H:12])[H:13])([C:4](=[O:5])[C:6]([H:14])([H:15])[H:16])[H:10])([H:7])([H:8])[H:9]>>[C:1]([C:2]([C:3]([H:11])([H:12])[H:13])([C-:4]=[O+:5][C:6]([H:14])([H:15])[H:16])[H:10])([H:7])([H:8])[H:9]"
C       -1.34510111       0.78373416      -0.70029429
C       -0.59659091      -0.29020031       0.07926202
C       -1.19433800      -0.51144443       1.47330771
C        0.87090983      -0.01242344       0.30695277
O        1.31169176       1.09741403      -0.08740312
C        2.35062736      -0.20190105      -0.70503507
H       -0.93933387       0.90898208      -1.70569222
H       -1.28007071       1.74801713      -0.19365192
H       -2.40130176       0.52326583      -0.79444137
H       -0.65065276      -1.24628608      -0.45592618
H       -1.15811172       0.40734919       2.06357915
H       -0.66150626      -1.29229368       2.01825489
H       -2.24291059      -0.80484400       1.39509922
H        2.76832717      -1.02474287      -0.12928764
H        2.01424740      -0.59462572      -1.66820078
H        3.15411418       0.50999916      -0.89652317
16
Frame=12 idx=000677 GeodesicLength=0.6927676546016086 rxn_smarts="[C:1]([C:2]([C:3]([H:11])([H:12])[H:13])([C:4](=[O:5])[C:6]([H:14])([H:15])[H:16])[H:10])([H:7])([H:8])[H:9]>>[C:1]([C:2]([C:3]([H:11])([H:12])[H:13])([C-:4]=[O+:5][C:6]([H:14])([H:15])[H:16])[H:10])([H:7])([H:8])[H:9]"
C       -1.37238467       0.78908650      -0.69533096
C       -0.60117055      -0.27774618       0.07155855
C       -1.17971894      -0.51226696       1.47146865
C        0.86396075       0.01988391       0.28197181
O        1.29853342       1.11068393      -0.15934890
C        2.36323293      -0.21331026      -0.69484314
H       -0.98434594       0.91759339      -1.70715824
H       -1.30701218       1.75374785      -0.18920683
H       -2.42763625       0.51910625      -0.77240438
H       -0.64785713      -1.23257455      -0.46696915
H       -1.15013370       0.40467815       2.06504294
H       -0.63040115      -1.28812655       2.00717179
H       -2.22516563      -0.81953670       1.40414276
H        2.72448094      -1.06016834      -0.11417901
H        2.07520244      -0.58477362      -1.68165799
H        3.20041565       0.47372318      -0.82025790
16
Frame=13 idx=000677 GeodesicLength=0.7481224764541891 rxn_smarts="[C:1]([C:2]([C:3]([H:11])([H:12])[H:13])([C:4](=[O:5])[C:6]([H:14])([H:15])[H:16])[H:10])([H:7])([H:8])[H:9]>>[C:1]([C:2]([C:3]([H:11])([H:12])[H:13])([C-:4]=[O+:5][C:6]([H:14])([H:15])[H:16])[H:10])([H:7])([H:8])[H:9]"
C       -1.39935253       0.79483091      -0.68992459
C       -0.60606860      -0.26551071       0.06301804
C       -1.16391037      -0.51296553       1.46898591
C        0.85650299       0.05090943       0.25470756
O        1.28485078       1.11958888      -0.23506059
C        2.37505650      -0.22454111      -0.68384874
H       -1.03041140       0.92590298      -1.70838273
H       -1.33165206       1.75973300      -0.18460731
H       -2.45356842       0.51661989      -0.74856697
H       -0.64659545      -1.21864275      -0.47912233
H       -1.13960968       0.40177281       2.06602164
H       -0.59833809      -1.28403295       1.99457776
H       -2.20607472      -0.83330370       1.41339647
H        2.67987653      -1.09227947      -0.10012318
H        2.14137665      -0.57719097      -1.69144012
H        3.23791785       0.43910929      -0.73963083
16
Frame=14 idx=000677 GeodesicLength=0.803313875082661 rxn_smarts="[C:1]([C:2]([C:3]([H:11])([H:12])[H:13])([C:4](=[O:5])[C:6]([H:14])([H:15])[H:16])[H:10])([H:7])([H:8])[H:9]>>[C:1]([C:2]([C:3]([H:11])([H:12])[H:13])([C-:4]=[O+:5][C:6]([H:14])([H:15])[H:16])[H:10])([H:7])([H:8])[H:9]"
C       -1.42614204       0.80107096      -0.68395463
C       -0.61144762      -0.25368243       0.05363620
C       -1.14716548      -0.51356110       1.46585744
C        0.84870454       0.08031257       0.22511134
O        1.27076789       1.12366486      -0.31433015
C        2.38662408      -0.23550520      -0.67219359
H       -1.07762393       0.93398559      -1.70920045
H       -1.35397490       1.76625815      -0.17967202
H       -2.47943051       0.51601350      -0.72284072
H       -0.64723118      -1.20488358      -0.49248823
H       -1.12652785       0.39880481       2.06661513
H       -0.56561571      -1.28024567       1.98036643
H       -2.18616541      -0.84597654       1.42285688
H        2.63563916      -1.12108672      -0.08724142
H        2.21293438      -0.57224172      -1.69701271
H        3.26665459       0.40707252      -0.65550948
16
Frame=15 idx=000677 GeodesicLength=0.8582286173504899 rxn_smarts="[C:1]([C:2]([C:3]([H:11])([H:12])[H:13])([C:4](=[O:5])[C:6]([H:14])([H:15])[H:16])[H:10])([H:7])([H:8])[H:9]>>[C:1]([C:2]([C:3]([H:11])([H:12])[H:13])([C-:4]=[O+:5][C:6]([H:14])([H:15])[H:16])[H:10])([H:7])([H:8])[H:9]"
C       -1.45248562       0.80782314      -0.67737170
C       -0.61733757      -0.24239641       0.04344216
C       -1.12954338      -0.51411589       1.46203279
C        0.84047230       0.10775127       0.19315236
O        1.25613253       1.12219809      -0.39704425
C        2.39779499      -0.24601156      -0.65984765
H       -1.12569414       0.94187497      -1.70945634
H       -1.37357012       1.77326983      -0.17447139
H       -2.50489285       0.51750097      -0.69514762
H       -0.64995055      -1.19138771      -0.50696854
H       -1.11079265       0.39568150       2.06669616
H       -0.53246042      -1.27688641       1.96447164
H       -2.16548538      -0.85745324       1.43249943
H        2.59215429      -1.14656325      -0.07552492
H        2.28948514      -0.56955861      -1.69763732
H        3.28617342       0.37827331      -0.56882480
16
Frame=16 idx=000677 GeodesicLength=0.9128193036823004 rxn_smarts="[C:1]([C:2]([C:3]([H:11])([H:12])[H:13])([C:4](=[O:5])[C:6]([H:14])([H:15])[H:16])[H:10])([H:7])([H:8])[H:9]>>[C:1]([C:2]([C:3]([H:11])([H:12])[H:13])([C-:4]=[O+:5][C:6]([H:14])([H:15])[H:16])[H:10])([H:7])([H:8])[H:9]"
C       -1.47811042       0.81505982      -0.67017223
C       -0.62376383      -0.23183392       0.03251155
C       -1.11116273      -0.51465789       1.45753656
C        0.83176894       0.13285014       0.15887603
O        1.24083172       1.11449557      -0.48293489
C        2.40853097      -0.25582179      -0.64683892
H       -1.17426742       0.94953235      -1.70904767
H       -1.39005303       1.78072374      -0.16914033
H       -2.52964460       0.52122691      -0.66550221
H       -0.65493208      -1.17836909      -0.52238864
H       -1.09235312       0.39241627       2.06619058
H       -0.49917419      -1.27406177       1.94695871
H       -2.14418928      -0.86758082       1.44235882
H        2.54973221      -1.16894466      -0.06530340
H        2.37053988      -0.56836080      -1.69273384
H        3.29624698       0.35332592      -0.48037010
