15
Frame=0 idx=006396 GeodesicLength=0.0 rxn_smarts="[C:1]([O:2][C:3]([C:4](=[O:5])[O:6][C:7]([H:13])([H:14])[H:15])([H:11])[H:12])([H:8])([H:9])[H:10]>>[C:1]([O:2]/[C:3](=[C:4](\[O:5][H:12])[O:6][C:7]([H:13])([H:14])[H:15])[H:11])([H:8])([H:9])[H:10]"
C       -2.42434390       0.55869489      -0.17103929
O       -1.92177897      -0.75073852      -0.03778809
C       -0.75907027      -0.82699551       0.75226009
C        0.46285989      -0.46046353       0.07736668
O        0.76092329      -1.33922937      -0.80595541
O        1.27401077       0.50623426       0.38675331
C        2.58759407       0.48251508      -0.19536859
H       -3.36868226       0.49291600      -0.71237824
H       -1.73584817       1.20132230      -0.73502648
H       -2.60244097       1.01563738       0.81046514
H       -0.89698457      -0.44120089       1.76383132
H       -0.09304057      -1.89658956      -0.14397923
H        3.00034641      -0.52403786      -0.14478538
H        2.53435413       0.80378451      -1.23413245
H        3.18210111       1.17815077       0.38977662
15
Frame=1 idx=006396 GeodesicLength=0.05670334956779131 rxn_smarts="[C:1]([O:2][C:3]([C:4](=[O:5])[O:6][C:7]([H:13])([H:14])[H:15])([H:11])[H:12])([H:8])([H:9])[H:10]>>[C:1]([O:2]/[C:3](=[C:4](\[O:5][H:12])[O:6][C:7]([H:13])([H:14])[H:15])[H:11])([H:8])([H:9])[H:10]"
C       -2.44894389       0.54623177      -0.16638555
O       -1.92358201      -0.75360884      -0.02609285
C       -0.74828365      -0.80558849       0.74415189
C        0.45833425      -0.42863126       0.04934852
O        0.75030843      -1.30744519      -0.83568554
O        1.29056290       0.51274992       0.38729451
C        2.60805431       0.46891947      -0.18267962
H       -3.40111681       0.45843734      -0.69039676
H       -1.77905887       1.18969030      -0.75108738
H       -2.61698037       1.01276068       0.81230421
H       -0.87650761      -0.41298586       1.75431388
H       -0.09736044      -1.88279344      -0.15296238
H        3.00675288      -0.54312008      -0.12551084
H        2.57023497       0.78826640      -1.22284082
H        3.20758590       1.15711729       0.40622874
15
Frame=2 idx=006396 GeodesicLength=0.11270019711354991 rxn_smarts="[C:1]([O:2][C:3]([C:4](=[O:5])[O:6][C:7]([H:13])([H:14])[H:15])([H:11])[H:12])([H:8])([H:9])[H:10]>>[C:1]([O:2]/[C:3](=[C:4](\[O:5][H:12])[O:6][C:7]([H:13])([H:14])[H:15])[H:11])([H:8])([H:9])[H:10]"
C       -2.47240791       0.53359723      -0.16166876
O       -1.92432402      -0.75621879      -0.01478416
C       -0.73742649      -0.78403582       0.73570174
C        0.45407053      -0.39619205       0.02239893
O        0.73955718      -1.27415865      -0.86539742
O        1.30633131       0.51945128       0.38754991
C        2.62731017       0.45502183      -0.17015690
H       -3.43167758       0.42388946      -0.66809294
H       -1.82134339       1.17731376      -0.76663720
H       -2.63080765       1.00983111       0.81386731
H       -0.85678022      -0.38515720       1.74443021
H       -0.10077875      -1.86857124      -0.16169550
H        3.01150963      -0.56239232      -0.10628998
H        2.60484778       0.77194211      -1.21163130
H        3.23191942       1.13567930       0.42240604
15
Frame=3 idx=006396 GeodesicLength=0.16784807519594153 rxn_smarts="[C:1]([O:2][C:3]([C:4](=[O:5])[O:6][C:7]([H:13])([H:14])[H:15])([H:11])[H:12])([H:8])([H:9])[H:10]>>[C:1]([O:2]/[C:3](=[C:4](\[O:5][H:12])[O:6][C:7]([H:13])([H:14])[H:15])[H:11])([H:8])([H:9])[H:10]"
C       -2.49408799       0.52120103      -0.15716278
O       -1.92403430      -0.75846815      -0.00416880
C       -0.72686875      -0.76297391       0.72724507
C        0.45024432      -0.36416544      -0.00254769
O        0.72893832      -1.24035449      -0.89412969
O        1.32131273       0.52564503       0.38843163
C        2.64489170       0.44129575      -0.15818669
H       -3.45946503       0.39027727      -0.64644066
H       -1.86135357       1.16455476      -0.78132434
H       -2.64368142       1.00699261       0.81497031
H       -0.83840014      -0.35843728       1.73456696
H       -0.10372604      -1.85465580      -0.16986857
H        3.01498659      -0.58111634      -0.08816531
H        2.63654104       0.75562334      -1.20078126
H        3.25470255       1.11458163       0.43756183
15
Frame=4 idx=006396 GeodesicLength=0.22214474582840216 rxn_smarts="[C:1]([O:2][C:3]([C:4](=[O:5])[O:6][C:7]([H:13])([H:14])[H:15])([H:11])[H:12])([H:8])([H:9])[H:10]>>[C:1]([O:2]/[C:3](=[C:4](\[O:5][H:12])[O:6][C:7]([H:13])([H:14])[H:15])[H:11])([H:8])([H:9])[H:10]"
C       -2.51371973       0.50929498      -0.15303397
O       -1.92283446      -0.76032606       0.00562844
C       -0.71682119      -0.74279119       0.71900014
C        0.44690932      -0.33314132      -0.02507770
O        0.71861135      -1.20668198      -0.92132619
O        1.33552927       0.53087529       0.39045419
C        2.66064316       0.42803068      -0.14696987
H       -3.48416965       0.35818558      -0.62594835
H       -1.89844729       1.15164967      -0.79508289
H       -2.65544465       1.00437881       0.81550059
H       -0.82162230      -0.33324620       1.72497973
H       -0.10651989      -1.84151256      -0.17728493
H        3.01756579      -0.59886375      -0.07170268
H        2.66453964       0.73988414      -1.19046349
H        3.27578062       1.09426391       0.45132697
15
Frame=5 idx=006396 GeodesicLength=0.2759769189271699 rxn_smarts="[C:1]([O:2][C:3]([C:4](=[O:5])[O:6][C:7]([H:13])([H:14])[H:15])([H:11])[H:12])([H:8])([H:9])[H:10]>>[C:1]([O:2]/[C:3](=[C:4](\[O:5][H:12])[O:6][C:7]([H:13])([H:14])[H:15])[H:11])([H:8])([H:9])[H:10]"
C       -2.53211816       0.49748394      -0.14902207
O       -1.92082767      -0.76190206       0.01487368
C       -0.70695743      -0.72288240       0.71070286
C        0.44388024      -0.30213435      -0.04620408
O        0.70838489      -1.17230545      -0.94782875
O        1.34909295       0.53596472       0.39265407
C        2.67520200       0.41478068      -0.13614079
H       -3.50688764       0.32662790      -0.60582653
H       -1.93401563       1.13842026      -0.80816032
H       -2.66663297       1.00169388       0.81574574
H       -0.80576947      -0.30881793       1.71540083
H       -0.10886294      -1.82847773      -0.18433077
H        3.01906209      -0.61635961      -0.05577133
H        2.69068875       0.72387341      -1.18047047
H        3.29576100       1.07403474       0.46437794
15
Frame=6 idx=006396 GeodesicLength=0.32931748331984995 rxn_smarts="[C:1]([O:2][C:3]([C:4](=[O:5])[O:6][C:7]([H:13])([H:14])[H:15])([H:11])[H:12])([H:8])([H:9])[H:10]>>[C:1]([O:2]/[C:3](=[C:4](\[O:5][H:12])[O:6][C:7]([H:13])([H:14])[H:15])[H:11])([H:8])([H:9])[H:10]"
C       -2.54904052       0.48600147      -0.14527079
O       -1.91812591      -0.76316356       0.02343682
C       -0.69747461      -0.70358670       0.70254222
C        0.44120914      -0.27169554      -0.06555982
O        0.69841417      -1.13785392      -0.97313442
O        1.36202320       0.54048515       0.39549281
C        2.68842696       0.40181389      -0.12589390
H       -3.52730849       0.29614771      -0.58659826
H       -1.96744459       1.12512943      -0.82042753
H       -2.67715470       0.99902339       0.81563716
H       -0.79109063      -0.28551541       1.70605178
H       -0.11104088      -1.81600185      -0.19077685
H        3.01982746      -0.63320853      -0.04089575
H        2.71428025       0.70810214      -1.17096751
H        3.31449915       1.05432233       0.47636404
15
Frame=7 idx=006396 GeodesicLength=0.3821444071363393 rxn_smarts="[C:1]([O:2][C:3]([C:4](=[O:5])[O:6][C:7]([H:13])([H:14])[H:15])([H:11])[H:12])([H:8])([H:9])[H:10]>>[C:1]([O:2]/[C:3](=[C:4](\[O:5][H:12])[O:6][C:7]([H:13])([H:14])[H:15])[H:11])([H:8])([H:9])[H:10]"
C       -2.56435693       0.47504703      -0.14188943
O       -1.91487049      -0.76409298       0.03124294
C       -0.68851249      -0.68517588       0.69465474
C        0.43891376      -0.24227813      -0.08295724
O        0.68882699      -1.10389762      -0.99687887
O        1.37432161       0.54406363       0.39928890
C        2.70026481       0.38935256      -0.11635448
H       -3.54533427       0.26718754      -0.56859940
H       -1.99833624       1.11199809      -0.83186760
H       -2.68690355       0.99647777       0.81513161
H       -0.77771357      -0.26362750       1.69709175
H       -0.11330517      -1.80447024      -0.19642670
H        3.02024450      -0.64910832      -0.02742860
H        2.73486947       0.69302078      -1.16206532
H        3.33189158       1.03550325       0.48705769
15
Frame=8 idx=006396 GeodesicLength=0.43465672863855354 rxn_smarts="[C:1]([O:2][C:3]([C:4](=[O:5])[O:6][C:7]([H:13])([H:14])[H:15])([H:11])[H:12])([H:8])([H:9])[H:10]>>[C:1]([O:2]/[C:3](=[C:4](\[O:5][H:12])[O:6][C:7]([H:13])([H:14])[H:15])[H:11])([H:8])([H:9])[H:10]"
C       -2.57852140       0.46437578      -0.13873405
O       -1.91110589      -0.76475994       0.03846670
C       -0.67987250      -0.66728423       0.68689481
C        0.43689068      -0.21329915      -0.09895669
O        0.67947964      -1.06989626      -1.01958113
O        1.38607004       0.54717265       0.40352112
C        2.71106463       0.37713046      -0.10731015
H       -3.56156608       0.23914578      -0.55138396
H       -2.02748431       1.09888876      -0.84264519
H       -2.69617038       0.99389591       0.81437324
H       -0.76525203      -0.24268631       1.68836473
H       -0.11546556      -1.79348541      -0.20148741
H        3.02016307      -0.66448741      -0.01477390
H        2.75347580       0.67816233      -1.15362011
H        3.34829427       1.01712703       0.49687198
15
Frame=9 idx=006396 GeodesicLength=0.48700394067435865 rxn_smarts="[C:1]([O:2][C:3]([C:4](=[O:5])[O:6][C:7]([H:13])([H:14])[H:15])([H:11])[H:12])([H:8])([H:9])[H:10]>>[C:1]([O:2]/[C:3](=[C:4](\[O:5][H:12])[O:6][C:7]([H:13])([H:14])[H:15])[H:11])([H:8])([H:9])[H:10]"
C       -2.59189667       0.45374901      -0.13567482
O       -1.90682706      -0.76522852       0.04525961
C       -0.67136131      -0.64957516       0.67911207
C        0.43504867      -0.18418615      -0.11402936
O        0.67023339      -1.03525812      -1.04172218
O        1.39734275       0.55027968       0.40774422
C        2.72108438       0.36488786      -0.09855412
H       -3.57649484       0.21143810      -0.53445627
H       -2.05561379       1.08558647      -0.85296732
H       -2.70511510       0.99118530       0.81345223
H       -0.75336683      -0.22229467       1.67971598
H       -0.11730700      -1.78263795      -0.20620598
H        3.01932116      -0.67974354      -0.00237377
H        2.77094929       0.66305318      -1.14547968
H        3.36400295       0.99874451       0.50617939
15
Frame=10 idx=006396 GeodesicLength=0.5391172743906081 rxn_smarts="[C:1]([O:2][C:3]([C:4](=[O:5])[O:6][C:7]([H:13])([H:14])[H:15])([H:11])[H:12])([H:8])([H:9])[H:10]>>[C:1]([O:2]/[C:3](=[C:4](\[O:5][H:12])[O:6][C:7]([H:13])([H:14])[H:15])[H:11])([H:8])([H:9])[H:10]"
C       -2.60427187       0.44339233      -0.13283100
O       -1.90213617      -0.76546515       0.05150743
C       -0.66313950      -0.63235205       0.67145657
C        0.43343371      -0.15545870      -0.12788301
O        0.66123205      -1.00059413      -1.06287971
O        1.40811691       0.55297189       0.41232199
C        2.73019793       0.35286925      -0.09025282
H       -3.58987068       0.18458288      -0.51827724
H       -2.08218098       1.07236655      -0.86270672
H       -2.71365058       0.98841891       0.81233030
H       -0.74225759      -0.20278218       1.67131306
H       -0.11907716      -1.77235863      -0.21032873
H        3.01807655      -0.69452071       0.00934722
H        2.78669047       0.64814033      -1.13778390
H        3.37883691       0.98078940       0.51466656
15
Frame=11 idx=006396 GeodesicLength=0.5909629840617561 rxn_smarts="[C:1]([O:2][C:3]([C:4](=[O:5])[O:6][C:7]([H:13])([H:14])[H:15])([H:11])[H:12])([H:8])([H:9])[H:10]>>[C:1]([O:2]/[C:3](=[C:4](\[O:5][H:12])[O:6][C:7]([H:13])([H:14])[H:15])[H:11])([H:8])([H:9])[H:10]"
C       -2.61551810       0.43349952      -0.13031664
O       -1.89717388      -0.76546251       0.05716090
C       -0.65534142      -0.61587368       0.66406943
C        0.43206173      -0.12756085      -0.14030982
O        0.65256318      -0.96643862      -1.08272937
O        1.41839333       0.55483736       0.41758373
C        2.73836342       0.34128964      -0.08253130
H       -3.60160846       0.15899186      -0.50318265
H       -2.10679831       1.05944048      -0.87187912
H       -2.72165850       0.98573145       0.81095425
H       -0.73206405      -0.18442223       1.66330676
H       -0.12101707      -1.76302588      -0.21361351
H        3.01683174      -0.70853860       0.01997977
H        2.80026242       0.63391125      -1.13062183
H        3.39270397       0.96362082       0.52212941
15
Frame=12 idx=006396 GeodesicLength=0.6426391221155313 rxn_smarts="[C:1]([O:2][C:3]([C:4](=[O:5])[O:6][C:7]([H:13])([H:14])[H:15])([H:11])[H:12])([H:8])([H:9])[H:10]>>[C:1]([O:2]/[C:3](=[C:4](\[O:5][H:12])[O:6][C:7]([H:13])([H:14])[H:15])[H:11])([H:8])([H:9])[H:10]"
C       -2.62589768       0.42389945      -0.12802106
O       -1.89192919      -0.76525229       0.06231701
C       -0.64783150      -0.59988987       0.65682692
C        0.43087724      -0.10010363      -0.15166432
O        0.64412802      -0.93239821      -1.10164201
O        1.42822101       0.55622992       0.42317658
C        2.74576885       0.32996552      -0.07524373
H       -3.61202587       0.13427565      -0.48885636
H       -2.12996611       1.04668232      -0.88053425
H       -2.72932575       0.98299181       0.80940754
H       -0.72255130      -0.16689802       1.65556068
H       -0.12297427      -1.75435995      -0.21621931
H        3.01540369      -0.72208363       0.02996291
H        2.81229403       0.61999563      -1.12390167
H        3.40580881       0.94694530       0.52883106
15
Frame=13 idx=006396 GeodesicLength=0.6942402354863005 rxn_smarts="[C:1]([O:2][C:3]([C:4](=[O:5])[O:6][C:7]([H:13])([H:14])[H:15])([H:11])[H:12])([H:8])([H:9])[H:10]>>[C:1]([O:2]/[C:3](=[C:4](\[O:5][H:12])[O:6][C:7]([H:13])([H:14])[H:15])[H:11])([H:8])([H:9])[H:10]"
C       -2.63567349       0.41439918      -0.12589485
O       -1.88641729      -0.76489890       0.06711425
C       -0.64048262      -0.58416214       0.64967532
C        0.42982190      -0.07263920      -0.16216122
O        0.63579265      -0.89790971      -1.11997593
O        1.43769405       0.55745202       0.42891274
C        2.75260965       0.31869690      -0.06825335
H       -3.62153849       0.10995335      -0.47491040
H       -2.15217678       1.03380902      -0.88899282
H       -2.73671090       0.98025042       0.80770597
H       -0.71352899      -0.14993906       1.64803532
H       -0.12476339      -1.74602309      -0.21833838
H        3.01363307      -0.73545969       0.03950567
H        2.82330936       0.60612226      -1.11747895
H        3.41843127       0.93034864       0.53505662
15
Frame=14 idx=006396 GeodesicLength=0.7457980332912459 rxn_smarts="[C:1]([O:2][C:3]([C:4](=[O:5])[O:6][C:7]([H:13])([H:14])[H:15])([H:11])[H:12])([H:8])([H:9])[H:10]>>[C:1]([O:2]/[C:3](=[C:4](\[O:5][H:12])[O:6][C:7]([H:13])([H:14])[H:15])[H:11])([H:8])([H:9])[H:10]"
C       -2.64489211       0.40483245      -0.12388037
O       -1.88047103      -0.76443780       0.07165404
C       -0.63312602      -0.56849903       0.64251299
C        0.42887608      -0.04477571      -0.17197185
O        0.62743447      -0.86243602      -1.13792976
O        1.44680951       0.55880938       0.43454926
C        2.75883285       0.30731030      -0.06144393
H       -3.63012389       0.08568536      -0.46096890
H       -2.17382492       1.02056872      -0.89734067
H       -2.74372671       0.97747442       0.80571402
H       -0.70478032      -0.13335752       1.64060319
H       -0.12619701      -1.73772428      -0.22016299
H        3.01102427      -0.74888930       0.04894532
H        2.83358637       0.59200995      -1.11125349
H        3.43057846       0.91342907       0.54097314
15
Frame=15 idx=006396 GeodesicLength=0.7971742495997453 rxn_smarts="[C:1]([O:2][C:3]([C:4](=[O:5])[O:6][C:7]([H:13])([H:14])[H:15])([H:11])[H:12])([H:8])([H:9])[H:10]>>[C:1]([O:2]/[C:3](=[C:4](\[O:5][H:12])[O:6][C:7]([H:13])([H:14])[H:15])[H:11])([H:8])([H:9])[H:10]"
C       -2.65314160       0.39579336      -0.12216931
O       -1.87440568      -0.76375040       0.07557752
C       -0.62619194      -0.55358015       0.63559996
C        0.42810458      -0.01787982      -0.18063236
O        0.61945203      -0.82782330      -1.15456865
O        1.45544732       0.55928668       0.44067950
C        2.76429276       0.29641378      -0.05522067
H       -3.63729351       0.06276479      -0.44839199
H       -2.19356029       1.00809069      -0.90492953
H       -2.75049811       0.97451001       0.80369364
H       -0.69680217      -0.11784689       1.63350495
H       -0.12796091      -1.73058136      -0.22084183
H        3.00873817      -0.76152086       0.05748462
H        2.84201638       0.57859212      -1.10560809
H        3.44180295       0.89753136       0.54582225
15
Frame=16 idx=006396 GeodesicLength=0.8484181251944003 rxn_smarts="[C:1]([O:2][C:3]([C:4](=[O:5])[O:6][C:7]([H:13])([H:14])[H:15])([H:11])[H:12])([H:8])([H:9])[H:10]>>[C:1]([O:2]/[C:3](=[C:4](\[O:5][H:12])[O:6][C:7]([H:13])([H:14])[H:15])[H:11])([H:8])([H:9])[H:10]"
C       -2.66072587       0.38711694      -0.12069763
O       -1.86825234      -0.76289520       0.07902234
C       -0.61953876      -0.53920027       0.62886545
C        0.42748757       0.00844568      -0.18837214
O        0.61173746      -0.79356817      -1.17030578
O        1.46369062       0.55922961       0.44710154
C        2.76918766       0.28583326      -0.04942393
H       -3.64350366       0.04078851      -0.43672769
H       -2.21196789       0.99601177      -0.91208080
H       -2.75705367       0.97150473       0.80162520
H       -0.68936967      -0.10317857       1.62672858
H       -0.12984280      -1.72432801      -0.22065188
H        3.00661772      -0.77364623       0.06539536
H        2.84913108       0.56560555      -1.10041034
H        3.45240254       0.88228039       0.54993170
