14
Frame=0 idx=009396 GeodesicLength=0.0 rxn_smarts="[O:1]([C@@:2]1([H:9])[C:3]([H:10])([H:11])[O:4][C:5]([H:12])=[N:6][C:7]1([H:13])[H:14])[H:8]>>[O:1]([C@:5]1([H:12])[O:4][C:3]([H:10])([H:11])[C@:2]2([H:9])[N:6]1[C:7]2([H:13])[H:14])[H:8]"
O        0.23633807      -0.72330830       1.56552350
C       -1.05744630       0.19309396      -0.22088608
C       -0.27121823       1.44794301      -0.10206739
O        0.90887762       1.19850899       0.67628362
C        1.17072937      -0.18089306       0.59386585
N        1.00373618      -0.72070791      -0.67929886
C       -0.39932469      -0.83594930      -0.98716459
H        0.31788771      -1.68151014       1.52373917
H       -1.96754606       0.04549505       0.35026893
H        0.04269164       1.73916115      -1.11550848
H       -0.82303604       2.25431192       0.37708848
H        2.19172581      -0.33618127       0.95152883
H       -0.48941135      -0.57541718      -2.05585626
H       -0.86400374      -1.82454689      -0.87751678
14
Frame=1 idx=009396 GeodesicLength=0.102004705938104 rxn_smarts="[O:1]([C@@:2]1([H:9])[C:3]([H:10])([H:11])[O:4][C:5]([H:12])=[N:6][C:7]1([H:13])[H:14])[H:8]>>[O:1]([C@:5]1([H:12])[O:4][C:3]([H:10])([H:11])[C@:2]2([H:9])[N:6]1[C:7]2([H:13])[H:14])[H:8]"
O        0.21949953      -0.70182424       1.58279327
C       -1.04293102       0.17614489      -0.20141748
C       -0.27031426       1.44192617      -0.09961463
O        0.93178801       1.20131696       0.64527752
C        1.18430977      -0.17879075       0.59182570
N        0.99245274      -0.74525623      -0.66152553
C       -0.40194381      -0.83977813      -1.00067517
H        0.30007783      -1.66003927       1.54768482
H       -1.97217911       0.03706571       0.33921816
H        0.01529596       1.74845082      -1.11620530
H       -0.81974165       2.23651977       0.40187152
H        2.20738321      -0.33481230       0.94193038
H       -0.47222921      -0.55388361      -2.06311876
H       -0.87146800      -1.82703978      -0.90804450
14
Frame=2 idx=009396 GeodesicLength=0.2039784824763468 rxn_smarts="[O:1]([C@@:2]1([H:9])[C:3]([H:10])([H:11])[O:4][C:5]([H:12])=[N:6][C:7]1([H:13])[H:14])[H:8]>>[O:1]([C@:5]1([H:12])[O:4][C:3]([H:10])([H:11])[C@:2]2([H:9])[N:6]1[C:7]2([H:13])[H:14])[H:8]"
O        0.20260595      -0.67951763       1.60050817
C       -1.02862215       0.15898741      -0.18267562
C       -0.26972128       1.43548470      -0.09686410
O        0.95361844       1.20302224       0.61339801
C        1.19789120      -0.17698629       0.58941657
N        0.98008391      -0.77064275      -0.64245275
C       -0.40453225      -0.84315422      -1.01417691
H        0.28282510      -1.63765087       1.57233165
H       -1.97610347       0.02880259       0.32682084
H       -0.01314864       1.75786872      -1.11559285
H       -0.81549244       2.21812752       0.42731298
H        2.22346005      -0.33314083       0.93081794
H       -0.45329789      -0.53270440      -2.06968824
H       -0.87956653      -1.82849618      -0.93915569
14
Frame=3 idx=009396 GeodesicLength=0.30591675188846784 rxn_smarts="[O:1]([C@@:2]1([H:9])[C:3]([H:10])([H:11])[O:4][C:5]([H:12])=[N:6][C:7]1([H:13])[H:14])[H:8]>>[O:1]([C@:5]1([H:12])[O:4][C:3]([H:10])([H:11])[C@:2]2([H:9])[N:6]1[C:7]2([H:13])[H:14])[H:8]"
O        0.18554379      -0.65635477       1.61861978
C       -1.01460707       0.14164300      -0.16469778
C       -0.26945256       1.42864039      -0.09382474
O        0.97427490       1.20358718       0.58069216
C        1.21141005      -0.17550821       0.58657565
N        0.96654977      -0.79678482      -0.62201893
C       -0.40699499      -0.84605258      -1.02766706
H        0.26611662      -1.61429987       1.59771286
H       -1.97922241       0.02062570       0.31333830
H       -0.04259072       1.76740822      -1.11359400
H       -0.81028335       2.19919251       0.45329031
H        2.23988785      -0.33127171       0.91801506
H       -0.43246704      -0.51195829      -2.07553465
H       -0.88816484      -1.82886674      -0.97090696
14
Frame=4 idx=009396 GeodesicLength=0.4078090763922102 rxn_smarts="[O:1]([C@@:2]1([H:9])[C:3]([H:10])([H:11])[O:4][C:5]([H:12])=[N:6][C:7]1([H:13])[H:14])[H:8]>>[O:1]([C@:5]1([H:12])[O:4][C:3]([H:10])([H:11])[C@:2]2([H:9])[N:6]1[C:7]2([H:13])[H:14])[H:8]"
O        0.16818942      -0.63231816       1.63705729
C       -1.00096827       0.12414830      -0.14751321
C       -0.26951146       1.42142534      -0.09050555
O        0.99365710       1.20298021       0.54725404
C        1.22480141      -0.17438603       0.58323422
N        0.95178303      -0.82354702      -0.60019054
C       -0.40922355      -0.84845079      -1.04112380
H        0.24994163      -1.58995145       1.62382753
H       -1.98148557       0.01244523       0.29902351
H       -0.07293024       1.77705625      -1.11013406
H       -0.80412528       2.17978962       0.47965674
H        2.25658674      -0.32933515       0.90332517
H       -0.40963344      -0.49174408      -2.08060592
H       -0.89708152      -1.82811226      -1.00330542
14
Frame=5 idx=009396 GeodesicLength=0.5096872226558863 rxn_smarts="[O:1]([C@@:2]1([H:9])[C:3]([H:10])([H:11])[O:4][C:5]([H:12])=[N:6][C:7]1([H:13])[H:14])[H:8]>>[O:1]([C@:5]1([H:12])[O:4][C:3]([H:10])([H:11])[C@:2]2([H:9])[N:6]1[C:7]2([H:13])[H:14])[H:8]"
O        0.15041878      -0.60738795       1.65573990
C       -0.98777459       0.10652497      -0.13112680
C       -0.26990584       1.41385916      -0.08691128
O        1.01167129       1.20115469       0.51315933
C        1.23799936      -0.17366547       0.57930924
N        0.93570687      -0.85079011      -0.57694225
C       -0.41109895      -0.85032589      -1.05451420
H        0.23429269      -1.56455493       1.65067406
H       -1.98288556       0.00421058       0.28411692
H       -0.10408728       1.78677486      -1.10515050
H       -0.79702048       2.15997648       0.50628713
H        2.27345662      -0.32745287       0.88654350
H       -0.38467032      -0.47213352      -2.08482654
H       -0.90610258      -1.82619001      -1.03635850
14
Frame=6 idx=009396 GeodesicLength=0.6115472924004558 rxn_smarts="[O:1]([C@@:2]1([H:9])[C:3]([H:10])([H:11])[O:4][C:5]([H:12])=[N:6][C:7]1([H:13])[H:14])[H:8]>>[O:1]([C@:5]1([H:12])[O:4][C:3]([H:10])([H:11])[C@:2]2([H:9])[N:6]1[C:7]2([H:13])[H:14])[H:8]"
O        0.13208896      -0.58160599       1.67455503
C       -0.97510400       0.08884148      -0.11553830
C       -0.27062041       1.40600695      -0.08303934
O        1.02822042       1.19811820       0.47863507
C        1.25095412      -0.17337597       0.57473235
N        0.91831854      -0.87826088      -0.55232849
C       -0.41249904      -0.85168469      -1.06776787
H        0.21917532      -1.53812630       1.67815937
H       -1.98349341      -0.00414039       0.26878426
H       -0.13585463       1.79653972      -1.09858067
H       -0.78902740       2.13989378       0.53299813
H        2.29042195      -0.32579567       0.86744146
H       -0.35762019      -0.45328248      -2.08810511
H       -0.91496022      -1.82312777      -1.06994586
14
Frame=7 idx=009396 GeodesicLength=0.7133744516960051 rxn_smarts="[O:1]([C@@:2]1([H:9])[C:3]([H:10])([H:11])[O:4][C:5]([H:12])=[N:6][C:7]1([H:13])[H:14])[H:8]>>[O:1]([C@:5]1([H:12])[O:4][C:3]([H:10])([H:11])[C@:2]2([H:9])[N:6]1[C:7]2([H:13])[H:14])[H:8]"
O        0.11305287      -0.55509609       1.69336144
C       -0.96301704       0.07117178      -0.10071750
C       -0.27163279       1.39793152      -0.07889951
O        1.04318943       1.19389015       0.44399127
C        1.26361037      -0.17354849       0.56943361
N        0.89964704      -0.90563079      -0.52647122
C       -0.41330957      -0.85253674      -1.08078166
H        0.20462919      -1.51074436       1.70611553
H       -1.98339303      -0.01259632       0.25317787
H       -0.16795161       1.80628672      -1.09040607
H       -0.78023202       2.11969974       0.55955089
H        2.30736680      -0.32451080       0.84582721
H       -0.32862544      -0.43533347      -2.09033351
H       -0.92333421      -1.81898285      -1.10384835
14
Frame=8 idx=009396 GeodesicLength=0.8151860044876287 rxn_smarts="[O:1]([C@@:2]1([H:9])[C:3]([H:10])([H:11])[O:4][C:5]([H:12])=[N:6][C:7]1([H:13])[H:14])[H:8]>>[O:1]([C@:5]1([H:12])[O:4][C:3]([H:10])([H:11])[C@:2]2([H:9])[N:6]1[C:7]2([H:13])[H:14])[H:8]"
O        0.09315883      -0.52800036       1.71202256
C       -0.95156195       0.05359402      -0.08661290
C       -0.27291389       1.38970201      -0.07449623
O        1.05650596       1.18852742       0.40956517
C        1.27593129      -0.17421047       0.56335595
N        0.87977434      -0.93255623      -0.49953605
C       -0.41342897      -0.85291154      -1.09343746
H        0.19067928      -1.48250149       1.73434862
H       -1.98269625      -0.02112382       0.23738694
H       -0.20008496       1.81595319      -1.08063895
H       -0.77074475       2.09955296       0.58573852
H        2.32418154      -0.32374585       0.82152080
H       -0.29789947      -0.41841974      -2.09141000
H       -0.93090097      -1.81386011      -1.13780698
14
Frame=9 idx=009396 GeodesicLength=0.9169944115117679 rxn_smarts="[O:1]([C@@:2]1([H:9])[C:3]([H:10])([H:11])[O:4][C:5]([H:12])=[N:6][C:7]1([H:13])[H:14])[H:8]>>[O:1]([C@:5]1([H:12])[O:4][C:3]([H:10])([H:11])[C@:2]2([H:9])[N:6]1[C:7]2([H:13])[H:14])[H:8]"
O        0.07224783      -0.50051924       1.73039944
C       -0.94076984       0.03619724      -0.07315557
C       -0.27442290       1.38139517      -0.06983644
O        1.06812612       1.18213091       0.37575784
C        1.28789455      -0.17537661       0.55646242
N        0.85884965      -0.95865553      -0.47175307
C       -0.41277955      -0.85285769      -1.10559999
H        0.17735236      -1.45353974       1.76261045
H       -1.98151641      -0.02965092       0.22145345
H       -0.23191121       1.82547235      -1.06933439
H       -0.76071123       2.07962511       0.61134742
H        2.34075014      -0.32363236       0.79438265
H       -0.26577358      -0.40266774      -2.09125241
H       -0.93733595      -1.80792092      -1.17148179
14
Frame=10 idx=009396 GeodesicLength=1.0187785892034609 rxn_smarts="[O:1]([C@@:2]1([H:9])[C:3]([H:10])([H:11])[O:4][C:5]([H:12])=[N:6][C:7]1([H:13])[H:14])[H:8]>>[O:1]([C@:5]1([H:12])[O:4][C:3]([H:10])([H:11])[C@:2]2([H:9])[N:6]1[C:7]2([H:13])[H:14])[H:8]"
O        0.05014935      -0.47292481       1.74835345
C       -0.93065193       0.01908339      -0.06026740
C       -0.27610428       1.37309996      -0.06493623
O        1.07804606       1.17485778       0.34303874
C        1.29949790      -0.17704098       0.54874385
N        0.83710572      -0.98352236      -0.44342347
C       -0.41132144      -0.85244771      -1.11712730
H        0.16468238      -1.42406689       1.79059380
H       -1.97995021      -0.03807346       0.20539576
H       -0.26302846       1.83477927      -1.05660445
H       -0.75031690       2.06011103       0.63614932
H        2.35695339      -0.32427250       0.76435517
H       -0.23272226      -0.38818448      -2.08981966
H       -0.94233933      -1.80139824      -1.20445159
14
Frame=11 idx=009396 GeodesicLength=1.1205379768975456 rxn_smarts="[O:1]([C@@:2]1([H:9])[C:3]([H:10])([H:11])[O:4][C:5]([H:12])=[N:6][C:7]1([H:13])[H:14])[H:8]>>[O:1]([C@:5]1([H:12])[O:4][C:3]([H:10])([H:11])[C@:2]2([H:9])[N:6]1[C:7]2([H:13])[H:14])[H:8]"
O        0.02671409      -0.44547227       1.76578591
C       -0.92119909       0.00233092      -0.04785771
C       -0.27790885       1.36488750      -0.05980863
O        1.08632000       1.16688133       0.31180687
C        1.31076600      -0.17919105       0.54020475
N        0.81479253      -1.00683479      -0.41483921
C       -0.40904638      -0.85175923      -1.12790192
H        0.15267459      -1.39426570       1.81802375
H       -1.97807194      -0.04627221       0.18921162
H       -0.29309765       1.84382895      -1.04258669
H       -0.73975051       2.04115759       0.65998652
H        2.37268092      -0.32573140       0.73142654
H       -0.19918722      -0.37502658      -2.08711601
H       -0.94568649      -1.79453306      -1.23633578
14
Frame=12 idx=009396 GeodesicLength=1.222280822208302 rxn_smarts="[O:1]([C@@:2]1([H:9])[C:3]([H:10])([H:11])[O:4][C:5]([H:12])=[N:6][C:7]1([H:13])[H:14])[H:8]>>[O:1]([C@:5]1([H:12])[O:4][C:3]([H:10])([H:11])[C@:2]2([H:9])[N:6]1[C:7]2([H:13])[H:14])[H:8]"
O        0.00175229      -0.41839367       1.78261991
C       -0.91236564      -0.01398955      -0.03585349
C       -0.27976629       1.35680780      -0.05446219
O        1.09306416       1.15838090       0.28238524
C        1.32172089      -0.18180137       0.53087420
N        0.79219886      -1.02833526      -0.38628005
C       -0.40596223      -0.85087877      -1.13783180
H        0.14132682      -1.36426867       1.84469156
H       -1.97589740      -0.05416552       0.17286479
H       -0.32184371       1.85258325      -1.02743369
H       -0.72915223       2.02285104       0.68278213
H        2.38780041      -0.32803652       0.69563394
H       -0.16566059      -0.36317849      -2.08319641
H       -0.94721534      -1.78757515      -1.26679414
14
Frame=13 idx=009396 GeodesicLength=1.32403089751191 rxn_smarts="[O:1]([C@@:2]1([H:9])[C:3]([H:10])([H:11])[O:4][C:5]([H:12])=[N:6][C:7]1([H:13])[H:14])[H:8]>>[O:1]([C@:5]1([H:12])[O:4][C:3]([H:10])([H:11])[C@:2]2([H:9])[N:6]1[C:7]2([H:13])[H:14])[H:8]"
O       -0.02485232      -0.39184435       1.79884139
C       -0.90412266      -0.02985268      -0.02417380
C       -0.28164543       1.34890668      -0.04889216
O        1.09843543       1.14952644       0.25497093
C        1.33244074      -0.18485565       0.52077888
N        0.76955188      -1.04794096      -0.35792311
C       -0.40210450      -0.84988818      -1.14687643
H        0.13059851      -1.33414319       1.87046824
H       -1.97346446      -0.06167868       0.15632691
H       -0.34912569       1.86105922      -1.01127610
H       -0.71866399       2.00525520       0.70453948
H        2.40224997      -0.33120059       0.65700321
H       -0.13242040      -0.35259934      -2.07814091
H       -0.94687708      -1.78074391      -1.29564652
14
Frame=14 idx=009396 GeodesicLength=1.4257966568581009 rxn_smarts="[O:1]([C@@:2]1([H:9])[C:3]([H:10])([H:11])[O:4][C:5]([H:12])=[N:6][C:7]1([H:13])[H:14])[H:8]>>[O:1]([C@:5]1([H:12])[O:4][C:3]([H:10])([H:11])[C@:2]2([H:9])[N:6]1[C:7]2([H:13])[H:14])[H:8]"
O       -0.05324433      -0.36597124       1.81443987
C       -0.89641455      -0.04523978      -0.01275270
C       -0.28349882       1.34120288      -0.04309272
O        1.10260318       1.14046451       0.22970517
C        1.34298696      -0.18832914       0.50994317
N        0.74707790      -1.06560194      -0.32992922
C       -0.39751368      -0.84886107      -1.15501288
H        0.12045759      -1.30390750       1.89526525
H       -1.97075469      -0.06876606       0.13957136
H       -0.37482478       1.86925984      -0.99424023
H       -0.70838380       1.98838211       0.72529509
H        2.41592615      -0.33519789       0.61559492
H       -0.09975885      -0.34320238      -2.07205222
H       -0.94465828      -1.77423234      -1.32273486
14
Frame=15 idx=009396 GeodesicLength=1.527578920749716 rxn_smarts="[O:1]([C@@:2]1([H:9])[C:3]([H:10])([H:11])[O:4][C:5]([H:12])=[N:6][C:7]1([H:13])[H:14])[H:8]>>[O:1]([C@:5]1([H:12])[O:4][C:3]([H:10])([H:11])[C@:2]2([H:9])[N:6]1[C:7]2([H:13])[H:14])[H:8]"
O       -0.08356929      -0.34089118       1.82941496
C       -0.88918462      -0.06015032      -0.00154055
C       -0.28528367       1.33370326      -0.03705067
O        1.10574703       1.13131396       0.20665501
C        1.35342748      -0.19220350       0.49838162
N        0.72496987      -1.08134059      -0.30241265
C       -0.39223524      -0.84786656      -1.16224790
H        0.11089194      -1.27351530       1.91905522
H       -1.96773704      -0.07540500       0.12257291
H       -0.39888374       1.87720613      -0.97642625
H       -0.69837408       1.97221661       0.74512697
H        2.42872781      -0.33998518       0.57149534
H       -0.06790069      -0.33487874      -2.06504910
H       -0.94059577      -1.76820359      -1.34797491
14
Frame=16 idx=009396 GeodesicLength=1.6293984605317713 rxn_smarts="[O:1]([C@@:2]1([H:9])[C:3]([H:10])([H:11])[O:4][C:5]([H:12])=[N:6][C:7]1([H:13])[H:14])[H:8]>>[O:1]([C@:5]1([H:12])[O:4][C:3]([H:10])([H:11])[C@:2]2([H:9])[N:6]1[C:7]2([H:13])[H:14])[H:8]"
O       -0.11593402      -0.31666720       1.84378738
C       -0.88237582      -0.07460642       0.00951361
C       -0.28696953       1.32639389      -0.03073999
O        1.10803437       1.12215686       0.18581261
C        1.36383779      -0.19646359       0.48608993
N        0.70336369      -1.09523580      -0.27541095
C       -0.38630393      -0.84695146      -1.16860138
H        0.10181861      -1.24285039       1.94184293
H       -1.96436460      -0.08158864       0.10532465
H       -0.42131878       1.88492041      -0.95789577
H       -0.68867387       1.95670072       0.76415040
H        2.44055554      -0.34552216       0.52471670
H       -0.03693370      -0.32751642      -2.05723588
H       -0.93473574      -1.76276979      -1.37135424
