8
Frame=0 idx=005049 GeodesicLength=0.0 rxn_smarts="[N:1]([C:2]([C:3]#[N:4])([H:7])[H:8])([H:5])[H:6]>>[C:3]=[N:4][H:5].[N:1](=[C:2]([H:7])[H:8])[H:6]"
N       -0.80172382      -0.46011122       0.31386137
C       -0.46455941       0.75907019       0.12448622
C        1.91052841       0.00211160      -0.35940100
N        1.63452511      -0.93008044      -1.00374899
H       -0.38753342      -1.14037565      -0.33126019
H       -1.16554173      -0.78277809       1.19662629
H       -0.67429844       1.50052479       0.88626783
H       -0.05139669       1.05163881      -0.82683152
8
Frame=1 idx=005049 GeodesicLength=0.07382237128636553 rxn_smarts="[N:1]([C:2]([C:3]#[N:4])([H:7])[H:8])([H:5])[H:6]>>[C:3]=[N:4][H:5].[N:1](=[C:2]([H:7])[H:8])[H:6]"
N       -0.80535127      -0.45737505       0.30766949
C       -0.44303271       0.76256678       0.13952521
C        1.91078009      -0.00844946      -0.37232393
N        1.62577544      -0.94900175      -0.99962713
H       -0.35941818      -1.14557509      -0.33191593
H       -1.16407265      -0.77995473       1.19298669
H       -0.70309681       1.50610295       0.88422154
H       -0.06158391       1.07168636      -0.82053594
8
Frame=2 idx=005049 GeodesicLength=0.14747984898067978 rxn_smarts="[N:1]([C:2]([C:3]#[N:4])([H:7])[H:8])([H:5])[H:6]>>[C:3]=[N:4][H:5].[N:1](=[C:2]([H:7])[H:8])[H:6]"
N       -0.80964359      -0.45502633       0.30085701
C       -0.42435014       0.76555017       0.15237395
C        1.90974138      -0.01596330      -0.38453905
N        1.61826371      -0.96629480      -0.99321877
H       -0.33183983      -1.15191027      -0.33171033
H       -1.16502463      -0.77673318       1.18836949
H       -0.72243830       1.50945386       0.88321765
H       -0.07470860       1.09092384      -0.81534995
8
Frame=3 idx=005049 GeodesicLength=0.22035387478796734 rxn_smarts="[N:1]([C:2]([C:3]#[N:4])([H:7])[H:8])([H:5])[H:6]>>[C:3]=[N:4][H:5].[N:1](=[C:2]([H:7])[H:8])[H:6]"
N       -0.81450812      -0.45291875       0.29324026
C       -0.40852605       0.76800515       0.16261858
C        1.90738139      -0.02100890      -0.39608144
N        1.61186716      -0.98227204      -0.98429464
H       -0.30484317      -1.15899518      -0.33084343
H       -1.16736750      -0.77290374       1.18272016
H       -0.73342902       1.51070093       0.88392361
H       -0.09057469       1.10939251      -0.81128309
8
Frame=4 idx=005049 GeodesicLength=0.29347556641257155 rxn_smarts="[N:1]([C:2]([C:3]#[N:4])([H:7])[H:8])([H:5])[H:6]>>[C:3]=[N:4][H:5].[N:1](=[C:2]([H:7])[H:8])[H:6]"
N       -0.81976095      -0.45108859       0.28508052
C       -0.39465399       0.77021489       0.17083573
C        1.90426889      -0.02452343      -0.40711502
N        1.60650782      -0.99739919      -0.97389542
H       -0.27848441      -1.16691835      -0.32957061
H       -1.17065214      -0.76877393       1.17662893
H       -0.73908249       1.51089867       0.88604961
H       -0.10814272       1.12758992      -0.80801374
8
Frame=5 idx=005049 GeodesicLength=0.36646844864477124 rxn_smarts="[N:1]([C:2]([C:3]#[N:4])([H:7])[H:8])([H:5])[H:6]>>[C:3]=[N:4][H:5].[N:1](=[C:2]([H:7])[H:8])[H:6]"
N       -0.82517117      -0.44934557       0.27645124
C       -0.38217555       0.77220702       0.17740762
C        1.90054139      -0.02715606      -0.41782088
N        1.60194631      -1.01191378      -0.96226005
H       -0.25273585      -1.17534775      -0.32801247
H       -1.17427696      -0.76429232       1.17009261
H       -0.74104395       1.51021176       0.88918450
H       -0.12708423       1.14563670      -0.80504256
8
Frame=6 idx=005049 GeodesicLength=0.43951559123388206 rxn_smarts="[N:1]([C:2]([C:3]#[N:4])([H:7])[H:8])([H:5])[H:6]>>[C:3]=[N:4][H:5].[N:1](=[C:2]([H:7])[H:8])[H:6]"
N       -0.83073740      -0.44767654       0.26745022
C       -0.37084406       0.77408585       0.18251883
C        1.89636162      -0.02917064      -0.42828477
N        1.59816977      -1.02602431      -0.94952545
H       -0.22771500      -1.18421282      -0.32645449
H       -1.17791511      -0.75958307       1.16336236
H       -0.74024717       1.50889729       0.89316787
H       -0.14707265       1.16368425      -0.80223457
8
Frame=7 idx=005049 GeodesicLength=0.5125398700068493 rxn_smarts="[N:1]([C:2]([C:3]#[N:4])([H:7])[H:8])([H:5])[H:6]>>[C:3]=[N:4][H:5].[N:1](=[C:2]([H:7])[H:8])[H:6]"
N       -0.83640357      -0.44601035       0.25812551
C       -0.36042151       0.77588084       0.18635380
C        1.89177736      -0.03077974      -0.43867616
N        1.59512460      -1.03988033      -0.93568529
H       -0.20339828      -1.19340151      -0.32502220
H       -1.18136680      -0.75465640       1.15646312
H       -0.73732256       1.50702664       0.89781008
H       -0.16798924       1.18182085      -0.79936886
8
Frame=8 idx=005049 GeodesicLength=0.5855465153402309 rxn_smarts="[N:1]([C:2]([C:3]#[N:4])([H:7])[H:8])([H:5])[H:6]>>[C:3]=[N:4][H:5].[N:1](=[C:2]([H:7])[H:8])[H:6]"
N       -0.84213642      -0.44430416       0.24853860
C       -0.35071181       0.77763783       0.18905097
C        1.88686024      -0.03222477      -0.44890760
N        1.59270884      -1.05344912      -0.92095959
H       -0.17974700      -1.20289117      -0.32376966
H       -1.18449889      -0.74953882       1.14946982
H       -0.73275029       1.50470194       0.90290872
H       -0.18972467       1.20006826      -0.79633127
8
Frame=9 idx=005049 GeodesicLength=0.6585885024012473 rxn_smarts="[N:1]([C:2]([C:3]#[N:4])([H:7])[H:8])([H:5])[H:6]>>[C:3]=[N:4][H:5].[N:1](=[C:2]([H:7])[H:8])[H:6]"
N       -0.84796849      -0.44254430       0.23870126
C       -0.34163011       0.77938855       0.19067783
C        1.88162806      -0.03349850      -0.45920877
N        1.59098476      -1.06687568      -0.90517210
H       -0.15674354      -1.21267841      -0.32281368
H       -1.18730950      -0.74425831       1.14240052
H       -0.72669752       1.50195585       0.90844778
H       -0.21226365       1.21851081      -0.79303285
8
Frame=10 idx=005049 GeodesicLength=0.7316962644393665 rxn_smarts="[N:1]([C:2]([C:3]#[N:4])([H:7])[H:8])([H:5])[H:6]>>[C:3]=[N:4][H:5].[N:1](=[C:2]([H:7])[H:8])[H:6]"
N       -0.85394493      -0.44071663       0.22862219
C       -0.33308153       0.78115983       0.19128841
C        1.87615813      -0.03466893      -0.46963428
N        1.58996070      -1.08013491      -0.88839169
H       -0.13432089      -1.22281591      -0.32212467
H       -1.18987479      -0.73880436       1.13526923
H       -0.71930232       1.49882292       0.91438786
H       -0.23559437       1.23715799      -0.78941705
8
Frame=11 idx=005049 GeodesicLength=0.8047380583449661 rxn_smarts="[N:1]([C:2]([C:3]#[N:4])([H:7])[H:8])([H:5])[H:6]>>[C:3]=[N:4][H:5].[N:1](=[C:2]([H:7])[H:8])[H:6]"
N       -0.86001276      -0.43875311       0.21825125
C       -0.32503147       0.78293722       0.19087547
C        1.87022128      -0.03575211      -0.48041687
N        1.58959922      -1.09332962      -0.87017531
H       -0.11242732      -1.23320200      -0.32180083
H       -1.19202602      -0.73318117       1.12793737
H       -0.71050008       1.49515261       0.92064195
H       -0.25982285       1.25612817      -0.78531304
8
Frame=12 idx=005049 GeodesicLength=0.8778691501841014 rxn_smarts="[N:1]([C:2]([C:3]#[N:4])([H:7])[H:8])([H:5])[H:6]>>[C:3]=[N:4][H:5].[N:1](=[C:2]([H:7])[H:8])[H:6]"
N       -0.86626649      -0.43669338       0.20765984
C       -0.31743270       0.78477642       0.18948330
C        1.86405175      -0.03688428      -0.49137128
N        1.58990376      -1.10630407      -0.85092096
H       -0.09103915      -1.24396889      -0.32184287
H       -1.19387217      -0.72739990       1.12057898
H       -0.70052024       1.49112865       0.92715525
H       -0.28482475       1.27534544      -0.78074227
8
Frame=13 idx=005049 GeodesicLength=0.950987423061299 rxn_smarts="[N:1]([C:2]([C:3]#[N:4])([H:7])[H:8])([H:5])[H:6]>>[C:3]=[N:4][H:5].[N:1](=[C:2]([H:7])[H:8])[H:6]"
N       -0.87272262      -0.43448481       0.19676633
C       -0.31024612       0.78666043       0.18709557
C        1.85748457      -0.03797766      -0.50296241
N        1.59096720      -1.11918637      -0.83001648
H       -0.07013126      -1.25506118      -0.32233390
H       -1.19542143      -0.72144899       1.11304084
H       -0.68918465       1.48657493       0.93395381
H       -0.31074568       1.29492365      -0.77554376
8
Frame=14 idx=005049 GeodesicLength=1.0241629892349728 rxn_smarts="[N:1]([C:2]([C:3]#[N:4])([H:7])[H:8])([H:5])[H:6]>>[C:3]=[N:4][H:5].[N:1](=[C:2]([H:7])[H:8])[H:6]"
N       -0.87940353      -0.43213436       0.18561473
C       -0.30346485       0.78863245       0.18370953
C        1.85056666      -0.03919020      -0.51502777
N        1.59272142      -1.13183135      -0.80761417
H       -0.04967107      -1.26653417      -0.32333086
H       -1.19661917      -0.71535872       1.10540004
H       -0.67658865       1.48157052       0.94091129
H       -0.33754081       1.31484583      -0.76966280
8
Frame=15 idx=005049 GeodesicLength=1.0973233486028284 rxn_smarts="[N:1]([C:2]([C:3]#[N:4])([H:7])[H:8])([H:5])[H:6]>>[C:3]=[N:4][H:5].[N:1](=[C:2]([H:7])[H:8])[H:6]"
N       -0.88631661      -0.42960502       0.17417571
C       -0.29707745       0.79068020       0.17929420
C        1.84320868      -0.04058484      -0.52768761
N        1.59513123      -1.14415581      -0.78346706
H       -0.02961881      -1.27835949      -0.32488507
H       -1.19742003      -0.70911214       1.09759077
H       -0.66263896       1.47601305       0.94795320
H       -0.36526806       1.33512406      -0.76297414
8
Frame=16 idx=005049 GeodesicLength=1.1705202229403784 rxn_smarts="[N:1]([C:2]([C:3]#[N:4])([H:7])[H:8])([H:5])[H:6]>>[C:3]=[N:4][H:5].[N:1](=[C:2]([H:7])[H:8])[H:6]"
N       -0.89352526      -0.42690934       0.16242846
C       -0.29107872       0.79282696       0.17383318
C        1.83540234      -0.04218179      -0.54121601
N        1.59826433      -1.15610165      -0.75729758
H       -0.00993688      -1.29059614      -0.32706120
H       -1.19792886      -0.70272026       1.08960254
H       -0.64726575       1.46987823       0.95507198
H       -0.39393121       1.35580399      -0.75536137
