21
Frame=0 idx=010249 GeodesicLength=0.0 rxn_smarts="[C:1]1([H:8])([H:9])[C:2]([H:10])([H:11])[C:3]([H:12])([H:13])[C:4]([H:14])([H:15])[C:5]([H:16])([H:17])[C:6]([H:18])([H:19])[C:7]1([H:20])[H:21]>>[C:1](=[C:2]([C:3]([C:4]([C:5]([C:6](=[C:7]([H:20])[H:21])[H:19])([H:16])[H:17])([H:14])[H:15])([H:12])[H:13])[H:10])([H:8])[H:9].[H:11][H:18]"
C        0.08504098       1.76246721      -0.72291264
C       -0.74096883       1.41935872       0.31744994
C       -1.65982232       0.20930318       0.21195623
C       -1.01560317      -1.03308562      -0.42208881
C        0.17635377      -1.64667355       0.32847481
C        1.38671766      -0.73081200       0.45210036
C        1.80109410       0.02358519      -0.61608238
H        0.62295988       2.70250158      -0.70465687
H       -0.03029327       1.30803427      -1.69362828
H       -1.02886427       2.18669192       1.03150391
H        0.14694100       0.85222375       1.35351246
H       -2.02379750      -0.05136042       1.21017443
H       -2.54508701       0.47759671      -0.37493803
H       -1.78813525      -1.80267765      -0.50640679
H       -0.72603304      -0.81052932      -1.45332909
H       -0.15029140      -1.94587689       1.32882086
H        0.47237905      -2.56869192      -0.18348709
H        0.76345038       0.22394827       1.39452526
H        2.10579033      -0.97713656       1.22901920
H        2.74452190       0.55398318      -0.57726950
H        1.40364692      -0.15285008      -1.60273808
21
Frame=1 idx=010249 GeodesicLength=0.1652519504583108 rxn_smarts="[C:1]1([H:8])([H:9])[C:2]([H:10])([H:11])[C:3]([H:12])([H:13])[C:4]([H:14])([H:15])[C:5]([H:16])([H:17])[C:6]([H:18])([H:19])[C:7]1([H:20])[H:21]>>[C:1](=[C:2]([C:3]([C:4]([C:5]([C:6](=[C:7]([H:20])[H:21])[H:19])([H:16])[H:17])([H:14])[H:15])([H:12])[H:13])[H:10])([H:8])[H:9].[H:11][H:18]"
C        0.11094836       1.79351158      -0.70364191
C       -0.74547277       1.40789412       0.29933920
C       -1.66163967       0.19561559       0.22138342
C       -1.01868720      -1.04444498      -0.41814463
C        0.17590164      -1.64958772       0.33462900
C        1.39060373      -0.73799623       0.44704943
C        1.79636867       0.02000381      -0.62641770
H        0.67848268       2.71332928      -0.63251686
H       -0.01130550       1.40046599      -1.70071349
H       -1.13939196       2.21844393       0.90774941
H        0.14329846       0.86614164       1.37315798
H       -2.00973232      -0.06430269       1.22538705
H       -2.56107813       0.45194929      -0.34873513
H       -1.78919962      -1.81659328      -0.49687951
H       -0.73260564      -0.82327426      -1.45054054
H       -0.14921028      -1.93439374       1.33998471
H        0.46657917      -2.58135290      -0.16225908
H        0.78220029       0.22258123       1.40721457
H        2.12937789      -1.01120565       1.19600851
H        2.75397926       0.52588054      -0.60110850
H        1.39058295      -0.15266554      -1.61094593
21
Frame=2 idx=010249 GeodesicLength=0.329172038337492 rxn_smarts="[C:1]1([H:8])([H:9])[C:2]([H:10])([H:11])[C:3]([H:12])([H:13])[C:4]([H:14])([H:15])[C:5]([H:16])([H:17])[C:6]([H:18])([H:19])[C:7]1([H:20])[H:21]>>[C:1](=[C:2]([C:3]([C:4]([C:5]([C:6](=[C:7]([H:20])[H:21])[H:19])([H:16])[H:17])([H:14])[H:15])([H:12])[H:13])[H:10])([H:8])[H:9].[H:11][H:18]"
C        0.13743914       1.82483503      -0.68020671
C       -0.75033717       1.39813432       0.28215441
C       -1.66308172       0.18278958       0.23164306
C       -1.02241369      -1.05581968      -0.41273976
C        0.17559920      -1.65234116       0.34097398
C        1.39456683      -0.74497521       0.44157782
C        1.79079947       0.01711139      -0.63712562
H        0.73253567       2.72095439      -0.55373341
H        0.01112979       1.49963383      -1.70160238
H       -1.24650487       2.24053986       0.76052797
H        0.13844297       0.87944211       1.39374912
H       -1.99488873      -0.07522361       1.24158300
H       -2.57676436       0.42595909      -0.32104748
H       -1.79102463      -1.83043500      -0.48484725
H       -0.74054377      -0.83704930      -1.44670129
H       -0.14715598      -1.92287740       1.35134076
H        0.46080708      -2.59348944      -0.14093078
H        0.80189049       0.22049301       1.42055347
H        2.15264546      -1.04586820       1.16010960
H        2.76147317       0.49877927      -0.62618644
H        1.37538563      -0.15059289      -1.61909208
21
Frame=3 idx=010249 GeodesicLength=0.4919925029885883 rxn_smarts="[C:1]1([H:8])([H:9])[C:2]([H:10])([H:11])[C:3]([H:12])([H:13])[C:4]([H:14])([H:15])[C:5]([H:16])([H:17])[C:6]([H:18])([H:19])[C:7]1([H:20])[H:21]>>[C:1](=[C:2]([C:3]([C:4]([C:5]([C:6](=[C:7]([H:20])[H:21])[H:19])([H:16])[H:17])([H:14])[H:15])([H:12])[H:13])[H:10])([H:8])[H:9].[H:11][H:18]"
C        0.16505348       1.85747139      -0.65271427
C       -0.75505073       1.39060550       0.26456136
C       -1.66366816       0.17125610       0.24150038
C       -1.02673611      -1.06736195      -0.40605061
C        0.17501428      -1.65474716       0.34831768
C        1.39845563      -0.75190891       0.43546294
C        1.78374570       0.01468437      -0.64859098
H        0.78170948       2.72867901      -0.46878529
H        0.03938315       1.60675903      -1.69562814
H       -1.34748947       2.24418950       0.59432876
H        0.13297711       0.89284191       1.41442821
H       -1.97937497      -0.08289919       1.25750827
H       -2.59148048       0.40007320      -0.29329480
H       -1.79396499      -1.84398733      -0.46962583
H       -0.74971915      -0.85249105      -1.44200941
H       -0.14479686      -1.90983446       1.36393001
H        0.45416218      -2.60555406      -0.11756366
H        0.82285185       0.21794396       1.43409237
H        2.17539088      -1.08096135       1.12091443
H        2.76625842       0.47255234      -0.65341110
H        1.35727877      -0.14731085      -1.62737033
21
Frame=4 idx=010249 GeodesicLength=0.6533746252221367 rxn_smarts="[C:1]1([H:8])([H:9])[C:2]([H:10])([H:11])[C:3]([H:12])([H:13])[C:4]([H:14])([H:15])[C:5]([H:16])([H:17])[C:6]([H:18])([H:19])[C:7]1([H:20])[H:21]>>[C:1](=[C:2]([C:3]([C:4]([C:5]([C:6](=[C:7]([H:20])[H:21])[H:19])([H:16])[H:17])([H:14])[H:15])([H:12])[H:13])[H:10])([H:8])[H:9].[H:11][H:18]"
C        0.19206823       1.89020942      -0.62180634
C       -0.76162642       1.38472384       0.24565786
C       -1.66491530       0.16061925       0.25123480
C       -1.03212155      -1.07909758      -0.39800960
C        0.17437090      -1.65632664       0.35602727
C        1.40181555      -0.75748911       0.42888000
C        1.77512538       0.01372700      -0.66070265
H        0.82772974       2.73243431      -0.37757327
H        0.07192077       1.72003619      -1.68210880
H       -1.43122330       2.23182488       0.41060457
H        0.12451145       0.90642191       1.43532286
H       -1.96413236      -0.08824180       1.27347546
H       -2.60685921       0.37349522      -0.26493603
H       -1.79767626      -1.85799206      -0.45163330
H       -0.76059394      -0.86977719      -1.43644704
H       -0.14163994      -1.89579060       1.37692504
H        0.44787231      -2.61643077      -0.09352185
H        0.84383221       0.21583594       1.44784993
H        2.19681074      -1.11481185       1.07881230
H        2.76817946       0.44856769      -0.68229821
H        1.33655156      -0.14193805      -1.63575299
21
Frame=5 idx=010249 GeodesicLength=0.8140386323286667 rxn_smarts="[C:1]1([H:8])([H:9])[C:2]([H:10])([H:11])[C:3]([H:12])([H:13])[C:4]([H:14])([H:15])[C:5]([H:16])([H:17])[C:6]([H:18])([H:19])[C:7]1([H:20])[H:21]>>[C:1](=[C:2]([C:3]([C:4]([C:5]([C:6](=[C:7]([H:20])[H:21])[H:19])([H:16])[H:17])([H:14])[H:15])([H:12])[H:13])[H:10])([H:8])[H:9].[H:11][H:18]"
C        0.21831294       1.92476575      -0.58830200
C       -0.76849172       1.38005539       0.22358538
C       -1.66608131       0.15107662       0.25976776
C       -1.03856389      -1.09150454      -0.38889337
C        0.17323567      -1.65738828       0.36464039
C        1.40455573      -0.76244370       0.42150781
C        1.76425054       0.01411459      -0.67356446
H        0.86730702       2.73572501      -0.28137927
H        0.11107503       1.84028251      -1.66084121
H       -1.49650944       2.19762618       0.21580643
H        0.11409373       0.92111169       1.45543782
H       -1.94884403      -0.09014288       1.28846123
H       -2.62188732       0.34732512      -0.23704019
H       -1.80279092      -1.87231037      -0.43027486
H       -0.77301358      -0.88992594      -1.43030236
H       -0.13847858      -1.87989002       1.39099957
H        0.44096560      -2.62699167      -0.06729223
H        0.86514383       0.21394577       1.46134822
H        2.21671571      -1.14786066       1.03341139
H        2.76626917       0.42744616      -0.71275371
H        1.31273582      -0.13501672      -1.64432235
21
Frame=6 idx=010249 GeodesicLength=0.9738039330377417 rxn_smarts="[C:1]1([H:8])([H:9])[C:2]([H:10])([H:11])[C:3]([H:12])([H:13])[C:4]([H:14])([H:15])[C:5]([H:16])([H:17])[C:6]([H:18])([H:19])[C:7]1([H:20])[H:21]>>[C:1](=[C:2]([C:3]([C:4]([C:5]([C:6](=[C:7]([H:20])[H:21])[H:19])([H:16])[H:17])([H:14])[H:15])([H:12])[H:13])[H:10])([H:8])[H:9].[H:11][H:18]"
C        0.24253660       1.96019064      -0.55182526
C       -0.77641784       1.37579741       0.19847165
C       -1.66817766       0.14256118       0.26712837
C       -1.04640445      -1.10461665      -0.37838317
C        0.17188660      -1.65747148       0.37377053
C        1.40660330      -0.76589701       0.41302570
C        1.75099340       0.01632421      -0.68768427
H        0.90146997       2.73515091      -0.17990897
H        0.15581789       1.96558290      -1.63013713
H       -1.53721993       2.14379099       0.00989566
H        0.10015476       0.93642672       1.47549100
H       -1.93466322      -0.08923726       1.30227178
H       -2.63706134       0.32238756      -0.20998815
H       -1.80907784      -1.88741794      -0.40512624
H       -0.78745925      -0.91335811      -1.42331876
H       -0.13458710      -1.86205772       1.40573369
H        0.43431528      -2.63642354      -0.03957752
H        0.88663128       0.21278959       1.47448079
H        2.23492247      -1.17886447       0.98440136
H        2.76016261       0.41047043      -0.74525078
H        1.28557447      -0.12612835      -1.65347026
21
Frame=7 idx=010249 GeodesicLength=1.1330195097234779 rxn_smarts="[C:1]1([H:8])([H:9])[C:2]([H:10])([H:11])[C:3]([H:12])([H:13])[C:4]([H:14])([H:15])[C:5]([H:16])([H:17])[C:6]([H:18])([H:19])[C:7]1([H:20])[H:21]>>[C:1](=[C:2]([C:3]([C:4]([C:5]([C:6](=[C:7]([H:20])[H:21])[H:19])([H:16])[H:17])([H:14])[H:15])([H:12])[H:13])[H:10])([H:8])[H:9].[H:11][H:18]"
C        0.26339693       1.99785701      -0.51343392
C       -0.78383016       1.37178404       0.17016102
C       -1.67045293       0.13539769       0.27295273
C       -1.05566631      -1.11848706      -0.36671778
C        0.17001486      -1.65701340       0.38343878
C        1.40797857      -0.76874497       0.40325338
C        1.73502183       0.02079152      -0.70248431
H        0.92816861       2.73293493      -0.07648349
H        0.20455607       2.09488195      -1.58990417
H       -1.55117690       2.06621853      -0.20245014
H        0.08392390       0.95289889       1.49533614
H       -1.92149297      -0.08501927       1.31441862
H       -2.65118292       0.30083480      -0.18468925
H       -1.81717889      -1.90268336      -0.37625387
H       -0.80371370      -0.94034133      -1.41565564
H       -0.13066129      -1.84241981       1.42107909
H        0.42720502      -2.64533284      -0.01013845
H        0.90877830       0.21153517       1.48727948
H        2.25130766      -1.20869892       0.93154241
H        2.74952716       0.39881596      -0.77836121
H        1.25547718      -0.11520954      -1.66288943
21
Frame=8 idx=010249 GeodesicLength=1.2917098681490338 rxn_smarts="[C:1]1([H:8])([H:9])[C:2]([H:10])([H:11])[C:3]([H:12])([H:13])[C:4]([H:14])([H:15])[C:5]([H:16])([H:17])[C:6]([H:18])([H:19])[C:7]1([H:20])[H:21]>>[C:1](=[C:2]([C:3]([C:4]([C:5]([C:6](=[C:7]([H:20])[H:21])[H:19])([H:16])[H:17])([H:14])[H:15])([H:12])[H:13])[H:10])([H:8])[H:9].[H:11][H:18]"
C        0.27967092       2.03647553      -0.47212779
C       -0.79158283       1.36777102       0.14013695
C       -1.67391661       0.12972695       0.27645915
C       -1.06655680      -1.13318778      -0.35341910
C        0.16791148      -1.65523067       0.39370836
C        1.40872525      -0.76993310       0.39146527
C        1.71605854       0.02764852      -0.71914354
H        0.94802119       2.72609935       0.02899589
H        0.25498088       2.22587424      -1.53816393
H       -1.53079173       1.96516595      -0.41868487
H        0.06400967       0.96950823       1.51619736
H       -1.91181019      -0.07809742       1.32356759
H       -2.66385381       0.28488341      -0.16450689
H       -1.82676026      -1.91852748      -0.34250454
H       -0.82215186      -0.97172756      -1.40683364
H       -0.12580431      -1.81979209       1.43717531
H        0.42042434      -2.65284403       0.02139761
H        0.93232484       0.21091998       1.49934366
H        2.26576325      -1.23605428       0.87409365
H        2.73373510       0.39370321      -0.81372025
H        1.22160295      -0.10238196      -1.67343625
21
Frame=9 idx=010249 GeodesicLength=1.4497530316604155 rxn_smarts="[C:1]1([H:8])([H:9])[C:2]([H:10])([H:11])[C:3]([H:12])([H:13])[C:4]([H:14])([H:15])[C:5]([H:16])([H:17])[C:6]([H:18])([H:19])[C:7]1([H:20])[H:21]>>[C:1](=[C:2]([C:3]([C:4]([C:5]([C:6](=[C:7]([H:20])[H:21])[H:19])([H:16])[H:17])([H:14])[H:15])([H:12])[H:13])[H:10])([H:8])[H:9].[H:11][H:18]"
C        0.28952101       2.07660683      -0.43191078
C       -0.79692717       1.36390844       0.10979767
C       -1.67657576       0.12592811       0.27718514
C       -1.07825366      -1.14813340      -0.33976516
C        0.16492382      -1.65294126       0.40415140
C        1.40857439      -0.77158630       0.37826753
C        1.69449206       0.03705793      -0.73509099
H        0.95955646       2.71915752       0.12641452
H        0.29528003       2.35652872      -1.47864579
H       -1.47380686       1.83871985      -0.62279705
H        0.04328463       0.98741637       1.53800683
H       -1.90507790      -0.06818109       1.32890948
H       -2.67204886       0.27708309      -0.15200734
H       -1.83797913      -1.93294465      -0.30673501
H       -0.84094213      -1.00651635      -1.39763437
H       -0.12205392      -1.79492709       1.45308509
H        0.41239428      -2.65975142       0.05436914
H        0.95757267       0.20900581       1.51125040
H        2.27748358      -1.26272420       0.81304157
H        2.71359058       0.39501554      -0.84623490
H        1.18699191      -0.08872244      -1.68365739
21
Frame=10 idx=010249 GeodesicLength=1.6088606183495087 rxn_smarts="[C:1]1([H:8])([H:9])[C:2]([H:10])([H:11])[C:3]([H:12])([H:13])[C:4]([H:14])([H:15])[C:5]([H:16])([H:17])[C:6]([H:18])([H:19])[C:7]1([H:20])[H:21]>>[C:1](=[C:2]([C:3]([C:4]([C:5]([C:6](=[C:7]([H:20])[H:21])[H:19])([H:16])[H:17])([H:14])[H:15])([H:12])[H:13])[H:10])([H:8])[H:9].[H:11][H:18]"
C        0.29308281       2.11593955      -0.39291464
C       -0.80141391       1.36016500       0.08112072
C       -1.68032632       0.12367974       0.27240853
C       -1.09033911      -1.16387998      -0.32573247
C        0.16176092      -1.64917496       0.41578350
C        1.40837804      -0.77251301       0.36333832
C        1.67141319       0.04799207      -0.75218529
H        0.96700465       2.70766716       0.21489642
H        0.31870349       2.48504712      -1.41180664
H       -1.37827028       1.69882979      -0.80044972
H        0.01972906       1.00508403       1.56202352
H       -1.90604900      -0.05666900       1.32713147
H       -2.67601667       0.27753068      -0.15479400
H       -1.84966133      -1.94734630      -0.26825814
H       -0.85924311      -1.04606856      -1.38792436
H       -0.11856883      -1.76532065       1.46998053
H        0.40445211      -2.66557665       0.09175104
H        0.98620236       0.20735410       1.52224313
H        2.28696117      -1.28848204       0.74780126
H        2.69047026       0.40134297      -0.87938700
H        1.15173047      -0.07560104      -1.69502618
21
Frame=11 idx=010249 GeodesicLength=1.7705516728669766 rxn_smarts="[C:1]1([H:8])([H:9])[C:2]([H:10])([H:11])[C:3]([H:12])([H:13])[C:4]([H:14])([H:15])[C:5]([H:16])([H:17])[C:6]([H:18])([H:19])[C:7]1([H:20])[H:21]>>[C:1](=[C:2]([C:3]([C:4]([C:5]([C:6](=[C:7]([H:20])[H:21])[H:19])([H:16])[H:17])([H:14])[H:15])([H:12])[H:13])[H:10])([H:8])[H:9].[H:11][H:18]"
C        0.29154584       2.15283859      -0.35825152
C       -0.80446043       1.35684323       0.05503951
C       -1.68449349       0.12274443       0.26190362
C       -1.10186345      -1.17966219      -0.31260308
C        0.15828511      -1.64427343       0.42820286
C        1.40843365      -0.77396134       0.34772508
C        1.64896856       0.05898191      -0.76902019
H        0.97246184       2.69353082       0.28829121
H        0.31652108       2.60904771      -1.34175191
H       -1.25258492       1.55666048      -0.93876342
H       -0.00547525       1.02334733       1.58793499
H       -1.91385472      -0.04430251       1.31804102
H       -2.67541733       0.28427555      -0.17294448
H       -1.86111280      -1.96063982      -0.23018465
H       -0.87534311      -1.08833904      -1.37843873
H       -0.11640448      -1.73160757       1.48694318
H        0.39606816      -2.67044136       0.13296479
H        1.01869146       0.20526489       1.53252602
H        2.29355536      -1.31529245       0.67982912
H        2.66711116       0.41017798      -0.91055709
H        1.11936779      -0.06519318      -1.70688631
21
Frame=12 idx=010249 GeodesicLength=1.935337941002875 rxn_smarts="[C:1]1([H:8])([H:9])[C:2]([H:10])([H:11])[C:3]([H:12])([H:13])[C:4]([H:14])([H:15])[C:5]([H:16])([H:17])[C:6]([H:18])([H:19])[C:7]1([H:20])[H:21]>>[C:1](=[C:2]([C:3]([C:4]([C:5]([C:6](=[C:7]([H:20])[H:21])[H:19])([H:16])[H:17])([H:14])[H:15])([H:12])[H:13])[H:10])([H:8])[H:9].[H:11][H:18]"
C        0.28668278       2.18629276      -0.33029081
C       -0.80579403       1.35395231       0.03164099
C       -1.68848137       0.12276233       0.24661093
C       -1.11211096      -1.19454187      -0.30157018
C        0.15438276      -1.63864864       0.44074825
C        1.40918991      -0.77716766       0.33262512
C        1.62947613       0.06859218      -0.78418183
H        0.97778025       2.67929527       0.34318522
H        0.28552086       2.72546271      -1.27179021
H       -1.11028047       1.42293034      -1.03333472
H       -0.03142009       1.04344149       1.61511405
H       -1.92616706      -0.03189022       1.30287159
H       -2.67093710       0.29447839      -0.20276403
H       -1.87179615      -1.97191187      -0.19559982
H       -0.88809907      -1.13043713      -1.36998470
H       -0.11623622      -1.69501084       1.50290948
H        0.38660033      -2.67442391       0.17661788
H        1.05531533       0.20201789       1.54241355
H        2.29673189      -1.34527637       0.61054847
H        2.64640402       0.41907750      -0.93728014
H        1.09323827      -0.05899468      -1.71848909
21
Frame=13 idx=010249 GeodesicLength=2.1028401478338736 rxn_smarts="[C:1]1([H:8])([H:9])[C:2]([H:10])([H:11])[C:3]([H:12])([H:13])[C:4]([H:14])([H:15])[C:5]([H:16])([H:17])[C:6]([H:18])([H:19])[C:7]1([H:20])[H:21]>>[C:1](=[C:2]([C:3]([C:4]([C:5]([C:6](=[C:7]([H:20])[H:21])[H:19])([H:16])[H:17])([H:14])[H:15])([H:12])[H:13])[H:10])([H:8])[H:9].[H:11][H:18]"
C        0.27983226       2.21614116      -0.31012067
C       -0.80557703       1.35125805       0.01037263
C       -1.69200340       0.12338713       0.22813202
C       -1.12077188      -1.20779016      -0.29329639
C        0.15004168      -1.63255457       0.45280332
C        1.41099222      -0.78281339       0.31866418
C        1.61447747       0.07593046      -0.79705176
H        0.98359205       2.66657156       0.37996687
H        0.22904544       2.83151306      -1.20293623
H       -0.96414550       1.30352428      -1.08825067
H       -0.05788464       1.06663175       1.64288610
H       -1.94035949      -0.02006149       1.28365098
H       -2.66390475       0.30593122      -0.23900646
H       -1.88140244      -1.98075845      -0.16639019
H       -0.89721120      -1.16980894      -1.36311537
H       -0.11806172      -1.65657246       1.51708774
H        0.37565354      -2.67748055       0.22129657
H        1.09626622       0.19712378       1.55200071
H        2.29607688      -1.37939495       0.54115887
H        2.63029463       0.42648334      -0.95839060
H        1.07504964      -0.05726083      -1.72946165
21
Frame=14 idx=010249 GeodesicLength=2.2723218216174486 rxn_smarts="[C:1]1([H:8])([H:9])[C:2]([H:10])([H:11])[C:3]([H:12])([H:13])[C:4]([H:14])([H:15])[C:5]([H:16])([H:17])[C:6]([H:18])([H:19])[C:7]1([H:20])[H:21]>>[C:1](=[C:2]([C:3]([C:4]([C:5]([C:6](=[C:7]([H:20])[H:21])[H:19])([H:16])[H:17])([H:14])[H:15])([H:12])[H:13])[H:10])([H:8])[H:9].[H:11][H:18]"
C        0.27175773       2.24265921      -0.29730219
C       -0.80437506       1.34830146      -0.00955484
C       -1.69532436       0.12415789       0.20756842
C       -1.12784467      -1.21934513      -0.28771961
C        0.14545811      -1.62586716       0.46432483
C        1.41409059      -0.79077328       0.30575981
C        1.60427054       0.08072709      -0.80817864
H        0.98970629       2.65534088       0.40190772
H        0.15526998       2.92605597      -1.13359115
H       -0.82271071       1.20028580      -1.11164895
H       -0.08572410       1.09362347       1.67094640
H       -1.95513365      -0.00924422       1.26189919
H       -2.65579664       0.31710113      -0.27816482
H       -1.88970056      -1.98763129      -0.14258380
H       -0.90296516      -1.20547139      -1.35793344
H       -0.12128246      -1.61631315       1.52946966
H        0.36332178      -2.67933190       0.26679965
H        1.14195205       0.19061546       1.56107283
H        2.29157290      -1.41716807       0.47204985
H        2.61927377       0.43160154      -0.97509398
H        1.06418363      -0.05932431      -1.74002694
21
Frame=15 idx=010249 GeodesicLength=2.4424356373658984 rxn_smarts="[C:1]1([H:8])([H:9])[C:2]([H:10])([H:11])[C:3]([H:12])([H:13])[C:4]([H:14])([H:15])[C:5]([H:16])([H:17])[C:6]([H:18])([H:19])[C:7]1([H:20])[H:21]>>[C:1](=[C:2]([C:3]([C:4]([C:5]([C:6](=[C:7]([H:20])[H:21])[H:19])([H:16])[H:17])([H:14])[H:15])([H:12])[H:13])[H:10])([H:8])[H:9].[H:11][H:18]"
C        0.26228991       2.26655637      -0.29270657
C       -0.80220436       1.34525679      -0.02828046
C       -1.69798775       0.12523243       0.18695412
C       -1.13336809      -1.22862515      -0.28490005
C        0.14065173      -1.61897475       0.47441133
C        1.41835952      -0.80150733       0.29385231
C        1.59905541       0.08328445      -0.81682058
H        0.99446265       2.64658357       0.41035116
H        0.06984006       3.00683452      -1.06499201
H       -0.69130754       1.11012467      -1.11032117
H       -0.11502547       1.12576088       1.69868847
H       -1.96814286       0.00043195       1.23986389
H       -2.64733661       0.32816054      -0.31560277
H       -1.89675971      -1.99211734      -0.12533279
H       -0.90568852      -1.23580147      -1.35456328
H       -0.12540142      -1.57529835       1.53905628
H        0.34939537      -2.68011466       0.31147257
H        1.19208335       0.18117340       1.56975393
H        2.28299909      -1.45846191       0.40384968
H        2.61359841       0.43489541      -0.98547093
H        1.06048684      -0.06339402      -1.74926312
21
Frame=16 idx=010249 GeodesicLength=2.6133717198374606 rxn_smarts="[C:1]1([H:8])([H:9])[C:2]([H:10])([H:11])[C:3]([H:12])([H:13])[C:4]([H:14])([H:15])[C:5]([H:16])([H:17])[C:6]([H:18])([H:19])[C:7]1([H:20])[H:21]>>[C:1](=[C:2]([C:3]([C:4]([C:5]([C:6](=[C:7]([H:20])[H:21])[H:19])([H:16])[H:17])([H:14])[H:15])([H:12])[H:13])[H:10])([H:8])[H:9].[H:11][H:18]"
C        0.25181245       2.28812123      -0.29446219
C       -0.80006960       1.34184425      -0.04680961
C       -1.70078943       0.12603568       0.16574372
C       -1.13756196      -1.23660727      -0.28399339
C        0.13599427      -1.61134874       0.48400317
C        1.42386973      -0.81401737       0.28226490
C        1.59787165       0.08384837      -0.82470758
H        0.99831559       2.63783374       0.40964008
H       -0.01941304       3.07704369      -0.99259650
H       -0.56992074       1.03153765      -1.09104005
H       -0.14821407       1.16309558       1.72618852
H       -1.98062026       0.00894518       1.21723067
H       -2.63932181       0.33807809      -0.35251103
H       -1.90241575      -1.99569678      -0.11232486
H       -0.90600208      -1.26252700      -1.35255056
H       -0.12953173      -1.53217986       1.54695336
H        0.33457442      -2.67930035       0.35706354
H        1.24742781       0.16947772       1.57759001
H        2.27069705      -1.50154800       0.33598445
H        2.61234899       0.43577536      -0.99362762
H        1.06094848      -0.06841118      -1.75803904
