15
Frame=0 idx=005895 GeodesicLength=0.0 rxn_smarts="[C:1]([C:2]([C:3]([H:11])([H:12])[H:13])([C:4](=[O:5])[N:6]([H:14])[H:15])[H:10])([H:7])([H:8])[H:9]>>[C:1]([C:2]1([C:3]([H:11])([H:12])[H:13])/[C:4](=[N:6]/[H:15])[O:5]1)([H:7])([H:8])[H:9].[H:10][H:14]"
C       -0.68202237      -1.31873724       0.54127487
C       -0.16788176      -0.01168544       0.05729712
C       -1.11717285       1.12045490      -0.09568512
C        1.26375741       0.31305556       0.33988885
O        1.24480412       0.63063588       1.55281586
N        2.11196197       0.20326023      -0.62100200
H       -0.81683185      -1.20726681       1.62113072
H        0.03755693      -2.11722563       0.37065241
H       -1.64742345      -1.56353742       0.10004771
H       -0.01611359      -0.43045237      -1.64801939
H       -0.68768918       1.92576967      -0.68845425
H       -2.07090463       0.79608234      -0.51046332
H       -1.29434835       1.50074667       0.91459741
H        0.78358436      -0.27860215      -1.58510367
H        3.05872319       0.43750180      -0.34897720
15
Frame=1 idx=005895 GeodesicLength=0.0774116089668495 rxn_smarts="[C:1]([C:2]([C:3]([H:11])([H:12])[H:13])([C:4](=[O:5])[N:6]([H:14])[H:15])[H:10])([H:7])([H:8])[H:9]>>[C:1]([C:2]1([C:3]([H:11])([H:12])[H:13])/[C:4](=[N:6]/[H:15])[O:5]1)([H:7])([H:8])[H:9].[H:10][H:14]"
C       -0.68294336      -1.31665697       0.54809302
C       -0.16696880      -0.01130935       0.05622114
C       -1.11866360       1.12215673      -0.08790732
C        1.26525765       0.31159365       0.33094313
O        1.23272296       0.62806227       1.54373395
N        2.11297251       0.20079246      -0.63198035
H       -0.83349858      -1.19989438       1.62510879
H        0.03937765      -2.11573312       0.39173221
H       -1.64125923      -1.56801663       0.09497522
H       -0.01016529      -0.43032462      -1.64867673
H       -0.68813250       1.93589171      -0.66848969
H       -2.06682077       0.79957289      -0.51691453
H       -1.30868517       1.49099442       0.92406727
H        0.80714954      -0.28019507      -1.60287887
H        3.05965700       0.43306601      -0.35802724
15
Frame=2 idx=005895 GeodesicLength=0.1547940469919693 rxn_smarts="[C:1]([C:2]([C:3]([H:11])([H:12])[H:13])([C:4](=[O:5])[N:6]([H:14])[H:15])[H:10])([H:7])([H:8])[H:9]>>[C:1]([C:2]1([C:3]([H:11])([H:12])[H:13])/[C:4](=[N:6]/[H:15])[O:5]1)([H:7])([H:8])[H:9].[H:10][H:14]"
C       -0.68395838      -1.31454823       0.55494766
C       -0.16619175      -0.01093902       0.05514223
C       -1.12024660       1.12384112      -0.08006458
C        1.26659916       0.31011755       0.32196253
O        1.22081219       0.62544487       1.53451900
N        2.11397170       0.19835492      -0.64287779
H       -0.85013222      -1.19263876       1.62889535
H        0.04100513      -2.11403221       0.41282076
H       -1.63502746      -1.57255153       0.09016002
H       -0.00407560      -0.43019008      -1.64934120
H       -0.68871182       1.94579871      -0.64839023
H       -2.06273318       0.80329444      -0.52315046
H       -1.32298565       1.48125775       0.93332215
H        0.83112017      -0.28190444      -1.62097003
H        3.06055432       0.42869492      -0.36697541
15
Frame=3 idx=005895 GeodesicLength=0.2321561608925361 rxn_smarts="[C:1]([C:2]([C:3]([H:11])([H:12])[H:13])([C:4](=[O:5])[N:6]([H:14])[H:15])[H:10])([H:7])([H:8])[H:9]>>[C:1]([C:2]1([C:3]([H:11])([H:12])[H:13])/[C:4](=[N:6]/[H:15])[O:5]1)([H:7])([H:8])[H:9].[H:10][H:14]"
C       -0.68505879      -1.31240918       0.56183681
C       -0.16555617      -0.01056910       0.05405499
C       -1.12193326       1.12550777      -0.07215588
C        1.26777403       0.30864274       0.31293624
O        1.20906705       0.62280132       1.52516899
N        2.11495460       0.19597308      -0.65370323
H       -0.86671451      -1.18550186       1.63249767
H        0.04245630      -2.11211551       0.43390459
H       -1.62872619      -1.57714568       0.08560808
H        0.00213800      -0.43004430      -1.65001919
H       -0.68944274       1.95549056      -0.62816412
H       -2.05865966       0.80723997      -0.52915999
H       -1.33725414       1.47154365       0.94236947
H        0.85552918      -0.28371689      -1.63938044
H        3.06142628       0.42430343      -0.37579398
15
Frame=4 idx=005895 GeodesicLength=0.30952116044981454 rxn_smarts="[C:1]([C:2]([C:3]([H:11])([H:12])[H:13])([C:4](=[O:5])[N:6]([H:14])[H:15])[H:10])([H:7])([H:8])[H:9]>>[C:1]([C:2]1([C:3]([H:11])([H:12])[H:13])/[C:4](=[N:6]/[H:15])[O:5]1)([H:7])([H:8])[H:9].[H:10][H:14]"
C       -0.68624683      -1.31024040       0.56875996
C       -0.16506655      -0.01020156       0.05295490
C       -1.12372360       1.12715752      -0.06418041
C        1.26877757       0.30716529       0.30385704
O        1.19748591       0.62013023       1.51568537
N        2.11592172       0.19364596      -0.66445902
H       -0.88324024      -1.17848670       1.63592345
H        0.04373090      -2.10998445       0.45497412
H       -1.62236554      -1.58179759       0.08132590
H        0.00845432      -0.42989291      -1.65071520
H       -0.69032138       1.96496406      -0.60781949
H       -2.05460922       0.81141117      -0.53493578
H       -1.35148414       1.46186018       0.95121752
H        0.88041886      -0.28563338      -1.65810823
H        3.06226821       0.41990258      -0.38448011
15
Frame=5 idx=005895 GeodesicLength=0.38686866620845967 rxn_smarts="[C:1]([C:2]([C:3]([H:11])([H:12])[H:13])([C:4](=[O:5])[N:6]([H:14])[H:15])[H:10])([H:7])([H:8])[H:9]>>[C:1]([C:2]1([C:3]([H:11])([H:12])[H:13])/[C:4](=[N:6]/[H:15])[O:5]1)([H:7])([H:8])[H:9].[H:10][H:14]"
C       -0.68751428      -1.30803975       0.57571531
C       -0.16472766      -0.00983153       0.05183569
C       -1.12562750       1.12879016      -0.05613795
C        1.26960243       0.30569964       0.29471507
O        1.18606282       0.61744710       1.50606696
N        2.11686870       0.19139751      -0.67515329
H       -0.89969250      -1.17159489       1.63917957
H        0.04484407      -2.10763201       0.47601543
H       -1.61594278      -1.58651017       0.07732074
H        0.01485332      -0.42973306      -1.65143632
H       -0.69136211       1.97421842      -0.58736518
H       -2.05059897       0.81580155      -0.54046646
H       -1.36567810       1.45221348       0.95987392
H        0.90582277      -0.28764008      -1.67715578
H        3.06308979       0.41541365      -0.39300771
15
Frame=6 idx=005895 GeodesicLength=0.46423523769028435 rxn_smarts="[C:1]([C:2]([C:3]([H:11])([H:12])[H:13])([C:4](=[O:5])[N:6]([H:14])[H:15])[H:10])([H:7])([H:8])[H:9]>>[C:1]([C:2]1([C:3]([H:11])([H:12])[H:13])/[C:4](=[N:6]/[H:15])[O:5]1)([H:7])([H:8])[H:9].[H:10][H:14]"
C       -0.68888948      -1.30581495       0.58270448
C       -0.16454083      -0.00947966       0.05069561
C       -1.12761781       1.13040754      -0.04802879
C        1.27025164       0.30419410       0.28551447
O        1.17480229       0.61470578       1.49632571
N        2.11780727       0.18916240      -0.68577178
H       -0.91609586      -1.16483003       1.64227596
H        0.04575419      -2.10508200       0.49702793
H       -1.60949843      -1.59127048       0.07359654
H        0.02130741      -0.42959378      -1.65218299
H       -0.69251298       1.98324382      -0.56680748
H       -2.04661562       0.82043381      -0.54574891
H       -1.37980216       1.44261777       0.96834489
H        0.93180173      -0.28977827      -1.69651036
H        3.06384865       0.41108397      -0.40143528
15
Frame=7 idx=005895 GeodesicLength=0.5416287671721982 rxn_smarts="[C:1]([C:2]([C:3]([H:11])([H:12])[H:13])([C:4](=[O:5])[N:6]([H:14])[H:15])[H:10])([H:7])([H:8])[H:9]>>[C:1]([C:2]1([C:3]([H:11])([H:12])[H:13])/[C:4](=[N:6]/[H:15])[O:5]1)([H:7])([H:8])[H:9].[H:10][H:14]"
C       -0.69035138      -1.30355923       0.58972526
C       -0.16451307      -0.00913200       0.04952441
C       -1.12971794       1.13200919      -0.03985059
C        1.27071316       0.30268639       0.27623660
O        1.16369362       0.61194405       1.48645185
N        2.11872858       0.18699792      -0.69633238
H       -0.93241778      -1.15819373       1.64521839
H        0.04649833      -2.10231669       0.51799543
H       -1.60301779      -1.59608673       0.07016174
H        0.02778200      -0.42946223      -1.65296583
H       -0.69381242       1.99204439      -0.54615348
H       -2.04268984       0.82529081      -0.55077007
H       -1.39387272       1.43307553       0.97664145
H        0.95840338      -0.29201417      -1.71617725
H        3.06457386       0.40671648      -0.40970554
15
Frame=8 idx=005895 GeodesicLength=0.6190759342532118 rxn_smarts="[C:1]([C:2]([C:3]([H:11])([H:12])[H:13])([C:4](=[O:5])[N:6]([H:14])[H:15])[H:10])([H:7])([H:8])[H:9]>>[C:1]([C:2]1([C:3]([H:11])([H:12])[H:13])/[C:4](=[N:6]/[H:15])[O:5]1)([H:7])([H:8])[H:9].[H:10][H:14]"
C       -0.69189634      -1.30127188       0.59677569
C       -0.16465015      -0.00878749       0.04831331
C       -1.13193468       1.13359435      -0.03160272
C        1.27097912       0.30118219       0.26686917
O        1.15273028       0.60916978       1.47644093
N        2.11963108       0.18492041      -0.70684109
H       -0.94864706      -1.15168412       1.64801709
H        0.04708648      -2.09933369       0.53890414
H       -1.59650531      -1.60096050       0.06702546
H        0.03423690      -0.42934270      -1.65379284
H       -0.69526503       2.00062087      -0.52541164
H       -2.03883755       0.83037076      -0.55551773
H       -1.40788830       1.42359136       0.98477602
H        0.98569192      -0.29433900      -1.73615515
H        3.06526865       0.40226967      -0.41780063
15
Frame=9 idx=005895 GeodesicLength=0.6964722178453056 rxn_smarts="[C:1]([C:2]([C:3]([H:11])([H:12])[H:13])([C:4](=[O:5])[N:6]([H:14])[H:15])[H:10])([H:7])([H:8])[H:9]>>[C:1]([C:2]1([C:3]([H:11])([H:12])[H:13])/[C:4](=[N:6]/[H:15])[O:5]1)([H:7])([H:8])[H:9].[H:10][H:14]"
C       -0.69353171      -1.29895426       0.60385630
C       -0.16495529      -0.00845104       0.04706052
C       -1.13426117       1.13516489      -0.02328155
C        1.27104719       0.29966799       0.25740948
O        1.14191006       0.60637229       1.46629794
N        2.12051480       0.18291524      -0.71729811
H       -0.96478362      -1.14530810       1.65067855
H        0.04750877      -2.09613806       0.55974871
H       -1.58997545      -1.60588678       0.06419226
H        0.04065810      -0.42924180      -1.65466713
H       -0.69685716       2.00896823      -0.50458917
H       -2.03506266       0.83567893      -0.55998433
H       -1.42183906       1.41417585       0.99275218
H        1.01370866      -0.29676508      -1.75644061
H        3.06591854       0.39780170      -0.42573503
15
Frame=10 idx=005895 GeodesicLength=0.7739368918924626 rxn_smarts="[C:1]([C:2]([C:3]([H:11])([H:12])[H:13])([C:4](=[O:5])[N:6]([H:14])[H:15])[H:10])([H:7])([H:8])[H:9]>>[C:1]([C:2]1([C:3]([H:11])([H:12])[H:13])/[C:4](=[N:6]/[H:15])[O:5]1)([H:7])([H:8])[H:9].[H:10][H:14]"
C       -0.69525495      -1.29660479       0.61096555
C       -0.16543580      -0.00812285       0.04575304
C       -1.13670369       1.13672039      -0.01488662
C        1.27090769       0.29814716       0.24783964
O        1.13122595       0.60355619       1.45601354
N        2.12138208       0.18100001      -0.72771123
H       -0.98081619      -1.13906244       1.65321381
H        0.04777443      -2.09272959       0.58051445
H       -1.58343959      -1.61086579       0.06167413
H        0.04697542      -0.42916721      -1.65559844
H       -0.69859600       2.01708610      -0.48369464
H       -2.03138568       0.84121483      -0.56415203
H       -1.43572001       1.40483391       1.00058501
H        1.04255859      -0.29928442      -1.77702848
H        3.06652775       0.39327850      -0.43348773
15
Frame=11 idx=005895 GeodesicLength=0.8514390496094492 rxn_smarts="[C:1]([C:2]([C:3]([H:11])([H:12])[H:13])([C:4](=[O:5])[N:6]([H:14])[H:15])[H:10])([H:7])([H:8])[H:9]>>[C:1]([C:2]1([C:3]([H:11])([H:12])[H:13])/[C:4](=[N:6]/[H:15])[O:5]1)([H:7])([H:8])[H:9].[H:10][H:14]"
C       -0.69706189      -1.29422163       0.61810213
C       -0.16609819      -0.00780089       0.04438221
C       -1.13926913       1.13826075      -0.00641584
C        1.27055181       0.29662642       0.23814562
O        1.12067080       0.60073048       1.44558138
N        2.12223076       0.17919440      -0.73808863
H       -0.99673132      -1.13294907       1.65563115
H        0.04789385      -2.08910464       0.60118820
H       -1.57690413      -1.61589701       0.05948119
H        0.05314324      -0.42911986      -1.65659462
H       -0.70048860       2.02497449      -0.46273481
H       -2.02782474       0.84697598      -0.56800818
H       -1.44952995       1.39557049       1.00828748
H        1.07231860      -0.30189321      -1.79791632
H        3.06709888       0.38865329      -0.44104096
15
Frame=12 idx=005895 GeodesicLength=0.9289928102934882 rxn_smarts="[C:1]([C:2]([C:3]([H:11])([H:12])[H:13])([C:4](=[O:5])[N:6]([H:14])[H:15])[H:10])([H:7])([H:8])[H:9]>>[C:1]([C:2]1([C:3]([H:11])([H:12])[H:13])/[C:4](=[N:6]/[H:15])[O:5]1)([H:7])([H:8])[H:9].[H:10][H:14]"
C       -0.69895892      -1.29180560       0.62526578
C       -0.16694968      -0.00749034       0.04293985
C       -1.14195479       1.13978707       0.00213444
C        1.26997224       0.29509329       0.22831382
O        1.11024084       0.59788453       1.43499619
N        2.12306354       0.17749506      -0.74843464
H       -1.01252703      -1.12696942       1.65794096
H        0.04786100      -2.08526929       0.62175936
H       -1.57038964      -1.62097599       0.05762383
H        0.05910342      -0.42910867      -1.65766232
H       -0.70252519       2.03263080      -0.44171794
H       -2.02439422       0.85296764      -0.57153446
H       -1.46325774       1.38639496       1.01587047
H        1.10309480      -0.30460446      -1.81909707
H        3.06762138       0.38397044      -0.44839827
15
Frame=13 idx=005895 GeodesicLength=1.0065861660722273 rxn_smarts="[C:1]([C:2]([C:3]([H:11])([H:12])[H:13])([C:4](=[O:5])[N:6]([H:14])[H:15])[H:10])([H:7])([H:8])[H:9]>>[C:1]([C:2]1([C:3]([H:11])([H:12])[H:13])/[C:4](=[N:6]/[H:15])[O:5]1)([H:7])([H:8])[H:9].[H:10][H:14]"
C       -0.70095490      -1.28935791       0.63245684
C       -0.16799881      -0.00719709       0.04141912
C       -1.14475821       1.14130041       0.01076857
C        1.26916092       0.29353280       0.21833029
O        1.09993274       0.59500650       1.42425154
N        2.12388187       0.17589747      -0.75875434
H       -1.02820059      -1.12112467       1.66015417
H        0.04766567      -2.08123109       0.64221369
H       -1.56391875      -1.62609757       0.05611177
H        0.06479809      -0.42914383      -1.65880633
H       -0.70469591       2.04005133      -0.42065250
H       -2.02110609       0.85919761      -0.57471205
H       -1.47688964       1.37731740       1.02334706
H        1.13500152      -0.30743790      -1.84056021
H        3.06808208       0.37928655      -0.45556762
15
Frame=14 idx=005895 GeodesicLength=1.0842027083694559 rxn_smarts="[C:1]([C:2]([C:3]([H:11])([H:12])[H:13])([C:4](=[O:5])[N:6]([H:14])[H:15])[H:10])([H:7])([H:8])[H:9]>>[C:1]([C:2]1([C:3]([H:11])([H:12])[H:13])/[C:4](=[N:6]/[H:15])[O:5]1)([H:7])([H:8])[H:9].[H:10][H:14]"
C       -0.70308374      -1.28688613       0.63967595
C       -0.16925273      -0.00694338       0.03981643
C       -1.14765199       1.14280477       0.01949150
C        1.26811583       0.29188477       0.20818884
O        1.08975092       0.59204268       1.41334871
N        2.12469481       0.17433919      -0.76904037
H       -1.04377700      -1.11541605       1.66228286
H        0.04725908      -2.07701816       0.66254462
H       -1.55754522      -1.63124618       0.05495355
H        0.07016524      -0.42925285      -1.66002891
H       -0.70694429       2.04722876      -0.39954057
H       -2.01795466       0.86568873      -0.57753125
H       -1.49038835       1.36835498       1.03073594
H        1.16817479      -0.31046640      -1.86228359
H        3.06843731       0.37488527      -0.46261372
15
Frame=15 idx=005895 GeodesicLength=1.1618018724384298 rxn_smarts="[C:1]([C:2]([C:3]([H:11])([H:12])[H:13])([C:4](=[O:5])[N:6]([H:14])[H:15])[H:10])([H:7])([H:8])[H:9]>>[C:1]([C:2]1([C:3]([H:11])([H:12])[H:13])/[C:4](=[N:6]/[H:15])[O:5]1)([H:7])([H:8])[H:9].[H:10][H:14]"
C       -0.70541001      -1.28440663       0.64692568
C       -0.17071678      -0.00677212       0.03813437
C       -1.15057995       1.14430631       0.02831018
C        1.26684282       0.29003464       0.19789541
O        1.07970912       0.58888888       1.40230024
N        2.12551992       0.17268870      -0.77927175
H       -1.05931172      -1.10984470       1.66433853
H        0.04654268      -2.07268575       0.68274791
H       -1.55135940      -1.63639499       0.05415335
H        0.07514594      -0.42948843      -1.66132456
H       -0.70916479       2.05414530      -0.37838310
H       -2.01490594       0.87248963      -0.57997851
H       -1.50368852       1.35953759       1.03805010
H        1.20276778      -0.31382420      -1.88422855
H        3.06860884       0.37132575      -0.46966929
15
Frame=16 idx=005895 GeodesicLength=1.239358329300109 rxn_smarts="[C:1]([C:2]([C:3]([H:11])([H:12])[H:13])([C:4](=[O:5])[N:6]([H:14])[H:15])[H:10])([H:7])([H:8])[H:9]>>[C:1]([C:2]1([C:3]([H:11])([H:12])[H:13])/[C:4](=[N:6]/[H:15])[O:5]1)([H:7])([H:8])[H:9].[H:10][H:14]"
C       -0.70808596      -1.28196012       0.65421258
C       -0.17239064      -0.00678547       0.03638936
C       -1.15340255       1.14581794       0.03723355
C        1.26537105       0.28771102       0.18748943
O        1.06984728       0.58529692       1.39114953
N        2.12640251       0.17061393      -0.78938390
H       -1.07495152      -1.10441095       1.66633084
H        0.04527762      -2.06836482       0.70283273
H       -1.54555637      -1.64148626       0.05370808
H        0.07967857      -0.42997585      -1.66267083
H       -0.71109683       2.06076280      -0.35717093
H       -2.01185176       0.87971198      -0.58205072
H       -1.51664276       1.35092647       1.04530216
H        1.23898103      -0.31781858      -1.90631102
H        3.06842033       0.36996100      -0.47706086
