13
Frame=0 idx=005531 GeodesicLength=0.0 rxn_smarts="[O:1]=[C:2]([C:3]([C@@:4]1([H:10])[C:5]([H:11])([H:12])[N:6]1[H:13])([H:8])[H:9])[H:7]>>[O:1]=[C:2]([C:3]([C:4](=[C:5]([H:11])[H:12])[H:10])([H:8])[H:9])[N:6]([H:7])[H:13]"
O        0.90503046       1.31775759      -1.22374634
C        0.89386549       0.11323038      -0.84045163
C        0.99804816      -0.20365593       0.67349607
C       -0.50670126      -0.38363860       0.86470451
C       -1.37927406       0.62116617       0.59890859
N       -0.20189653      -0.77899347      -1.10266016
H        1.51644816      -0.59210853      -1.54033720
H        1.43641850       0.62167373       1.22990021
H        1.52784089      -1.12979564       0.88516230
H       -0.87262243      -1.32655367       1.25610381
H       -1.02853311       1.61933311       0.36265781
H       -2.44557854       0.43302573       0.59921579
H       -0.84304570      -0.31144085      -1.76295373
13
Frame=1 idx=005531 GeodesicLength=0.11518969213157197 rxn_smarts="[O:1]=[C:2]([C:3]([C@@:4]1([H:10])[C:5]([H:11])([H:12])[N:6]1[H:13])([H:8])[H:9])[H:7]>>[O:1]=[C:2]([C:3]([C:4](=[C:5]([H:11])[H:12])[H:10])([H:8])[H:9])[N:6]([H:7])[H:13]"
O        0.92340387       1.33556979      -1.20933639
C        0.91368637       0.13226981      -0.83566646
C        0.99930770      -0.20031103       0.67349285
C       -0.50418879      -0.37869338       0.86203833
C       -1.38635922       0.61789084       0.58619975
N       -0.20997863      -0.77221363      -1.10303136
H        1.50964198      -0.61223426      -1.54226140
H        1.44264926       0.61108569       1.24570813
H        1.52767177      -1.13214785       0.86569376
H       -0.86672285      -1.31614316       1.26881802
H       -1.04083553       1.61872529       0.35262911
H       -2.45199444       0.42798182       0.60983208
H       -0.85628149      -0.33177994      -1.77411641
13
Frame=2 idx=005531 GeodesicLength=0.2303469971005771 rxn_smarts="[O:1]=[C:2]([C:3]([C@@:4]1([H:10])[C:5]([H:11])([H:12])[N:6]1[H:13])([H:8])[H:9])[H:7]>>[O:1]=[C:2]([C:3]([C:4](=[C:5]([H:11])[H:12])[H:10])([H:8])[H:9])[N:6]([H:7])[H:13]"
O        0.94132775       1.35406197      -1.19387898
C        0.93435220       0.15171464      -0.83066438
C        1.00063472      -0.19710544       0.67327804
C       -0.50165584      -0.37368783       0.85896011
C       -1.39323002       0.61459350       0.57298223
N       -0.21803300      -0.76562365      -1.10372987
H        1.50236044      -0.63108332      -1.54381799
H        1.44894078       0.59956536       1.26160923
H        1.52727083      -1.13437190       0.84605542
H       -0.86097355      -1.30527059       1.28121361
H       -1.05283681       1.61810200       0.34240450
H       -2.45782816       0.42379306       0.62055619
H       -0.87032935      -0.35468780      -1.78496812
13
Frame=3 idx=005531 GeodesicLength=0.3454720008605834 rxn_smarts="[O:1]=[C:2]([C:3]([C@@:4]1([H:10])[C:5]([H:11])([H:12])[N:6]1[H:13])([H:8])[H:9])[H:7]>>[O:1]=[C:2]([C:3]([C:4](=[C:5]([H:11])[H:12])[H:10])([H:8])[H:9])[N:6]([H:7])[H:13]"
O        0.95884288       1.37326125      -1.17730411
C        0.95588631       0.17162003      -0.82538601
C        1.00202663      -0.19404302       0.67284231
C       -0.49910405      -0.36861444       0.85546032
C       -1.39988010       0.61130024       0.55927627
N       -0.22609288      -0.75918923      -1.10478135
H        1.49463460      -0.64853399      -1.54507471
H        1.45528259       0.58703953       1.27760869
H        1.52663174      -1.13648664       0.82618968
H       -0.85538839      -1.29392186       1.29326309
H       -1.06452519       1.61747647       0.33195778
H       -2.46304624       0.42051278       0.63130258
H       -0.88526789      -0.38042112      -1.79535454
13
Frame=4 idx=005531 GeodesicLength=0.4605636224351167 rxn_smarts="[O:1]=[C:2]([C:3]([C@@:4]1([H:10])[C:5]([H:11])([H:12])[N:6]1[H:13])([H:8])[H:9])[H:7]>>[O:1]=[C:2]([C:3]([C:4](=[C:5]([H:11])[H:12])[H:10])([H:8])[H:9])[N:6]([H:7])[H:13]"
O        0.97600212       1.39319712      -1.15953217
C        0.97831380       0.19204974      -0.81976288
C        1.00348172      -0.19112943       0.67217513
C       -0.49653468      -0.36346223       0.85153032
C       -1.40630065       0.60804692       0.54510900
N       -0.23419855      -0.75286244      -1.10621421
H        1.48648579      -0.66444717      -1.54611369
H        1.46166659       0.57342266       1.29371029
H        1.52574575      -1.13851166       0.80602609
H       -0.84998314      -1.28208214       1.30493449
H       -1.07588325       1.61686968       0.32126233
H       -2.46761940       0.41818772       0.64195451
H       -0.90117610      -0.40927875      -1.80507920
13
Frame=5 idx=005531 GeodesicLength=0.575619471736543 rxn_smarts="[O:1]=[C:2]([C:3]([C@@:4]1([H:10])[C:5]([H:11])([H:12])[N:6]1[H:13])([H:8])[H:9])[H:7]>>[O:1]=[C:2]([C:3]([C:4](=[C:5]([H:11])[H:12])[H:10])([H:8])[H:9])[N:6]([H:7])[H:13]"
O        0.99287202       1.41390349      -1.14047088
C        1.00166341       0.21307697      -0.81371641
C        1.00499818      -0.18837244       0.67126332
C       -0.49395026      -0.35821633       0.84715825
C       -1.41248108       0.60488020       0.53050839
N       -0.24239575      -0.74657995      -1.10806428
H        1.47792675      -0.67866220      -1.54703241
H        1.46808606       0.55861420       1.30991555
H        1.52459941      -1.14046721       0.78547819
H       -0.84477855      -1.26973677       1.31618467
H       -1.08688828       1.61631175       0.31028781
H       -2.47152667       0.41686317       0.65237934
H       -0.91812524      -0.44161491      -1.81389155
13
Frame=6 idx=005531 GeodesicLength=0.6906321711763157 rxn_smarts="[O:1]=[C:2]([C:3]([C@@:4]1([H:10])[C:5]([H:11])([H:12])[N:6]1[H:13])([H:8])[H:9])[H:7]>>[O:1]=[C:2]([C:3]([C:4](=[C:5]([H:11])[H:12])[H:10])([H:8])[H:9])[N:6]([H:7])[H:13]"
O        1.00953248       1.43541725      -1.12001334
C        1.02596449       0.23478374      -0.80715751
C        1.00657371      -0.18578260       0.67009020
C       -0.49135240      -0.35285549       0.84233212
C       -1.41840524       0.60186193       0.51551087
N       -0.25074456      -0.74025634      -1.11037385
H        1.46895187      -0.69099633      -1.54794748
H        1.47453505       0.54249598       1.32622150
H        1.52317314      -1.14237319       0.76444029
H       -0.83979701      -1.25686931       1.32696141
H       -1.09750743       1.61584583       0.29900750
H       -2.47475412       0.41657082       0.66240045
H       -0.93616998      -0.47784231      -1.82147216
13
Frame=7 idx=005531 GeodesicLength=0.80559260782193 rxn_smarts="[O:1]=[C:2]([C:3]([C@@:4]1([H:10])[C:5]([H:11])([H:12])[N:6]1[H:13])([H:8])[H:9])[H:7]>>[O:1]=[C:2]([C:3]([C:4](=[C:5]([H:11])[H:12])[H:10])([H:8])[H:9])[N:6]([H:7])[H:13]"
O        1.02607844       1.45778186      -1.09803345
C        1.05124972       0.25726234      -0.79998658
C        1.00820404      -0.18337424       0.66863204
C       -0.48874587      -0.34735211       0.83703265
C       -1.42405464       0.59907048       0.50015063
N       -0.25931803      -0.73378133      -1.11320104
H        1.45954049      -0.70123828      -1.54899577
H        1.48100739       0.52492716       1.34261821
H        1.52143759      -1.14425039       0.74278121
H       -0.83506917      -1.24346339       1.33719460
H       -1.10770005       1.61553063       0.28739355
H       -2.47730136       0.41733922       0.67182452
H       -0.95532854      -0.51845196      -1.82741056
13
Frame=8 idx=005531 GeodesicLength=0.9205133331701839 rxn_smarts="[O:1]=[C:2]([C:3]([C@@:4]1([H:10])[C:5]([H:11])([H:12])[N:6]1[H:13])([H:8])[H:9])[H:7]>>[O:1]=[C:2]([C:3]([C:4](=[C:5]([H:11])[H:12])[H:10])([H:8])[H:9])[N:6]([H:7])[H:13]"
O        1.04262793       1.48105180      -1.07439733
C        1.07756104       0.28061672      -0.79210143
C        1.00989762      -0.18117325       0.66686006
C       -0.48614220      -0.34167015       0.83124569
C       -1.42942076       0.59661060       0.48447275
N       -0.26822275      -0.72700616      -1.11662304
H        1.44965667      -0.70914235      -1.55035143
H        1.48752220       0.50572931       1.35909089
H        1.51937245      -1.14613057       0.72034645
H       -0.83064112      -1.22950167       1.34681988
H       -1.11742659       1.61545320       0.27542462
H       -2.47921195       0.41917510       0.68039100
H       -0.97557255      -0.56401258      -1.83117811
13
Frame=9 idx=005531 GeodesicLength=1.0353390644366895 rxn_smarts="[O:1]=[C:2]([C:3]([C@@:4]1([H:10])[C:5]([H:11])([H:12])[N:6]1[H:13])([H:8])[H:9])[H:7]>>[O:1]=[C:2]([C:3]([C:4](=[C:5]([H:11])[H:12])[H:10])([H:8])[H:9])[N:6]([H:7])[H:13]"
O        1.05927975       1.50530122      -1.04890570
C        1.10491688       0.30496233      -0.78336183
C        1.01159216      -0.17919219       0.66471255
C       -0.48355560      -0.33577428       0.82489206
C       -1.43446860       0.59457849       0.46843803
N       -0.27755007      -0.71978127      -1.12074158
H        1.43920702      -0.71442829      -1.55215797
H        1.49399649       0.48472192       1.37558654
H        1.51684849      -1.14802295       0.69691360
H       -0.82655657      -1.21499349       1.35564873
H       -1.12660547       1.61569778       0.26305366
H       -2.48045108       0.42219804       0.68810319
H       -0.99665341      -0.61526730      -1.83218127
13
Frame=10 idx=005531 GeodesicLength=1.1501153858642128 rxn_smarts="[O:1]=[C:2]([C:3]([C@@:4]1([H:10])[C:5]([H:11])([H:12])[N:6]1[H:13])([H:8])[H:9])[H:7]>>[O:1]=[C:2]([C:3]([C:4](=[C:5]([H:11])[H:12])[H:10])([H:8])[H:9])[N:6]([H:7])[H:13]"
O        1.07618059       1.53060019      -1.02138989
C        1.13336179       0.33041400      -0.77366032
C        1.01331077      -0.17748755       0.66213248
C       -0.48101912      -0.32960824       0.81795349
C       -1.43921495       0.59314077       0.45210639
N       -0.28749478      -0.71189209      -1.12569154
H        1.42810030      -0.71677397      -1.55467859
H        1.50048898       0.46163682       1.39205360
H        1.51384857      -1.14998348       0.67225062
H       -0.82289964      -1.19992087       1.36360541
H       -1.13520679       1.61642004       0.25028021
H       -2.48115058       0.42638926       0.69456974
H       -1.01830514      -0.67293488      -1.82953160
13
Frame=11 idx=005531 GeodesicLength=1.26482591991805 rxn_smarts="[O:1]=[C:2]([C:3]([C@@:4]1([H:10])[C:5]([H:11])([H:12])[N:6]1[H:13])([H:8])[H:9])[H:7]>>[O:1]=[C:2]([C:3]([C:4](=[C:5]([H:11])[H:12])[H:10])([H:8])[H:9])[N:6]([H:7])[H:13]"
O        1.09345014       1.55701818      -0.99162630
C        1.16290429       0.35708153      -0.76286255
C        1.01500272      -0.17611196       0.65901165
C       -0.47858093      -0.32311385       0.81034828
C       -1.44366646       0.59245872       0.43545588
N       -0.29828388      -0.70312954      -1.13163185
H        1.41615563      -0.71582092      -1.55815174
H        1.50696511       0.43618666       1.40836452
H        1.51023791      -1.15204829       0.64603439
H       -0.81976755      -1.18429064       1.37050068
H       -1.14316772       1.61777408       0.23708212
H       -2.48138399       0.43183448       0.69965252
H       -1.03986527      -0.73783844      -1.82217760
13
Frame=12 idx=005531 GeodesicLength=1.3795326295923627 rxn_smarts="[O:1]=[C:2]([C:3]([C@@:4]1([H:10])[C:5]([H:11])([H:12])[N:6]1[H:13])([H:8])[H:9])[H:7]>>[O:1]=[C:2]([C:3]([C:4](=[C:5]([H:11])[H:12])[H:10])([H:8])[H:9])[N:6]([H:7])[H:13]"
O        1.11121163       1.58461144      -0.95942316
C        1.19354246       0.38504659      -0.75085631
C        1.01663944      -0.17514983       0.65520269
C       -0.47631709      -0.31622825       0.80201378
C       -1.44788679       0.59273324       0.41849147
N       -0.31027767      -0.69329906      -1.13871106
H        1.40311926      -0.71120524      -1.56284747
H        1.51345426       0.40803027       1.42430195
H        1.50589983      -1.15428555       0.61788661
H       -0.81729576      -1.16812704       1.37617773
H       -1.15046215       1.61997138       0.22346463
H       -2.48134688       0.43857697       0.70310689
H       -1.06028053      -0.81067491      -1.80880774
13
Frame=13 idx=005531 GeodesicLength=1.4936222786305884 rxn_smarts="[O:1]=[C:2]([C:3]([C@@:4]1([H:10])[C:5]([H:11])([H:12])[N:6]1[H:13])([H:8])[H:9])[H:7]>>[O:1]=[C:2]([C:3]([C:4](=[C:5]([H:11])[H:12])[H:10])([H:8])[H:9])[N:6]([H:7])[H:13]"
O        1.12929914       1.61296397      -0.92463051
C        1.22500995       0.41411462      -0.73758434
C        1.01794787      -0.17463576       0.65046245
C       -0.47428603      -0.30880359       0.79292356
C       -1.45178488       0.59406642       0.40134121
N       -0.32378315      -0.68243270      -1.14697917
H        1.38850096      -0.70272479      -1.56905854
H        1.51960061       0.37690612       1.43944009
H        1.50043604      -1.15655327       0.58730438
H       -0.81551272      -1.15117158       1.38053615
H       -1.15700430       1.62294826       0.20956753
H       -2.48094724       0.44655003       0.70479436
H       -1.07747626      -0.89122774      -1.78811718
13
Frame=14 idx=005531 GeodesicLength=1.6074163442005172 rxn_smarts="[O:1]=[C:2]([C:3]([C@@:4]1([H:10])[C:5]([H:11])([H:12])[N:6]1[H:13])([H:8])[H:9])[H:7]>>[O:1]=[C:2]([C:3]([C:4](=[C:5]([H:11])[H:12])[H:10])([H:8])[H:9])[N:6]([H:7])[H:13]"
O        1.14769731       1.64189873      -0.88744978
C        1.25718978       0.44412684      -0.72308243
C        1.01893966      -0.17467920       0.64464614
C       -0.47259790      -0.30086567       0.78319265
C       -1.45553659       0.59652758       0.38404869
N       -0.33946178      -0.67091120      -1.15633285
H        1.37183821      -0.69027658      -1.57694826
H        1.52556689       0.34257441       1.45336046
H        1.49379967      -1.15890277       0.55407543
H       -0.81453738      -1.13346322       1.38389293
H       -1.16287304       1.62682705       0.19527844
H       -2.48058633       0.45555420       0.70447096
H       -1.08943849      -0.97841018      -1.75915239
13
Frame=15 idx=005531 GeodesicLength=1.7206974174542007 rxn_smarts="[O:1]=[C:2]([C:3]([C@@:4]1([H:10])[C:5]([H:11])([H:12])[N:6]1[H:13])([H:8])[H:9])[H:7]>>[O:1]=[C:2]([C:3]([C:4](=[C:5]([H:11])[H:12])[H:10])([H:8])[H:9])[N:6]([H:7])[H:13]"
O        1.16593886       1.67067956      -0.84814806
C        1.28965469       0.47457804      -0.70740400
C        1.01939868      -0.17528369       0.63765237
C       -0.47124337      -0.29236860       0.77303117
C       -1.45909113       0.59996044       0.36670553
N       -0.35774830      -0.65967112      -1.16646113
H        1.35246072      -0.67405756      -1.58660571
H        1.53110743       0.30499861       1.46564707
H        1.48570158      -1.16112732       0.51807730
H       -0.81417613      -1.11464122       1.38680828
H       -1.16810379       1.63131304       0.18048462
H       -2.48018086       0.46532963       0.70218576
H       -1.09371837      -1.06970981      -1.72197320
13
Frame=16 idx=005531 GeodesicLength=1.8343117371064652 rxn_smarts="[O:1]=[C:2]([C:3]([C@@:4]1([H:10])[C:5]([H:11])([H:12])[N:6]1[H:13])([H:8])[H:9])[H:7]>>[O:1]=[C:2]([C:3]([C:4](=[C:5]([H:11])[H:12])[H:10])([H:8])[H:9])[N:6]([H:7])[H:13]"
O        1.18375697       1.69887760      -0.80759060
C        1.32240195       0.50496809      -0.69060251
C        1.01960456      -0.17643739       0.62964758
C       -0.47018635      -0.28363759       0.76281365
C       -1.46276534       0.60392845       0.34927140
N       -0.37909636      -0.65065661      -1.17651399
H        1.33015861      -0.65476443      -1.59756184
H        1.53661708       0.26462984       1.47597746
H        1.47671264      -1.16318949       0.47996689
H       -0.81414495      -1.09474836       1.39048566
H       -1.17308659       1.63614673       0.16449490
H       -2.48023734       0.47535752       0.69810581
H       -1.08973489      -1.16047436      -1.67849441
