15
Frame=0 idx=011844 GeodesicLength=0.0 rxn_smarts="[C:1]([C:2]#[C:3][C:4]([C:5](=[O:6])[C:7]([H:13])([H:14])[H:15])([H:11])[H:12])([H:8])([H:9])[H:10]>>[C:1]([c:2]1[c:3]([H:11])[c:4]([H:12])[c:5]([C:7]([H:13])([H:14])[H:15])[o:6]1)([H:8])([H:9])[H:10]"
C        2.44082640       0.42131299       0.70023736
C        1.16254558      -0.21838041       0.29742904
C        0.82357702      -1.51878005       0.04933395
C       -0.65366259      -1.32969537      -0.29546432
C       -0.94027370       0.04368386      -0.31937635
O        0.12646229       0.69512079       0.05323566
C       -2.15388836       0.81163412      -0.68378312
H        2.34190446       0.96513548       1.64293361
H        2.79715954       1.12391965      -0.05668426
H        3.18477969      -0.36143544       0.82947077
H       -0.43347623      -1.58112373       0.82715896
H       -1.30349127      -2.08935884      -0.70715258
H       -2.44661929       1.48009612       0.12788829
H       -1.96893267       1.42555707      -1.56801718
H       -2.97691092       0.13231380      -0.89720979
15
Frame=1 idx=011844 GeodesicLength=0.1312721119284983 rxn_smarts="[C:1]([C:2]#[C:3][C:4]([C:5](=[O:6])[C:7]([H:13])([H:14])[H:15])([H:11])[H:12])([H:8])([H:9])[H:10]>>[C:1]([c:2]1[c:3]([H:11])[c:4]([H:12])[c:5]([C:7]([H:13])([H:14])[H:15])[o:6]1)([H:8])([H:9])[H:10]"
C        2.45867797       0.41655619       0.68833212
C        1.16496139      -0.21188436       0.31981530
C        0.81708806      -1.49609476       0.03245988
C       -0.66406120      -1.32122890      -0.27488084
C       -0.96899630       0.05000480      -0.26105400
O        0.07435334       0.71038412       0.15445487
C       -2.16118614       0.81176643      -0.70188723
H        2.39491468       0.95227421       1.63853393
H        2.79489344       1.12459907      -0.07269846
H        3.20541518      -0.36812365       0.78789716
H       -0.40985209      -1.62412300       0.84364441
H       -1.30639006      -2.07732811      -0.70459560
H       -2.50313410       1.48060895       0.08990843
H       -1.92948094       1.42388635      -1.57635745
H       -2.96720322       0.12870264      -0.96357250
15
Frame=2 idx=011844 GeodesicLength=0.26213323620168694 rxn_smarts="[C:1]([C:2]#[C:3][C:4]([C:5](=[O:6])[C:7]([H:13])([H:14])[H:15])([H:11])[H:12])([H:8])([H:9])[H:10]>>[C:1]([c:2]1[c:3]([H:11])[c:4]([H:12])[c:5]([C:7]([H:13])([H:14])[H:15])[o:6]1)([H:8])([H:9])[H:10]"
C        2.47212369       0.41431254       0.67462198
C        1.16589639      -0.20693687       0.34130810
C        0.80851531      -1.47392575       0.01698897
C       -0.67562169      -1.31539367      -0.25394711
C       -0.99913868       0.05257980      -0.20308461
O        0.02051624       0.71802242       0.25666199
C       -2.16269565       0.81296956      -0.71803714
H        2.44101792       0.94472120       1.62929556
H        2.78760658       1.12621563      -0.09165239
H        3.22203244      -0.37047777       0.74780601
H       -0.38571216      -1.66994895       0.85715128
H       -1.31060281      -2.06713224      -0.70190754
H       -2.55113669       1.48143740       0.05227538
H       -1.88226284       1.42447092      -1.57861291
H       -2.95053804       0.12908578      -1.02886756
15
Frame=3 idx=011844 GeodesicLength=0.3928601085330502 rxn_smarts="[C:1]([C:2]#[C:3][C:4]([C:5](=[O:6])[C:7]([H:13])([H:14])[H:15])([H:11])[H:12])([H:8])([H:9])[H:10]>>[C:1]([c:2]1[c:3]([H:11])[c:4]([H:12])[c:5]([C:7]([H:13])([H:14])[H:15])[o:6]1)([H:8])([H:9])[H:10]"
C        2.48161384       0.41426801       0.65972295
C        1.16568621      -0.20335755       0.36154317
C        0.79802528      -1.45242349       0.00329688
C       -0.68800240      -1.31202386      -0.23335178
C       -1.02997282       0.05178849      -0.14764418
O       -0.03426784       0.71872948       0.35685597
C       -2.15923802       0.81511973      -0.73185244
H        2.47975840       0.94350841       1.61542437
H        2.77704567       1.12726149      -0.11349016
H        3.23478502      -0.36932522       0.71164467
H       -0.36141859      -1.71739835       0.86737171
H       -1.31577299      -2.05876330      -0.69954667
H       -2.59032552       1.48269665       0.01613239
H       -1.83002869       1.42691128      -1.57480912
H       -2.92788755       0.13300822      -1.09129776
15
Frame=4 idx=011844 GeodesicLength=0.5236127052985663 rxn_smarts="[C:1]([C:2]#[C:3][C:4]([C:5](=[O:6])[C:7]([H:13])([H:14])[H:15])([H:11])[H:12])([H:8])([H:9])[H:10]>>[C:1]([c:2]1[c:3]([H:11])[c:4]([H:12])[c:5]([C:7]([H:13])([H:14])[H:15])[o:6]1)([H:8])([H:9])[H:10]"
C        2.48789667       0.41594614       0.64414104
C        1.16477806      -0.20090019       0.38019672
C        0.78590796      -1.43166023      -0.00839225
C       -0.70086386      -1.31075560      -0.21351193
C       -1.06089866       0.04828447      -0.09606602
O       -0.08946578       0.71363744       0.45305937
C       -2.15190452       0.81807776      -0.74326720
H        2.51130338       0.94887976       1.59737286
H        2.76493307       1.12652881      -0.13809892
H        3.24424347      -0.36569153       0.68108786
H       -0.33711465      -1.76541853       0.87434144
H       -1.32154157      -2.05200217      -0.69774969
H       -2.62155739       1.48427610      -0.01771632
H       -1.77534288       1.43093929      -1.56540761
H       -2.90037329       0.13985849      -1.14998934
15
Frame=5 idx=011844 GeodesicLength=0.6543466759750034 rxn_smarts="[C:1]([C:2]#[C:3][C:4]([C:5](=[O:6])[C:7]([H:13])([H:14])[H:15])([H:11])[H:12])([H:8])([H:9])[H:10]>>[C:1]([c:2]1[c:3]([H:11])[c:4]([H:12])[c:5]([C:7]([H:13])([H:14])[H:15])[o:6]1)([H:8])([H:9])[H:10]"
C        2.49180040       0.41873742       0.62837606
C        1.16365902      -0.19901781       0.39670163
C        0.77255106      -1.41134513      -0.01841639
C       -0.71389197      -1.31096818      -0.19468320
C       -1.09155198       0.04285797      -0.04894159
O       -0.14478256       0.70422563       0.54376466
C       -2.14194840       0.82157020      -0.75231199
H        2.53588382       0.96041368       1.57578635
H        2.75323650       1.12283557      -0.16495179
H        3.25100268      -0.36069982       0.65733153
H       -0.31256353      -1.81301530       0.87804684
H       -1.32754944      -2.04636461      -0.69653260
H       -2.64614077       1.48610144      -0.04891979
H       -1.72034720       1.43589931      -1.55118822
H       -2.86935762       0.14876964      -1.20406150
15
Frame=6 idx=011844 GeodesicLength=0.7851812771397744 rxn_smarts="[C:1]([C:2]#[C:3][C:4]([C:5](=[O:6])[C:7]([H:13])([H:14])[H:15])([H:11])[H:12])([H:8])([H:9])[H:10]>>[C:1]([c:2]1[c:3]([H:11])[c:4]([H:12])[c:5]([C:7]([H:13])([H:14])[H:15])[o:6]1)([H:8])([H:9])[H:10]"
C        2.49410810       0.42229398       0.61260683
C        1.16259256      -0.19747319       0.41102450
C        0.75819554      -1.39148404      -0.02674778
C       -0.72694136      -1.31235881      -0.17690083
C       -1.12184468       0.03604258      -0.00612433
O       -0.20031674       0.69143930       0.62915560
C       -2.13025704       0.82553805      -0.75925143
H        2.55442290       0.97763062       1.55102987
H        2.74299157       1.11576163      -0.19398247
H        3.25584340      -0.35496317       0.64066940
H       -0.28766549      -1.85990493       0.87871386
H       -1.33361790      -2.04163651      -0.69599084
H       -2.66549075       1.48813242      -0.07747104
H       -1.66629522       1.44166143      -1.53289651
H       -2.83572491       0.15932065      -1.25383482
15
Frame=7 idx=011844 GeodesicLength=0.9160683228203289 rxn_smarts="[C:1]([C:2]#[C:3][C:4]([C:5](=[O:6])[C:7]([H:13])([H:14])[H:15])([H:11])[H:12])([H:8])([H:9])[H:10]>>[C:1]([c:2]1[c:3]([H:11])[c:4]([H:12])[c:5]([C:7]([H:13])([H:14])[H:15])[o:6]1)([H:8])([H:9])[H:10]"
C        2.49534830       0.42632773       0.59690629
C        1.16171762      -0.19595854       0.42311921
C        0.74302506      -1.37190666      -0.03353003
C       -0.73992435      -1.31459516      -0.16008838
C       -1.15182884       0.02822638       0.03281186
O       -0.25635187       0.67598732       0.70964799
C       -2.11743821       0.82986731      -0.76430558
H        2.56759925       0.99986373       1.52331364
H        2.73493575       1.10497919      -0.22493578
H        3.25925290      -0.34881871       0.63094608
H       -0.26224212      -1.90586813       0.87645141
H       -1.33958102      -2.03751413      -0.69608847
H       -2.68071536       1.49037016      -0.10360087
H       -1.61370532       1.44790668      -1.51111601
H       -2.80009178       0.17113282      -1.29953134
15
Frame=8 idx=011844 GeodesicLength=1.047032844410292 rxn_smarts="[C:1]([C:2]#[C:3][C:4]([C:5](=[O:6])[C:7]([H:13])([H:14])[H:15])([H:11])[H:12])([H:8])([H:9])[H:10]>>[C:1]([c:2]1[c:3]([H:11])[c:4]([H:12])[c:5]([C:7]([H:13])([H:14])[H:15])[o:6]1)([H:8])([H:9])[H:10]"
C        2.49595308       0.43066648       0.58125737
C        1.16108939      -0.19432721       0.43310249
C        0.72715542      -1.35257667      -0.03871497
C       -0.75280509      -1.31748126      -0.14416935
C       -1.18159494       0.01965292       0.06830154
O       -0.31324280       0.65829289       0.78586314
C       -2.10389565       0.83451972      -0.76767447
H        2.57612182       1.02665855       1.49256420
H        2.72955626       1.09022172      -0.25770782
H        3.26162811      -0.34231768       0.62795637
H       -0.23626402      -1.95084165       0.87138860
H       -1.34531986      -2.03380614      -0.69686434
H       -2.69276723       1.49273389      -0.12749544
H       -1.56282257       1.45459876      -1.48620761
H       -2.76279193       0.18400568      -1.34159971
15
Frame=9 idx=011844 GeodesicLength=1.178027771124726 rxn_smarts="[C:1]([C:2]#[C:3][C:4]([C:5](=[O:6])[C:7]([H:13])([H:14])[H:15])([H:11])[H:12])([H:8])([H:9])[H:10]>>[C:1]([c:2]1[c:3]([H:11])[c:4]([H:12])[c:5]([C:7]([H:13])([H:14])[H:15])[o:6]1)([H:8])([H:9])[H:10]"
C        2.49630804       0.43506462       0.56574862
C        1.16079866      -0.19196670       0.44063003
C        0.71070328      -1.33315079      -0.04255818
C       -0.76557855      -1.32071555      -0.12887461
C       -1.21131388       0.01062387       0.10073765
O       -0.37132927       0.63897910       0.85802725
C       -2.09007696       0.83931981      -0.76963170
H        2.58076037       1.05640234       1.45941672
H        2.72724524       1.07188783      -0.29124466
H        3.26319709      -0.33565455       0.63054692
H       -0.20929987      -1.99443664       0.86369986
H       -1.35082395      -2.03035015      -0.69786678
H       -2.70234794       1.49536824      -0.14974723
H       -1.51386996       1.46112118      -1.45877299
H       -2.72437230       0.19750740      -1.38011089
15
Frame=10 idx=011844 GeodesicLength=1.3090933230629616 rxn_smarts="[C:1]([C:2]#[C:3][C:4]([C:5](=[O:6])[C:7]([H:13])([H:14])[H:15])([H:11])[H:12])([H:8])([H:9])[H:10]>>[C:1]([c:2]1[c:3]([H:11])[c:4]([H:12])[c:5]([C:7]([H:13])([H:14])[H:15])[o:6]1)([H:8])([H:9])[H:10]"
C        2.49664179       0.43950500       0.55022836
C        1.16079398      -0.18901507       0.44609670
C        0.69371040      -1.31380679      -0.04471454
C       -0.77822496      -1.32428368      -0.11422798
C       -1.24105734       0.00116554       0.13045511
O       -0.43104432       0.61800383       0.92689510
C       -2.07607791       0.84434340      -0.77025598
H        2.58206312       1.08932091       1.42316132
H        2.72819311       1.04947143      -0.32587263
H        3.26411344      -0.32850440       0.63887127
H       -0.18159893      -2.03680506       0.85347731
H       -1.35593704      -2.02706211      -0.69939562
H       -2.71008711       1.49805329      -0.17032067
H       -1.46677738       1.46787764      -1.42871966
H       -2.68471084       0.21173607      -1.41567810
15
Frame=11 idx=011844 GeodesicLength=1.4402241388453478 rxn_smarts="[C:1]([C:2]#[C:3][C:4]([C:5](=[O:6])[C:7]([H:13])([H:14])[H:15])([H:11])[H:12])([H:8])([H:9])[H:10]>>[C:1]([c:2]1[c:3]([H:11])[c:4]([H:12])[c:5]([C:7]([H:13])([H:14])[H:15])[o:6]1)([H:8])([H:9])[H:10]"
C        2.49712636       0.44391991       0.53460452
C        1.16105798      -0.18534632       0.44963318
C        0.67623176      -1.29452836      -0.04502794
C       -0.79074291      -1.32809196      -0.10013703
C       -1.27094493      -0.00866488       0.15774602
O       -0.49284647       0.59542166       0.99291256
C       -2.06199680       0.84957957      -0.76964491
H        2.58054313       1.12494768       1.38347096
H        2.73247607       1.02279177      -0.36132755
H        3.26443238      -0.32057612       0.65251257
H       -0.15315792      -2.07789082       0.84082044
H       -1.36054390      -2.02383179      -0.70146731
H       -2.71643178       1.50073942      -0.18944672
H       -1.42143223       1.47486291      -1.39604643
H       -2.64377074       0.22666733      -1.44860238
15
Frame=12 idx=011844 GeodesicLength=1.571423501290558 rxn_smarts="[C:1]([C:2]#[C:3][C:4]([C:5](=[O:6])[C:7]([H:13])([H:14])[H:15])([H:11])[H:12])([H:8])([H:9])[H:10]>>[C:1]([c:2]1[c:3]([H:11])[c:4]([H:12])[c:5]([C:7]([H:13])([H:14])[H:15])[o:6]1)([H:8])([H:9])[H:10]"
C        2.49782351       0.44829242       0.51874107
C        1.16158062      -0.18093301       0.45149110
C        0.65828968      -1.27538397      -0.04317356
C       -0.80315434      -1.33210471      -0.08645315
C       -1.30107892      -0.01884626       0.18285966
O       -0.55723275       0.57118430       1.05649488
C       -2.04778283       0.85504288      -0.76792606
H        2.57681558       1.16259782       1.34009527
H        2.73972216       0.99202178      -0.39718554
H        3.26413604      -0.31144480       0.67054320
H       -0.12406662      -2.11766548       0.82595996
H       -1.36453925      -2.02060063      -0.70405681
H       -2.72163596       1.50341919      -0.20745659
H       -1.37757151       1.48206810      -1.36071368
H       -2.60130541       0.24235237      -1.47921977
15
Frame=13 idx=011844 GeodesicLength=1.7027005450992416 rxn_smarts="[C:1]([C:2]#[C:3][C:4]([C:5](=[O:6])[C:7]([H:13])([H:14])[H:15])([H:11])[H:12])([H:8])([H:9])[H:10]>>[C:1]([c:2]1[c:3]([H:11])[c:4]([H:12])[c:5]([C:7]([H:13])([H:14])[H:15])[o:6]1)([H:8])([H:9])[H:10]"
C        2.49883664       0.45259567       0.50250698
C        1.16234933      -0.17578229       0.45184728
C        0.63991910      -1.25645307      -0.03882969
C       -0.81547164      -1.33628625      -0.07312008
C       -1.33155204      -0.02937256       0.20594899
O       -0.62474020       0.54519786       1.11790784
C       -2.03342116       0.86076768      -0.76514029
H        2.57135115       1.20189374       1.29255136
H        2.74982680       0.95697199      -0.43321535
H        3.26324529      -0.30064818       0.69254758
H       -0.09443213      -2.15610209       0.80906460
H       -1.36777987      -2.01729328      -0.70725126
H       -2.72601536       1.50599510      -0.22452259
H       -1.33507744       1.48964076      -1.32250400
H       -2.55703849       0.25887491      -1.50779138
15
Frame=14 idx=011844 GeodesicLength=1.8340684885619865 rxn_smarts="[C:1]([C:2]#[C:3][C:4]([C:5](=[O:6])[C:7]([H:13])([H:14])[H:15])([H:11])[H:12])([H:8])([H:9])[H:10]>>[C:1]([c:2]1[c:3]([H:11])[c:4]([H:12])[c:5]([C:7]([H:13])([H:14])[H:15])[o:6]1)([H:8])([H:9])[H:10]"
C        2.50021224       0.45681529       0.48574795
C        1.16336540      -0.16989420       0.45090065
C        0.62114657      -1.23780633      -0.03161065
C       -0.82771201      -1.34061474      -0.06006005
C       -1.36246821      -0.04025794       0.22714359
O       -0.69599204       0.51729612       1.17735584
C       -2.01884174       0.86679632      -0.76131471
H        2.56459342       1.24236934       1.24037330
H        2.76252049       0.91756375      -0.46913006
H        3.26176017      -0.28770719       0.71793572
H       -0.06434495      -2.19318474       0.79033837
H       -1.37008442      -2.01382922      -0.71114865
H       -2.72975103       1.50843733      -0.24088203
H       -1.29379142       1.49764762      -1.28115228
H       -2.51061248       0.27636860      -1.53449699
15
Frame=15 idx=011844 GeodesicLength=1.9655315002790432 rxn_smarts="[C:1]([C:2]#[C:3][C:4]([C:5](=[O:6])[C:7]([H:13])([H:14])[H:15])([H:11])[H:12])([H:8])([H:9])[H:10]>>[C:1]([c:2]1[c:3]([H:11])[c:4]([H:12])[c:5]([C:7]([H:13])([H:14])[H:15])[o:6]1)([H:8])([H:9])[H:10]"
C        2.50185247       0.46098615       0.46821255
C        1.16462660      -0.16346032       0.44907799
C        0.60196800      -1.21963624      -0.02085029
C       -0.83990504      -1.34512227      -0.04717096
C       -1.39391134      -0.05156106       0.24653070
O       -0.77176061       0.48715884       1.23501441
C       -2.00376583       0.87321608      -0.75647068
H        2.55699699       1.28346971       1.18303184
H        2.77699494       0.87393972      -0.50465403
H        3.25966471      -0.27193932       0.74565516
H       -0.03405936      -2.22896952       0.77014807
H       -1.37119886      -2.01012504      -0.71589730
H       -2.73285850       1.51072187      -0.25686535
H       -1.25334354       1.50622531      -1.23620566
H       -2.46130063       0.29509608      -1.55955644
15
Frame=16 idx=011844 GeodesicLength=2.097126158180811 rxn_smarts="[C:1]([C:2]#[C:3][C:4]([C:5](=[O:6])[C:7]([H:13])([H:14])[H:15])([H:11])[H:12])([H:8])([H:9])[H:10]>>[C:1]([c:2]1[c:3]([H:11])[c:4]([H:12])[c:5]([C:7]([H:13])([H:14])[H:15])[o:6]1)([H:8])([H:9])[H:10]"
C        2.50375709       0.46508916       0.44964370
C        1.16613241      -0.15656158       0.44661243
C        0.58238963      -1.20204018      -0.00592286
C       -0.85206819      -1.34980738      -0.03443304
C       -1.42600766      -0.06334232       0.26413893
O       -0.85294776       0.45442480       1.29088066
C       -1.98803490       0.88012488      -0.75051878
H        2.54880350       1.32489082       1.11971647
H        2.79295330       0.82572939      -0.53971159
H        3.25702626      -0.25270213       0.77529086
H       -0.00371225      -2.26347335       0.74877765
H       -1.37079009      -2.00604333      -0.72175390
H       -2.73551216       1.51273578      -0.27268535
H       -1.21361846       1.51561703      -1.18697648
H       -2.40837073       0.31535840      -1.58305869
