14
Frame=0 idx=005798 GeodesicLength=0.0 rxn_smarts="[C:1]([C@:2]12[C:3]([H:10])([H:11])[C:4]([H:12])([H:13])[C@@:5]1([H:14])[O:6]2)([H:7])([H:8])[H:9]>>[C:1]([C-:2]=[O+:6][C:5]1([H:14])[C:3]([H:10])([H:11])[C:4]1([H:12])[H:13])([H:7])([H:8])[H:9]"
C       -1.92739783       0.42664369       0.20638185
C       -0.96863641      -0.71696059      -0.05599604
C        0.92628621      -0.42191419       0.78029117
C        1.83097852      -0.30375753      -0.40477077
C        0.46849719       0.16608933      -0.73169594
O       -0.43068954      -0.61761113      -1.38402300
H       -1.90292799       0.70917186       1.26051520
H       -2.91780655      -0.00052108       0.02393457
H       -1.82620320       1.31787604      -0.42482035
H        0.95011573       0.38167597       1.50512166
H        0.79047428      -1.40323331       1.19641427
H        2.59310320       0.46501969      -0.39029344
H        2.13325261      -1.23566405      -0.86477738
H        0.28095377       1.23318532      -0.71628183
14
Frame=1 idx=005798 GeodesicLength=0.06347949707244832 rxn_smarts="[C:1]([C@:2]12[C:3]([H:10])([H:11])[C:4]([H:12])([H:13])[C@@:5]1([H:14])[O:6]2)([H:7])([H:8])[H:9]>>[C:1]([C-:2]=[O+:6][C:5]1([H:14])[C:3]([H:10])([H:11])[C:4]1([H:12])[H:13])([H:7])([H:8])[H:9]"
C       -1.94479276       0.41901032       0.20548506
C       -0.95656198      -0.69687743      -0.05824293
C        0.92945955      -0.41571695       0.78354576
C        1.83296290      -0.31496472      -0.40603123
C        0.48063374       0.18659626      -0.73079978
O       -0.42922810      -0.59045220      -1.38360154
H       -1.92253128       0.70517688       1.25875487
H       -2.92585705      -0.03147656       0.02895129
H       -1.86427897       1.31074973      -0.42751625
H        0.97561539       0.38354284       1.51246394
H        0.78919604      -1.39530956       1.20408612
H        2.61236116       0.43654812      -0.39015286
H        2.11579207      -1.25274988      -0.86695745
H        0.30722931       1.25592313      -0.72998501
14
Frame=2 idx=005798 GeodesicLength=0.1269249167563371 rxn_smarts="[C:1]([C@:2]12[C:3]([H:10])([H:11])[C:4]([H:12])([H:13])[C@@:5]1([H:14])[O:6]2)([H:7])([H:8])[H:9]>>[C:1]([C-:2]=[O+:6][C:5]1([H:14])[C:3]([H:10])([H:11])[C:4]1([H:12])[H:13])([H:7])([H:8])[H:9]"
C       -1.96240370       0.41100026       0.20452880
C       -0.94449547      -0.67553547      -0.06029271
C        0.93275300      -0.40930929       0.78698036
C        1.83455556      -0.32624509      -0.40726734
C        0.49328641       0.20762115      -0.72954671
O       -0.42767725      -0.56206612      -1.38290444
H       -1.94248057       0.70147245       1.25674565
H       -2.93314539      -0.06366220       0.03441170
H       -1.90369738       1.30247502      -0.43080374
H        1.00182716       0.38489212       1.51999982
H        0.78751858      -1.38717922       1.21171701
H        2.63127308       0.40713984      -0.39006997
H        2.09730764      -1.26959325      -0.86922287
H        0.33537833       1.27898981      -0.74427556
14
Frame=3 idx=005798 GeodesicLength=0.19033301562716498 rxn_smarts="[C:1]([C@:2]12[C:3]([H:10])([H:11])[C:4]([H:12])([H:13])[C@@:5]1([H:14])[O:6]2)([H:7])([H:8])[H:9]>>[C:1]([C-:2]=[O+:6][C:5]1([H:14])[C:3]([H:10])([H:11])[C:4]1([H:12])[H:13])([H:7])([H:8])[H:9]"
C       -1.98022181       0.40259490       0.20351966
C       -0.93244004      -0.65282252      -0.06211030
C        0.93616517      -0.40268051       0.79060012
C        1.83572162      -0.33758997      -0.40848153
C        0.50649372       0.22919538      -0.72791910
O       -0.42603602      -0.53235644      -1.38189496
H       -1.96286525       0.69810069       1.25447084
H       -2.93953378      -0.09715373       0.04035389
H       -1.94450440       1.29292991      -0.43470043
H        1.02876177       0.38567464       1.52773118
H        0.78540529      -1.37882877       1.21928906
H        2.64978686       0.37675881      -0.39005039
H        2.07772293      -1.28615654      -0.87159157
H        0.36554395       1.30233417      -0.75921646
14
Frame=4 idx=005798 GeodesicLength=0.2537038079680076 rxn_smarts="[C:1]([C@:2]12[C:3]([H:10])([H:11])[C:4]([H:12])([H:13])[C@@:5]1([H:14])[O:6]2)([H:7])([H:8])[H:9]>>[C:1]([C-:2]=[O+:6][C:5]1([H:14])[C:3]([H:10])([H:11])[C:4]1([H:12])[H:13])([H:7])([H:8])[H:9]"
C       -1.99822594       0.39376604       0.20246686
C       -0.92040053      -0.62859928      -0.06366408
C        0.93968913      -0.39581211       0.79441156
C        1.83641593      -0.34899204      -0.40967861
C        0.52030065       0.25135982      -0.72590271
O       -0.42430323      -0.50120066      -1.38053145
H       -1.98379133       0.69509705       1.25191610
H       -2.94483227      -0.13204067       0.04681373
H       -1.98674689       1.28195804      -0.43921709
H        1.05643070       0.38584137       1.53565728
H        0.78279656      -1.37022850       1.22678897
H        2.66785125       0.34534850      -0.39010656
H        2.05693583      -1.30239941      -0.87407989
H        0.39788014       1.32590184      -0.77487412
14
Frame=5 idx=005798 GeodesicLength=0.3169975838022533 rxn_smarts="[C:1]([C@:2]12[C:3]([H:10])([H:11])[C:4]([H:12])([H:13])[C@@:5]1([H:14])[O:6]2)([H:7])([H:8])[H:9]>>[C:1]([C-:2]=[O+:6][C:5]1([H:14])[C:3]([H:10])([H:11])[C:4]1([H:12])[H:13])([H:7])([H:8])[H:9]"
C       -2.01640214       0.38448640       0.20140470
C       -0.90837759      -0.60274462      -0.06490119
C        0.94332451      -0.38867091       0.79841767
C        1.83660335      -0.36044175      -0.41086423
C        0.53474392       0.27415893      -0.72348308
O       -0.42247813      -0.46849567      -1.37879552
H       -2.00534166       0.69243017       1.24908483
H       -2.94898211      -0.16835128       0.05376524
H       -2.03041695       1.26944688      -0.44433555
H        1.08484096       0.38535812       1.54376762
H        0.77966970      -1.36134197       1.23420846
H        2.68540730       0.31287791      -0.39026536
H        2.03489307      -1.31830320      -0.87668187
H        0.43251576       1.34959099      -0.79132171
14
Frame=6 idx=005798 GeodesicLength=0.38024349711651767 rxn_smarts="[C:1]([C@:2]12[C:3]([H:10])([H:11])[C:4]([H:12])([H:13])[C@@:5]1([H:14])[O:6]2)([H:7])([H:8])[H:9]>>[C:1]([C-:2]=[O+:6][C:5]1([H:14])[C:3]([H:10])([H:11])[C:4]1([H:12])[H:13])([H:7])([H:8])[H:9]"
C       -2.03471605       0.37471399       0.20033161
C       -0.89637300      -0.57504509      -0.06578003
C        0.94706038      -0.38123179       0.80262726
C        1.83621425      -0.37193490      -0.41204923
C        0.54989061       0.29765620      -0.72063778
O       -0.42055429      -0.43405639      -1.37661053
H       -2.02768534       0.69015238       1.24594239
H       -2.95164849      -0.20621772       0.06127701
H       -2.07558492       1.25514811      -0.45009662
H        1.11401592       0.38416600       1.55206413
H        0.77592621      -1.35212210       1.24153133
H        2.70239398       0.27924002      -0.39054258
H        2.01141383      -1.33380819      -0.87944141
H        0.46964690       1.37333946      -0.80861555
14
Frame=7 idx=005798 GeodesicLength=0.4434189936784383 rxn_smarts="[C:1]([C@:2]12[C:3]([H:10])([H:11])[C:4]([H:12])([H:13])[C@@:5]1([H:14])[O:6]2)([H:7])([H:8])[H:9]>>[C:1]([C-:2]=[O+:6][C:5]1([H:14])[C:3]([H:10])([H:11])[C:4]1([H:12])[H:13])([H:7])([H:8])[H:9]"
C       -2.05312747       0.36440318       0.19927187
C       -0.88439144      -0.54530887      -0.06626157
C        0.95087138      -0.37345735       0.80704054
C        1.83519119      -0.38346046      -0.41323917
C        0.56579900       0.32190748      -0.71735431
O       -0.41852411      -0.39773232      -1.37394444
H       -2.05095113       0.68825585       1.24248162
H       -2.95259265      -0.24571401       0.06938669
H       -2.12224560       1.23886798      -0.45649598
H        1.14394820       0.38221635       1.56053639
H        0.77147909      -1.34250974       1.24873975
H        2.71873641       0.24437040      -0.39095082
H        1.98637084      -1.34886920      -0.88237279
H        0.50943630       1.39703069      -0.82683778
14
Frame=8 idx=005798 GeodesicLength=0.5065216251634893 rxn_smarts="[C:1]([C@:2]12[C:3]([H:10])([H:11])[C:4]([H:12])([H:13])[C@@:5]1([H:14])[O:6]2)([H:7])([H:8])[H:9]>>[C:1]([C-:2]=[O+:6][C:5]1([H:14])[C:3]([H:10])([H:11])[C:4]1([H:12])[H:13])([H:7])([H:8])[H:9]"
C       -2.07159246       0.35349058       0.19823872
C       -0.87244229      -0.51327800      -0.06626001
C        0.95475020      -0.36530141       0.81166944
C        1.83344366      -0.39500605      -0.41445387
C        0.58254312       0.34698344      -0.71360248
O       -0.41638432      -0.35930979      -1.37068494
H       -2.07533155       0.68670431       1.23867195
H       -2.95146073      -0.28689862       0.07808981
H       -2.17039956       1.22031159      -0.46357091
H        1.17466661       0.37944507       1.56917857
H        0.76623080      -1.33242119       1.25583448
H        2.73432087       0.20814172      -0.39155705
H        1.95956358      -1.36339806      -0.88551289
H        0.55209207       1.42053642      -0.84604081
14
Frame=9 idx=005798 GeodesicLength=0.5695107392885628 rxn_smarts="[C:1]([C@:2]12[C:3]([H:10])([H:11])[C:4]([H:12])([H:13])[C@@:5]1([H:14])[O:6]2)([H:7])([H:8])[H:9]>>[C:1]([C-:2]=[O+:6][C:5]1([H:14])[C:3]([H:10])([H:11])[C:4]1([H:12])[H:13])([H:7])([H:8])[H:9]"
C       -2.09026205       0.34188218       0.19711272
C       -0.86042783      -0.47861585      -0.06546206
C        0.95885680      -0.35665802       0.81654934
C        1.83087862      -0.40656325      -0.41576879
C        0.60020838       0.37300967      -0.70925731
O       -0.41412516      -0.31840706      -1.36664695
H       -2.10119090       0.68507683       1.23431443
H       -2.94821887      -0.32948553       0.08725752
H       -2.22009775       1.19910138      -0.47134541
H        1.20645979       0.37578467       1.57797584
H        0.76025693      -1.32165174       1.26291160
H        2.74908517       0.17030360      -0.39255959
H        1.93075144      -1.37727946      -0.88887713
H        0.59782543       1.44350258      -0.86620421
14
Frame=10 idx=005798 GeodesicLength=0.632376102228972 rxn_smarts="[C:1]([C@:2]12[C:3]([H:10])([H:11])[C:4]([H:12])([H:13])[C@@:5]1([H:14])[O:6]2)([H:7])([H:8])[H:9]>>[C:1]([C-:2]=[O+:6][C:5]1([H:14])[C:3]([H:10])([H:11])[C:4]1([H:12])[H:13])([H:7])([H:8])[H:9]"
C       -2.10886170       0.32951058       0.19599311
C       -0.84840799      -0.44095670      -0.06393196
C        0.96303382      -0.34750194       0.82167409
C        1.82733392      -0.41812660      -0.41716063
C        0.61891245       0.40004930      -0.70437482
O       -0.41172227      -0.27482068      -1.36178722
H       -2.12861132       0.68356649       1.22947618
H       -2.94209412      -0.37386440       0.09705187
H       -2.27120382       1.17490365      -0.47989819
H        1.23915269       0.37115746       1.58690429
H        0.75324430      -1.31015587       1.26990163
H        2.76278840       0.13077216      -0.39392198
H        1.89962429      -1.39044556      -0.89249681
H        0.64681134       1.46591211      -0.88742955
14
Frame=11 idx=005798 GeodesicLength=0.6950792838821203 rxn_smarts="[C:1]([C@:2]12[C:3]([H:10])([H:11])[C:4]([H:12])([H:13])[C@@:5]1([H:14])[O:6]2)([H:7])([H:8])[H:9]>>[C:1]([C-:2]=[O+:6][C:5]1([H:14])[C:3]([H:10])([H:11])[C:4]1([H:12])[H:13])([H:7])([H:8])[H:9]"
C       -2.12723250       0.31628688       0.19491286
C       -0.83636256      -0.39985807      -0.06160010
C        0.96722525      -0.33771888       0.82703837
C        1.82264826      -0.42971008      -0.41865306
C        0.63878156       0.42821936      -0.69895223
O       -0.40914513      -0.22817084      -1.35604521
H       -2.15782118       0.68201738       1.22413260
H       -2.93256947      -0.42018649       0.10750062
H       -2.32361049       1.14731172      -0.48922425
H        1.27275393       0.36551876       1.59591614
H        0.74496705      -1.29772968       1.27681358
H        2.77527313       0.08931461      -0.39570301
H        1.86585407      -1.40283745      -0.89637052
H        0.69923811       1.48754276      -0.90976578
14
Frame=12 idx=005798 GeodesicLength=0.7576056682044895 rxn_smarts="[C:1]([C@:2]12[C:3]([H:10])([H:11])[C:4]([H:12])([H:13])[C@@:5]1([H:14])[O:6]2)([H:7])([H:8])[H:9]>>[C:1]([C-:2]=[O+:6][C:5]1([H:14])[C:3]([H:10])([H:11])[C:4]1([H:12])[H:13])([H:7])([H:8])[H:9]"
C       -2.14520469       0.30206801       0.19386476
C       -0.82426826      -0.35475533      -0.05830556
C        0.97139122      -0.32717471       0.83266052
C        1.81658981      -0.44133133      -0.42027880
C        0.65997581       0.45764828      -0.69297376
O       -0.40636486      -0.17798869      -1.34925831
H       -2.18905071       0.68011780       1.21821640
H       -2.91894548      -0.46852212       0.11855141
H       -2.37714856       1.11580135      -0.49936444
H        1.30731071       0.35881433       1.60495329
H        0.73518350      -1.28411094       1.28371321
H        2.78625718       0.04562075      -0.39804861
H        1.82894020      -1.41431014      -0.90049030
H        0.75533413       1.50812275      -0.93323980
14
Frame=13 idx=005798 GeodesicLength=0.8198977756218887 rxn_smarts="[C:1]([C@:2]12[C:3]([H:10])([H:11])[C:4]([H:12])([H:13])[C@@:5]1([H:14])[O:6]2)([H:7])([H:8])[H:9]>>[C:1]([C-:2]=[O+:6][C:5]1([H:14])[C:3]([H:10])([H:11])[C:4]1([H:12])[H:13])([H:7])([H:8])[H:9]"
C       -2.16267174       0.28672136       0.19274569
C       -0.81198470      -0.30482052      -0.05370041
C        0.97556807      -0.31567728       0.83858326
C        1.80883137      -0.45301367      -0.42210499
C        0.68270483       0.48854523      -0.68634036
O       -0.40327950      -0.12353620      -1.34123606
H       -2.22261054       0.67748475       1.21140688
H       -2.90047452      -0.51903267       0.13037610
H       -2.43171357       1.07957441      -0.51061427
H        1.34309035       0.35086379       1.61398933
H        0.72364799      -1.26891352       1.29066456
H        2.79537540      -0.00081215      -0.40117893
H        1.78816910      -1.42473659      -0.90488935
H        0.81534746       1.52735308      -0.95770145
14
Frame=14 idx=005798 GeodesicLength=0.8820401956939503 rxn_smarts="[C:1]([C@:2]12[C:3]([H:10])([H:11])[C:4]([H:12])([H:13])[C@@:5]1([H:14])[O:6]2)([H:7])([H:8])[H:9]>>[C:1]([C-:2]=[O+:6][C:5]1([H:14])[C:3]([H:10])([H:11])[C:4]1([H:12])[H:13])([H:7])([H:8])[H:9]"
C       -2.17908561       0.26996972       0.19165083
C       -0.79955595      -0.24911436      -0.04783742
C        0.97945678      -0.30302424       0.84477380
C        1.79892529      -0.46481817      -0.42413742
C        0.70722147       0.52109581      -0.67915871
O       -0.39983939      -0.06406384      -1.33191332
H       -2.25862094       0.67387597       1.20375454
H       -2.87555604      -0.57208940       0.14314437
H       -2.48692216       1.03771441      -0.52299575
H        1.37984847       0.34160240       1.62290260
H        0.70964793      -1.25174289       1.29768184
H        2.80213848      -0.05048427      -0.40514034
H        1.74270713      -1.43394604      -0.90951549
H        0.87963454       1.54502491      -0.98320953
14
Frame=15 idx=005798 GeodesicLength=0.9440532984623726 rxn_smarts="[C:1]([C@:2]12[C:3]([H:10])([H:11])[C:4]([H:12])([H:13])[C@@:5]1([H:14])[O:6]2)([H:7])([H:8])[H:9]>>[C:1]([C-:2]=[O+:6][C:5]1([H:14])[C:3]([H:10])([H:11])[C:4]1([H:12])[H:13])([H:7])([H:8])[H:9]"
C       -2.19381278       0.25151349       0.19062554
C       -0.78690572      -0.18642342      -0.04064973
C        0.98277907      -0.28887223       0.85120139
C        1.78627952      -0.47683378      -0.42639741
C        0.73381854       0.55551695      -0.67152690
O       -0.39593353       0.00146571      -1.32125639
H       -2.29715496       0.66860074       1.19516891
H       -2.84255576      -0.62800857       0.15696424
H       -2.54222860       0.98911865      -0.53649942
H        1.41744522       0.33098531       1.63154668
H        0.69241440      -1.23193963       1.30484375
H        2.80587469      -0.10412689      -0.41004599
H        1.69142779      -1.44177400      -0.91427289
H        0.94855212       1.56077766      -1.00970178
14
Frame=16 idx=005798 GeodesicLength=1.006236141748686 rxn_smarts="[C:1]([C@:2]12[C:3]([H:10])([H:11])[C:4]([H:12])([H:13])[C@@:5]1([H:14])[O:6]2)([H:7])([H:8])[H:9]>>[C:1]([C-:2]=[O+:6][C:5]1([H:14])[C:3]([H:10])([H:11])[C:4]1([H:12])[H:13])([H:7])([H:8])[H:9]"
C       -2.20599834       0.23092738       0.18966486
C       -0.77394487      -0.11502730      -0.03205335
C        0.98513837      -0.27281571       0.85785238
C        1.76998923      -0.48917821      -0.42891647
C        0.76287721       0.59214628      -0.66356145
O       -0.39141233       0.07456760      -1.30925410
H       -2.33818018       0.66090510       1.18537735
H       -2.79894783      -0.68727395       0.17234453
H       -2.59691885       0.93203742      -0.55137769
H        1.45571304       0.31880547       1.63980184
H        0.67082871      -1.20868819       1.31223295
H        2.80556996      -0.16280217      -0.41601160
H        1.63264481      -1.44795582      -0.91908543
H        1.02264107       1.57435210      -1.03701382
