15
Frame=0 idx=007217 GeodesicLength=0.0 rxn_smarts="[O:1]([C:2]([C@@:3]1([H:11])[C:4]([H:12])([H:13])[C:5]([H:14])([H:15])[C:6]1=[O:7])([H:9])[H:10])[H:8]>>[C:4]1([H:12])([H:13])[C:5]([H:14])([H:15])[C:6]1=[O:7].[O:1]([C:2](=[C:3]([H:9])[H:11])[H:10])[H:8]"
O        2.87500026      -0.24477728       0.84127137
C        1.76001590      -0.46857724       0.15020063
C        0.52137567       0.04701416       0.53546470
C       -1.37262831       1.17565646      -0.60747597
C       -1.97346615      -0.00873228       0.07019668
C       -0.54785855      -0.14206353      -0.47184683
O       -0.22861130      -0.90178705      -1.47298243
H        3.59057897      -0.78635050       0.49800592
H        0.82922366      -1.17827958       0.82998023
H        1.73837600      -0.97606537      -0.81985770
H        0.43325135       0.61782757       1.45434430
H       -1.14690597       2.05742697      -0.01970239
H       -1.63994704       1.36136046      -1.63864966
H       -2.68359822      -0.60426396      -0.48653430
H       -2.15480631       0.05161116       1.13758546
15
Frame=1 idx=007217 GeodesicLength=0.143286583067986 rxn_smarts="[O:1]([C:2]([C@@:3]1([H:11])[C:4]([H:12])([H:13])[C:5]([H:14])([H:15])[C:6]1=[O:7])([H:9])[H:10])[H:8]>>[C:4]1([H:12])([H:13])[C:5]([H:14])([H:15])[C:6]1=[O:7].[O:1]([C:2](=[C:3]([H:9])[H:11])[H:10])[H:8]"
O        2.88492349      -0.17627691       0.79530113
C        1.75268510      -0.49108107       0.16581553
C        0.51594049       0.01841885       0.56505662
C       -1.33008270       1.17604795      -0.59710027
C       -2.00176114       0.00380103       0.04219229
C       -0.57475060      -0.19412072      -0.46695471
O       -0.26125973      -0.96364175      -1.45453472
H        3.61813795      -0.66403468       0.41001339
H        0.84701388      -1.20378528       0.88400699
H        1.72993468      -1.03791913      -0.78220915
H        0.43338030       0.58618128       1.48658145
H       -1.11508830       2.04289989       0.01632925
H       -1.56034611       1.39586469      -1.63084275
H       -2.73427705      -0.53826360      -0.54035504
H       -2.20445025       0.04590945       1.10669996
15
Frame=2 idx=007217 GeodesicLength=0.286469353862134 rxn_smarts="[O:1]([C:2]([C@@:3]1([H:11])[C:4]([H:12])([H:13])[C:5]([H:14])([H:15])[C:6]1=[O:7])([H:9])[H:10])[H:8]>>[C:4]1([H:12])([H:13])[C:5]([H:14])([H:15])[C:6]1=[O:7].[O:1]([C:2](=[C:3]([H:9])[H:11])[H:10])[H:8]"
O        2.88838110      -0.10808501       0.74427482
C        1.74564814      -0.51369676       0.18434646
C        0.51097155      -0.01018729       0.59763799
C       -1.28599001       1.17377983      -0.58471934
C       -2.02728260       0.01676683       0.01262663
C       -0.60138937      -0.24459788      -0.46117872
O       -0.29271645      -1.02401883      -1.43461086
H        3.62991599      -0.54169965       0.31218845
H        0.86611382      -1.22847865       0.94028766
H        1.72289962      -1.09797275      -0.74067335
H        0.43488534       0.55577229       1.52101801
H       -1.08533692       2.02668556       0.05268912
H       -1.47535261       1.42557152      -1.61980152
H       -2.77633011      -0.47105340      -0.59691020
H       -2.25441748       0.04121418       1.07282485
15
Frame=3 idx=007217 GeodesicLength=0.42991393855692295 rxn_smarts="[O:1]([C:2]([C@@:3]1([H:11])[C:4]([H:12])([H:13])[C:5]([H:14])([H:15])[C:6]1=[O:7])([H:9])[H:10])[H:8]>>[C:4]1([H:12])([H:13])[C:5]([H:14])([H:15])[C:6]1=[O:7].[O:1]([C:2](=[C:3]([H:9])[H:11])[H:10])[H:8]"
O        2.88587596      -0.04212490       0.68892902
C        1.73938690      -0.53529115       0.20604464
C        0.50681093      -0.03757429       0.63300343
C       -1.24125181       1.16903632      -0.57019457
C       -2.04962500       0.02951716      -0.01863908
C       -0.62725181      -0.29295726      -0.45514770
O       -0.32208761      -1.08208471      -1.41399162
H        3.62464546      -0.42324915       0.20491633
H        0.88674656      -1.25103996       0.99910259
H        1.71769363      -1.15504989      -0.69528787
H        0.43811497       0.52820411       1.55727518
H       -1.05870168       2.00909590       0.08947078
H       -1.38681961       1.45066805      -1.60503008
H       -2.80943933      -0.40367743      -0.65615880
H       -2.30409756       0.03652721       1.03570774
15
Frame=4 idx=007217 GeodesicLength=0.5737872515233442 rxn_smarts="[O:1]([C:2]([C@@:3]1([H:11])[C:4]([H:12])([H:13])[C:5]([H:14])([H:15])[C:6]1=[O:7])([H:9])[H:10])[H:8]>>[C:4]1([H:12])([H:13])[C:5]([H:14])([H:15])[C:6]1=[O:7].[O:1]([C:2](=[C:3]([H:9])[H:11])[H:10])[H:8]"
O        2.87626774       0.02287519       0.62876844
C        1.73410395      -0.55546220       0.22997448
C        0.50349440      -0.06425227       0.67090388
C       -1.19600869       1.16202319      -0.55333769
C       -2.06872605       0.04226163      -0.05141986
C       -0.65244214      -0.33938716      -0.44913661
O       -0.34973046      -1.13814369      -1.39287141
H        3.60181014      -0.30980470       0.09125549
H        0.90981126      -1.27184877       1.05954586
H        1.71455683      -1.20870736      -0.64713967
H        0.44317509       0.50272102       1.59521466
H       -1.03439640       1.99028080       0.12659115
H       -1.29521178       1.47141005      -1.58609655
H       -2.83356300      -0.33645726      -0.71760470
H       -2.35314089       0.03249153       0.99535252
15
Frame=5 idx=007217 GeodesicLength=0.7182339165034671 rxn_smarts="[O:1]([C:2]([C@@:3]1([H:11])[C:4]([H:12])([H:13])[C:5]([H:14])([H:15])[C:6]1=[O:7])([H:9])[H:10])[H:8]>>[C:4]1([H:12])([H:13])[C:5]([H:14])([H:15])[C:6]1=[O:7].[O:1]([C:2](=[C:3]([H:9])[H:11])[H:10])[H:8]"
O        2.86051751       0.08467448       0.56467600
C        1.73014750      -0.57301956       0.25590075
C        0.50146250      -0.08863870       0.71071324
C       -1.15148952       1.15312430      -0.53401675
C       -2.08439259       0.05422013      -0.08575346
C       -0.67645889      -0.38328987      -0.44392255
O       -0.37479313      -1.19110445      -1.37232587
H        3.56180827      -0.20605000      -0.02719103
H        0.93548470      -1.28914330       1.12169972
H        1.71362580      -1.25817401      -0.59634447
H        0.45059154       0.48116652       1.63404014
H       -1.01406110       1.97052085       0.16437580
H       -1.20276143       1.48857013      -1.56251139
H       -2.84878775      -0.27040687      -0.78096105
H       -2.40089341       0.02755035       0.95162094
15
Frame=6 idx=007217 GeodesicLength=0.86370135910677 rxn_smarts="[O:1]([C:2]([C@@:3]1([H:11])[C:4]([H:12])([H:13])[C:5]([H:14])([H:15])[C:6]1=[O:7])([H:9])[H:10])[H:8]>>[C:4]1([H:12])([H:13])[C:5]([H:14])([H:15])[C:6]1=[O:7].[O:1]([C:2](=[C:3]([H:9])[H:11])[H:10])[H:8]"
O        2.83727849       0.14408011       0.49711726
C        1.72748781      -0.58816738       0.28311691
C        0.50052242      -0.11193911       0.75253805
C       -1.10731277       1.14243201      -0.51233389
C       -2.09673037       0.06602684      -0.12149293
C       -0.69960312      -0.42519707      -0.43960027
O       -0.39803683      -1.24201307      -1.35212618
H        3.50471748      -0.10997073      -0.14890680
H        0.96450538      -1.30399686       1.18475442
H        1.71506833      -1.30328487      -0.54402616
H        0.46014504       0.46200712       1.67401993
H       -0.99598708       1.94984758       0.20241761
H       -1.10927964       1.50222883      -1.53425998
H       -2.85549331      -0.20521043      -0.84571162
H       -2.44728183       0.02315705       0.90449365
15
Frame=7 idx=007217 GeodesicLength=1.0101032209168281 rxn_smarts="[O:1]([C:2]([C@@:3]1([H:11])[C:4]([H:12])([H:13])[C:5]([H:14])([H:15])[C:6]1=[O:7])([H:9])[H:10])[H:8]>>[C:4]1([H:12])([H:13])[C:5]([H:14])([H:15])[C:6]1=[O:7].[O:1]([C:2](=[C:3]([H:9])[H:11])[H:10])[H:8]"
O        2.80823211       0.19908164       0.42663767
C        1.72634928      -0.59966780       0.31082315
C        0.50125500      -0.13218522       0.79531758
C       -1.06517976       1.13047053      -0.48809062
C       -2.10590626       0.07677469      -0.15852305
C       -0.72150128      -0.46442973      -0.43702741
O       -0.41873309      -1.28943080      -1.33366786
H        3.43312221      -0.02771862      -0.27053345
H        0.99706497      -1.31418297       1.24846579
H        1.71877129      -1.34347270      -0.49052344
H        0.47258629       0.44734616       1.71394435
H       -0.98258798       1.92845983       0.24131788
H       -1.01739994       1.51356516      -1.50081552
H       -2.85424005      -0.14185915      -0.91134793
H       -2.49183281       0.01724899       0.85402286
15
Frame=8 idx=007217 GeodesicLength=1.1580472128584027 rxn_smarts="[O:1]([C:2]([C@@:3]1([H:11])[C:4]([H:12])([H:13])[C:5]([H:14])([H:15])[C:6]1=[O:7])([H:9])[H:10])[H:8]>>[C:4]1([H:12])([H:13])[C:5]([H:14])([H:15])[C:6]1=[O:7].[O:1]([C:2](=[C:3]([H:9])[H:11])[H:10])[H:8]"
O        2.77210824       0.25019993       0.35468114
C        1.72652787      -0.60829687       0.33857395
C        0.50335533      -0.15112168       0.83942771
C       -1.02414374       1.11707700      -0.46176160
C       -2.11196190       0.08744238      -0.19669119
C       -0.74259534      -0.50178270      -0.43612512
O       -0.43804853      -1.33508602      -1.31623361
H        3.34627913       0.04557293      -0.39169935
H        1.03373948      -1.32132825       1.31211788
H        1.72486258      -1.37873572      -0.43710717
H        0.48748177       0.43513760       1.75431688
H       -0.97128020       1.90627790       0.28020872
H       -0.92636478       1.52216886      -1.46270841
H       -2.84552677      -0.07955445      -0.97727701
H       -2.53443315       0.01202909       0.80027717
15
Frame=9 idx=007217 GeodesicLength=1.3071014445408506 rxn_smarts="[O:1]([C:2]([C@@:3]1([H:11])[C:4]([H:12])([H:13])[C:5]([H:14])([H:15])[C:6]1=[O:7])([H:9])[H:10])[H:8]>>[C:4]1([H:12])([H:13])[C:5]([H:14])([H:15])[C:6]1=[O:7].[O:1]([C:2](=[C:3]([H:9])[H:11])[H:10])[H:8]"
O        2.73105287       0.29597065       0.28134157
C        1.72808572      -0.61304808       0.36528935
C        0.50744426      -0.16661045       0.88353311
C       -0.98628946       1.10284689      -0.43307625
C       -2.11548237       0.09707525      -0.23573135
C       -0.76270444      -0.53651517      -0.43782758
O       -0.45543139      -1.37724687      -1.30152601
H        3.24976524       0.10291280      -0.50787076
H        1.07450841      -1.32307011       1.37518027
H        1.73296280      -1.40879798      -0.38424520
H        0.50566922       0.42757642       1.79365970
H       -0.96492111       1.88337384       0.31990697
H       -0.83929601       1.52953323      -1.41937610
H       -2.83047138      -0.01916105      -1.04279432
H       -2.57489236       0.00516061       0.74353660
15
Frame=10 idx=007217 GeodesicLength=1.4578209748768443 rxn_smarts="[O:1]([C:2]([C@@:3]1([H:11])[C:4]([H:12])([H:13])[C:5]([H:14])([H:15])[C:6]1=[O:7])([H:9])[H:10])[H:8]>>[C:4]1([H:12])([H:13])[C:5]([H:14])([H:15])[C:6]1=[O:7].[O:1]([C:2](=[C:3]([H:9])[H:11])[H:10])[H:8]"
O        2.68480987       0.33657161       0.20793640
C        1.73079444      -0.61468902       0.39073715
C        0.51334942      -0.17976322       0.92793556
C       -0.95097093       1.08762023      -0.40246698
C       -2.11663468       0.10637225      -0.27556022
C       -0.78219782      -0.56925908      -0.44209156
O       -0.47178179      -1.41728909      -1.28904318
H        3.14357820       0.14822853      -0.61904652
H        1.11964254      -1.32040726       1.43728372
H        1.74302447      -1.43402840      -0.33275947
H        0.52684459       0.42347212       1.83228479
H       -0.96189277       1.85964825       0.35985033
H       -0.75559893       1.53537227      -1.37137893
H       -2.80963191       0.04002521      -1.10753727
H       -2.61333469      -0.00187441       0.68385618
15
Frame=11 idx=007217 GeodesicLength=1.610384336404627 rxn_smarts="[O:1]([C:2]([C@@:3]1([H:11])[C:4]([H:12])([H:13])[C:5]([H:14])([H:15])[C:6]1=[O:7])([H:9])[H:10])[H:8]>>[C:4]1([H:12])([H:13])[C:5]([H:14])([H:15])[C:6]1=[O:7].[O:1]([C:2](=[C:3]([H:9])[H:11])[H:10])[H:8]"
O        2.63410574       0.37143119       0.13542823
C        1.73451001      -0.61368771       0.41477435
C        0.52124537      -0.19067245       0.97252441
C       -0.91821706       1.07133870      -0.37011625
C       -2.11550993       0.11552062      -0.31616837
C       -0.80112065      -0.60012858      -0.44920302
O       -0.48740796      -1.45544978      -1.27893902
H        3.02788896       0.18271761      -0.72464810
H        1.16921691      -1.31320432       1.49825840
H        1.75478730      -1.45489493      -0.28286280
H        0.55121100       0.42278576       1.86988266
H       -0.96197129       1.83483677       0.39998521
H       -0.67564561       1.53987434      -1.31884467
H       -2.78347112       0.09843963      -1.17122722
H       -2.64962166      -0.00890685       0.62115622
15
Frame=12 idx=007217 GeodesicLength=1.7651485148295394 rxn_smarts="[O:1]([C:2]([C@@:3]1([H:11])[C:4]([H:12])([H:13])[C:5]([H:14])([H:15])[C:6]1=[O:7])([H:9])[H:10])[H:8]>>[C:4]1([H:12])([H:13])[C:5]([H:14])([H:15])[C:6]1=[O:7].[O:1]([C:2](=[C:3]([H:9])[H:11])[H:10])[H:8]"
O        2.57961138       0.40056333       0.06425650
C        1.73908653      -0.61030974       0.43713646
C        0.53123517      -0.19934162       1.01725369
C       -0.88818348       1.05394593      -0.33613838
C       -2.11235832       0.12468321      -0.35752547
C       -0.81964644      -0.62930592      -0.45939244
O       -0.50263642      -1.49204785      -1.27141416
H        2.90388631       0.20673953      -0.82370556
H        1.22336568      -1.30132106       1.55782772
H        1.76805084      -1.47180745      -0.23489327
H        0.57882959       0.42556346       1.90629719
H       -0.96510885       1.80874091       0.44039988
H       -0.59976107       1.54322432      -1.26189427
H       -2.75248699       0.15645372      -1.23364393
H       -2.68388391      -0.01578077       0.55543604
15
Frame=13 idx=007217 GeodesicLength=1.9210237694599541 rxn_smarts="[O:1]([C:2]([C@@:3]1([H:11])[C:4]([H:12])([H:13])[C:5]([H:14])([H:15])[C:6]1=[O:7])([H:9])[H:10])[H:8]>>[C:4]1([H:12])([H:13])[C:5]([H:14])([H:15])[C:6]1=[O:7].[O:1]([C:2](=[C:3]([H:9])[H:11])[H:10])[H:8]"
O        2.52199032       0.42413682      -0.00646004
C        1.74424316      -0.60410944       0.45690709
C        0.54365238      -0.20455661       1.06122270
C       -0.86252778       1.03558312      -0.30009460
C       -2.10818879       0.13350820      -0.39932502
C       -0.83819664      -0.65634605      -0.47318106
O       -0.51772014      -1.52582512      -1.26761054
H        2.78054285       0.21535540      -0.91265561
H        1.28210825      -1.28329836       1.61502435
H        1.78208935      -1.48471656      -0.18919081
H        0.61026799       0.43291016       1.94041206
H       -0.97329499       1.78078640       0.48201902
H       -0.53021243       1.54631668      -1.19975218
H       -2.71805358       0.21391344      -1.29414699
H       -2.71669997      -0.02365810       0.48683163
15
Frame=14 idx=007217 GeodesicLength=2.0789811004310645 rxn_smarts="[O:1]([C:2]([C@@:3]1([H:11])[C:4]([H:12])([H:13])[C:5]([H:14])([H:15])[C:6]1=[O:7])([H:9])[H:10])[H:8]>>[C:4]1([H:12])([H:13])[C:5]([H:14])([H:15])[C:6]1=[O:7].[O:1]([C:2](=[C:3]([H:9])[H:11])[H:10])[H:8]"
O        2.46183310       0.44194397      -0.07443660
C        1.74986677      -0.59634094       0.47481280
C        0.55840338      -0.20751524       1.10525002
C       -0.83977318       1.01563393      -0.26288092
C       -2.10246237       0.14274225      -0.44166691
C       -0.85678337      -0.68200656      -0.49053401
O       -0.53331021      -1.55862998      -1.26669666
H        2.65214082       0.21535232      -0.99350042
H        1.34530375      -1.26046714       1.67002482
H        1.79696007      -1.49439837      -0.14594742
H        0.64507484       0.44379347       1.97286817
H       -0.98413775       1.75083009       0.52369457
H       -0.46567142       1.54805204      -1.13377621
H       -2.67990612       0.27165311      -1.35260443
H       -2.74753830      -0.03064297       0.41539320
15
Frame=15 idx=007217 GeodesicLength=2.2389384191745156 rxn_smarts="[O:1]([C:2]([C@@:3]1([H:11])[C:4]([H:12])([H:13])[C:5]([H:14])([H:15])[C:6]1=[O:7])([H:9])[H:10])[H:8]>>[C:4]1([H:12])([H:13])[C:5]([H:14])([H:15])[C:6]1=[O:7].[O:1]([C:2](=[C:3]([H:9])[H:11])[H:10])[H:8]"
O        2.39978614       0.45387752      -0.13973888
C        1.75581187      -0.58730532       0.49083521
C        0.57574505      -0.20786928       1.14926745
C       -0.82023492       0.99384107      -0.22437253
C       -2.09539360       0.15245284      -0.48457975
C       -0.87548817      -0.70621217      -0.51184159
O       -0.54956973      -1.59026730      -1.26913294
H        2.52020991       0.20638738      -1.06553077
H        1.41299806      -1.23229692       1.72258400
H        1.81222170      -1.50142264      -0.10492766
H        0.68358932       0.45877208       2.00317769
H       -0.99810232       1.71822820       0.56587251
H       -0.40665914       1.54860835      -1.06364560
H       -2.63834948       0.33009882      -1.40884585
H       -2.77656469      -0.03689261       0.34087872
15
Frame=16 idx=007217 GeodesicLength=2.4005858718113355 rxn_smarts="[O:1]([C:2]([C@@:3]1([H:11])[C:4]([H:12])([H:13])[C:5]([H:14])([H:15])[C:6]1=[O:7])([H:9])[H:10])[H:8]>>[C:4]1([H:12])([H:13])[C:5]([H:14])([H:15])[C:6]1=[O:7].[O:1]([C:2](=[C:3]([H:9])[H:11])[H:10])[H:8]"
O        2.33642686       0.45997507      -0.20223041
C        1.76189321      -0.57731532       0.50498396
C        0.59587506      -0.20526888       1.19323880
C       -0.80418963       0.96983173      -0.18456838
C       -2.08722721       0.16276314      -0.52797438
C       -0.89447465      -0.72894215      -0.53751353
O       -0.56678552      -1.62067155      -1.27539034
H        2.38690734       0.18840757      -1.12805879
H        1.48510553      -1.19845097       1.77230156
H        1.82740726      -1.50628542      -0.06600838
H        0.72601035       0.47835267       2.03089644
H       -1.01545950       1.68230248       0.60882517
H       -0.35380951       1.54796129      -0.98926949
H       -2.59377775       0.38965068      -1.46249026
H       -2.80390185      -0.04231033       0.26325803
