12
Frame=0 idx=002879 GeodesicLength=0.0 rxn_smarts="[C:1]([C:2](=[O:3])[C:4](=[O:5])[C:6]([H:10])([H:11])[H:12])([H:7])([H:8])[H:9]>>[C:1]([C:2](=[O:3])[H:11])([H:7])([H:8])[H:9].[C:4](=[O:5])=[C:6]([H:10])[H:12]"
C       -1.77632101       0.13371729      -0.06524660
C       -0.40356040       0.69522480      -0.18066551
O       -0.05490309       1.81540956      -0.29487971
C        0.72764856      -0.66726028      -0.03523864
O        0.19458462      -1.78323659       0.08130582
C        1.92332228      -0.12739501       0.43405301
H       -2.50141494       0.92239119      -0.25295153
H       -1.88117417      -0.70445233      -0.75308775
H       -1.89689416      -0.28479814       0.93473866
H        2.65781800      -0.73658845       0.94922497
H        0.89379634      -0.18885294      -1.09797770
H        2.11709798       0.92584090       0.28072502
12
Frame=1 idx=002879 GeodesicLength=0.1283078379725911 rxn_smarts="[C:1]([C:2](=[O:3])[C:4](=[O:5])[C:6]([H:10])([H:11])[H:12])([H:7])([H:8])[H:9]>>[C:1]([C:2](=[O:3])[H:11])([H:7])([H:8])[H:9].[C:4](=[O:5])=[C:6]([H:10])[H:12]"
C       -1.79041597       0.13734613      -0.08028012
C       -0.41177626       0.68860024      -0.18347302
O       -0.06196443       1.81213978      -0.27247310
C        0.73383921      -0.67880452       0.00389784
O        0.20181971      -1.78869443       0.13719067
C        1.94766680      -0.13216994       0.41309733
H       -2.50874780       0.93165266      -0.27044329
H       -1.89726503      -0.69729767      -0.77234988
H       -1.92685289      -0.28425650       0.91644316
H        2.70275110      -0.74294926       0.89539140
H        0.89035902      -0.17511951      -1.08774521
H        2.12058654       0.92955302       0.30074421
12
Frame=2 idx=002879 GeodesicLength=0.25646596734964644 rxn_smarts="[C:1]([C:2](=[O:3])[C:4](=[O:5])[C:6]([H:10])([H:11])[H:12])([H:7])([H:8])[H:9]>>[C:1]([C:2](=[O:3])[H:11])([H:7])([H:8])[H:9].[C:4](=[O:5])=[C:6]([H:10])[H:12]"
C       -1.80412956       0.14066023      -0.09587556
C       -0.41996332       0.68202989      -0.18679983
O       -0.06939143       1.80857815      -0.24940330
C        0.74060614      -0.68894910       0.04518616
O        0.20951559      -1.79221542       0.19697675
C        1.97126454      -0.13676524       0.39026748
H       -2.51583777       0.94047615      -0.28803628
H       -1.91272134      -0.69009991      -0.79257855
H       -1.95625689      -0.28427184       0.89723464
H        2.74572908      -0.74971582       0.83760031
H        0.88663175      -0.16134703      -1.07817801
H        2.12455318       0.93161994       0.32360620
12
Frame=3 idx=002879 GeodesicLength=0.38445884319928825 rxn_smarts="[C:1]([C:2](=[O:3])[C:4](=[O:5])[C:6]([H:10])([H:11])[H:12])([H:7])([H:8])[H:9]>>[C:1]([C:2](=[O:3])[H:11])([H:7])([H:8])[H:9].[C:4](=[O:5])=[C:6]([H:10])[H:12]"
C       -1.81738717       0.14356000      -0.11194221
C       -0.42807280       0.67553224      -0.19057560
O       -0.07723531       1.80471791      -0.22554571
C        0.74807467      -0.69750146       0.08857839
O        0.21780927      -1.79357539       0.26026346
C        1.99368354      -0.14107256       0.36586057
H       -2.52269665       0.94878052      -0.30532590
H       -1.92750017      -0.68277662      -0.81389083
H       -1.98486049      -0.28523928       0.87710369
H        2.78574793      -0.75674158       0.77696080
H        0.88271523      -0.14718888      -1.06950823
H        2.12972194       0.93150511       0.34802157
12
Frame=4 idx=002879 GeodesicLength=0.5125764196663694 rxn_smarts="[C:1]([C:2](=[O:3])[C:4](=[O:5])[C:6]([H:10])([H:11])[H:12])([H:7])([H:8])[H:9]>>[C:1]([C:2](=[O:3])[H:11])([H:7])([H:8])[H:9].[C:4](=[O:5])=[C:6]([H:10])[H:12]"
C       -1.83029100       0.14596969      -0.12848735
C       -0.43610919       0.66918881      -0.19467777
O       -0.08560227       1.80066066      -0.20081028
C        0.75640691      -0.70429293       0.13424428
O        0.22677501      -1.79267107       0.32692026
C        2.01463620      -0.14503032       0.34048370
H       -2.52954866       0.95653216      -0.32212722
H       -1.94162497      -0.67530693      -0.83647255
H       -2.01277340      -0.28750290       0.85594495
H        2.82246978      -0.76424986       0.71384525
H        0.87878921      -0.13230987      -1.06177861
H        2.13687237       0.92901257       0.37291534
12
Frame=5 idx=002879 GeodesicLength=0.6400601528662979 rxn_smarts="[C:1]([C:2](=[O:3])[C:4](=[O:5])[C:6]([H:10])([H:11])[H:12])([H:7])([H:8])[H:9]>>[C:1]([C:2](=[O:3])[H:11])([H:7])([H:8])[H:9].[C:4](=[O:5])=[C:6]([H:10])[H:12]"
C       -1.84230999       0.14776094      -0.14524234
C       -0.44390241       0.66279312      -0.19869452
O       -0.09453516       1.79591784      -0.17481231
C        0.76539999      -0.70918955       0.18194409
O        0.23642082      -1.78912729       0.39569742
C        2.03322290      -0.14877839       0.31460721
H       -2.53578270       0.96356376      -0.33745464
H       -1.95467158      -0.66706361      -0.86062077
H       -2.03916461      -0.29185764       0.83374333
H        2.85392057      -0.77176618       0.65129505
H        0.87495081      -0.11609922      -1.05521999
H        2.14645136       0.92384621       0.39475745
12
Frame=6 idx=002879 GeodesicLength=0.7676112201405033 rxn_smarts="[C:1]([C:2](=[O:3])[C:4](=[O:5])[C:6]([H:10])([H:11])[H:12])([H:7])([H:8])[H:9]>>[C:1]([C:2](=[O:3])[H:11])([H:7])([H:8])[H:9].[C:4](=[O:5])=[C:6]([H:10])[H:12]"
C       -1.85387569       0.14892132      -0.16219546
C       -0.45154216       0.65653418      -0.20263152
O       -0.10421520       1.79088889      -0.14788181
C        0.77531311      -0.71212402       0.23191183
O        0.24677418      -1.78339004       0.46606741
C        2.04969370      -0.15257456       0.28903163
H       -2.54212762       0.96995198      -0.35102254
H       -1.96708602      -0.65807853      -0.88646744
H       -2.06442903      -0.29857780       0.81042084
H        2.88066314      -0.78004061       0.59002441
H        0.87152619      -0.09810558      -1.04978550
H        2.15930540       0.91659477       0.41252815
12
Frame=7 idx=002879 GeodesicLength=0.8950612445112036 rxn_smarts="[C:1]([C:2](=[O:3])[C:4](=[O:5])[C:6]([H:10])([H:11])[H:12])([H:7])([H:8])[H:9]>>[C:1]([C:2](=[O:3])[H:11])([H:7])([H:8])[H:9].[C:4](=[O:5])=[C:6]([H:10])[H:12]"
C       -1.86482802       0.14939461      -0.17933269
C       -0.45896180       0.65034306      -0.20621728
O       -0.11471944       1.78543887      -0.11996848
C        0.78607334      -0.71291497       0.28442551
O        0.25773957      -1.77528487       0.53784751
C        2.06381054      -0.15673488       0.26398586
H       -2.54844454       0.97560478      -0.36255236
H       -1.97865456      -0.64804014      -0.91424248
H       -2.08837418      -0.30805735       0.78580150
H        2.90243017      -0.78940502       0.53061486
H        0.86856994      -0.07794608      -1.04549021
H        2.17535899       0.90760198       0.42512826
12
Frame=8 idx=002879 GeodesicLength=1.0225295423552494 rxn_smarts="[C:1]([C:2](=[O:3])[C:4](=[O:5])[C:6]([H:10])([H:11])[H:12])([H:7])([H:8])[H:9]>>[C:1]([C:2](=[O:3])[H:11])([H:7])([H:8])[H:9].[C:4](=[O:5])=[C:6]([H:10])[H:12]"
C       -1.87521725       0.14913845      -0.19670524
C       -0.46614794       0.64425810      -0.20938996
O       -0.12621716       1.77968656      -0.09121589
C        0.79777070      -0.71129557       0.33989267
O        0.26921804      -1.76482650       0.61107948
C        2.07560909      -0.16157385       0.23975641
H       -2.55492027       0.98041548      -0.37195286
H       -1.98930645      -0.63684229      -0.94407294
H       -2.11107997      -0.32050545       0.75971192
H        2.91949550      -0.80053280       0.47290414
H        0.86613598      -0.05520239      -1.04233351
H        2.19465972       0.89728025       0.43232578
12
Frame=9 idx=002879 GeodesicLength=1.1496554780551733 rxn_smarts="[C:1]([C:2](=[O:3])[C:4](=[O:5])[C:6]([H:10])([H:11])[H:12])([H:7])([H:8])[H:9]>>[C:1]([C:2](=[O:3])[H:11])([H:7])([H:8])[H:9].[C:4](=[O:5])=[C:6]([H:10])[H:12]"
C       -1.88458503       0.14808132      -0.21419822
C       -0.47290394       0.63805502      -0.21207521
O       -0.13852032       1.77318407      -0.06210506
C        0.81032401      -0.70705349       0.39847826
O        0.28117202      -1.75136837       0.68551439
C        2.08446151      -0.16732633       0.21624202
H       -2.56108753       0.98411387      -0.37876362
H       -1.99881675      -0.62410548      -0.97593403
H       -2.13165946      -0.33615016       0.73211647
H        2.93095987      -0.81344781       0.41705100
H        0.86448256      -0.02948325      -1.04064029
H        2.21617307       0.88550062       0.43431427
12
Frame=10 idx=002879 GeodesicLength=1.2767331245863456 rxn_smarts="[C:1]([C:2](=[O:3])[C:4](=[O:5])[C:6]([H:10])([H:11])[H:12])([H:7])([H:8])[H:9]>>[C:1]([C:2](=[O:3])[H:11])([H:7])([H:8])[H:9].[C:4](=[O:5])=[C:6]([H:10])[H:12]"
C       -1.89316795       0.14614926      -0.23190988
C       -0.47924663       0.63190068      -0.21435986
O       -0.15195768       1.76643916      -0.03267733
C        0.82401647      -0.69984806       0.46046802
O        0.29356097      -1.73511674       0.76146877
C        2.09062478      -0.17435449       0.19360056
H       -2.56747123       0.98653648      -0.38304047
H       -2.00720306      -0.60993426      -1.00985309
H       -2.15042852      -0.35515044       0.70281601
H        2.93732079      -0.82908314       0.36286943
H        0.86361930       0.00002227      -1.04048945
H        2.24033276       0.87243928       0.43110729
12
Frame=11 idx=002879 GeodesicLength=1.4036130785399863 rxn_smarts="[C:1]([C:2](=[O:3])[C:4](=[O:5])[C:6]([H:10])([H:11])[H:12])([H:7])([H:8])[H:9]>>[C:1]([C:2](=[O:3])[H:11])([H:7])([H:8])[H:9].[C:4](=[O:5])=[C:6]([H:10])[H:12]"
C       -1.90065712       0.14318606      -0.24992104
C       -0.48502954       0.62574590      -0.21615877
O       -0.16658175       1.75935338      -0.00286433
C        0.83898600      -0.68930154       0.52604199
O        0.30629118      -1.71527014       0.83965153
C        2.09360867      -0.18292877       0.17166714
H       -2.57389941       0.98723963      -0.38469683
H       -2.01407215      -0.59418516      -1.04589632
H       -2.16686534      -0.37779189       0.67151867
H        2.93786721      -0.84795380       0.30974200
H        0.86369493       0.03423417      -1.04213060
H        2.26665731       0.85767217       0.42304655
12
Frame=12 idx=002879 GeodesicLength=1.5303307669429072 rxn_smarts="[C:1]([C:2](=[O:3])[C:4](=[O:5])[C:6]([H:10])([H:11])[H:12])([H:7])([H:8])[H:9]>>[C:1]([C:2](=[O:3])[H:11])([H:7])([H:8])[H:9].[C:4](=[O:5])=[C:6]([H:10])[H:12]"
C       -1.90685167       0.13898611      -0.26837975
C       -0.49013037       0.61967031      -0.21743305
O       -0.18261662       1.75205688       0.02763738
C        0.85551065      -0.67500792       0.59532032
O        0.31925464      -1.69104815       0.92111509
C        2.09299685      -0.19338769       0.15026460
H       -2.58044233       0.98570495      -0.38373168
H       -2.01902148      -0.57681994      -1.08416365
H       -2.18057985      -0.40446978       0.63782301
H        2.93188016      -0.87086445       0.25704016
H        0.86493995       0.07454034      -1.04572997
H        2.29506008       0.84063932       0.41023755
12
Frame=13 idx=002879 GeodesicLength=1.656885393259401 rxn_smarts="[C:1]([C:2](=[O:3])[C:4](=[O:5])[C:6]([H:10])([H:11])[H:12])([H:7])([H:8])[H:9]>>[C:1]([C:2](=[O:3])[H:11])([H:7])([H:8])[H:9].[C:4](=[O:5])=[C:6]([H:10])[H:12]"
C       -1.91131781       0.13324137      -0.28745200
C       -0.49431757       0.61374436      -0.21814433
O       -0.20022891       1.74446463       0.05925601
C        0.87394003      -0.65653165       0.66833396
O        0.33227849      -1.66104607       1.00720591
C        2.08797308      -0.20602591       0.12915409
H       -2.58697564       0.98110806      -0.38028423
H       -2.02141965      -0.55784487      -1.12471601
H       -2.19076570      -0.43562312       0.60135524
H        2.91783248      -0.89860885       0.20366585
H        0.86774675       0.12287536      -1.05138058
H        2.32525443       0.82024668       0.39300611
12
Frame=14 idx=002879 GeodesicLength=1.783184203070139 rxn_smarts="[C:1]([C:2](=[O:3])[C:4](=[O:5])[C:6]([H:10])([H:11])[H:12])([H:7])([H:8])[H:9]>>[C:1]([C:2](=[O:3])[H:11])([H:7])([H:8])[H:9].[C:4](=[O:5])=[C:6]([H:10])[H:12]"
C       -1.91357385       0.12555163      -0.30742099
C       -0.49739260       0.60831338      -0.21831875
O       -0.22002222       1.73685418       0.09279528
C        0.89471835      -0.63317109       0.74512859
O        0.34530179      -1.62382835       1.09961529
C        2.07761569      -0.22134101       0.10797744
H       -2.59356203       0.97244137      -0.37433311
H       -2.02035147      -0.53731204      -1.16777053
H       -2.19648644      -0.47201599       0.56133195
H        2.89380384      -0.93265448       0.14883654
H        0.87244419       0.18185742      -1.05862640
H        2.35750475       0.79530498       0.37078469
12
Frame=15 idx=002879 GeodesicLength=1.9092104827816796 rxn_smarts="[C:1]([C:2](=[O:3])[C:4](=[O:5])[C:6]([H:10])([H:11])[H:12])([H:7])([H:8])[H:9]>>[C:1]([C:2](=[O:3])[H:11])([H:7])([H:8])[H:9].[C:4](=[O:5])=[C:6]([H:10])[H:12]"
C       -1.91283770       0.11536715      -0.32861349
C       -0.49901427       0.60383753      -0.21805004
O       -0.24259655       1.72933151       0.12907969
C        0.91851926      -0.60403312       0.82572887
O        0.35820619      -1.57704172       1.20013493
C        2.06043251      -0.23975563       0.08633277
H       -2.60013589       0.95819366      -0.36582264
H       -2.01466228      -0.51523418      -1.21360800
H       -2.19606381      -0.51466232       0.51688329
H        2.85654686      -0.97457759       0.09126943
H        0.87966629       0.25471278      -1.06639663
H        2.39193937       0.76386192       0.34306183
12
Frame=16 idx=002879 GeodesicLength=2.0350563052269917 rxn_smarts="[C:1]([C:2](=[O:3])[C:4](=[O:5])[C:6]([H:10])([H:11])[H:12])([H:7])([H:8])[H:9]>>[C:1]([C:2](=[O:3])[H:11])([H:7])([H:8])[H:9].[C:4](=[O:5])=[C:6]([H:10])[H:12]"
C       -1.90812522       0.10208983      -0.35134818
C       -0.49874329       0.60105690      -0.21773593
O       -0.26867904       1.72207881       0.16871072
C        0.94633409      -0.56818477       0.90979458
O        0.37114071      -1.51802448       1.30992556
C        2.03446955      -0.26150403       0.06390277
H       -2.60663122       0.93648461      -0.35450544
H       -2.00318865      -0.49154031      -1.26242222
H       -2.18702602      -0.56470289       0.46707796
H        2.80155820      -1.02590133       0.03005741
H        0.89024543       0.34478064      -1.07246498
H        2.42864546       0.72336703       0.30900776
