11
Frame=0 idx=004947 GeodesicLength=0.0 rxn_smarts="[O:1]([C:2]([C@@:3]1([H:9])[C:4]([H:10])([H:11])[O:5]1)([H:7])[H:8])[H:6]>>[C:2]([C@@:3]1([H:9])[C:4]([H:10])([H:11])[O:5]1)[H:8].[O:1]([H:6])[H:7]"
O       -1.69845777      -0.20902814      -0.49377030
C       -0.71519998       1.10081676       0.11113887
C        0.64901623       0.51399742       0.10152670
C        1.01353199      -0.87271374       0.39157017
O        0.93871989      -0.39636668      -0.95975398
H       -1.03009036      -0.65268504      -1.05111458
H       -1.72819632       0.75489419      -0.89681728
H       -1.09965443       1.18791998       1.12985491
H        1.41154717       1.27506457       0.26710862
H        0.24275299      -1.58519011       0.67143032
H        2.01603064      -1.11670925       0.72882654
11
Frame=1 idx=004947 GeodesicLength=0.058192991671084986 rxn_smarts="[O:1]([C:2]([C@@:3]1([H:9])[C:4]([H:10])([H:11])[O:5]1)([H:7])[H:8])[H:6]>>[C:2]([C@@:3]1([H:9])[C:4]([H:10])([H:11])[O:5]1)[H:8].[O:1]([H:6])[H:7]"
O       -1.69459623      -0.20481944      -0.49003342
C       -0.72015830       1.09176230       0.11229132
C        0.64783178       0.51213724       0.10033360
C        1.01521993      -0.87338758       0.39251961
O        0.93856945      -0.39984113      -0.95958971
H       -1.03075178      -0.65322945      -1.04914014
H       -1.72691212       0.76904688      -0.90440860
H       -1.10160678       1.18367024       1.13165225
H        1.40842935       1.27559659       0.26283430
H        0.24549850      -1.58636916       0.67397310
H        2.01847621      -1.11456650       0.72956768
11
Frame=2 idx=004947 GeodesicLength=0.11637869488316975 rxn_smarts="[O:1]([C:2]([C@@:3]1([H:9])[C:4]([H:10])([H:11])[O:5]1)([H:7])[H:8])[H:6]>>[C:2]([C@@:3]1([H:9])[C:4]([H:10])([H:11])[O:5]1)[H:8].[O:1]([H:6])[H:7]"
O       -1.69078275      -0.20088603      -0.48631971
C       -0.72508753       1.08274374       0.11337751
C        0.64661681       0.51027633       0.09912550
C        1.01688879      -0.87404515       0.39347503
O        0.93840504      -0.40332867      -0.95942200
H       -1.03140462      -0.65377017      -1.04726411
H       -1.72544929       0.78339737      -0.91169221
H       -1.10360555       1.17943594       1.13332899
H        1.40528033       1.27610744       0.25854172
H        0.24824053      -1.58753792       0.67653534
H        2.02089825      -1.11239288       0.73031394
11
Frame=3 idx=004947 GeodesicLength=0.1745695551423259 rxn_smarts="[O:1]([C:2]([C@@:3]1([H:9])[C:4]([H:10])([H:11])[O:5]1)([H:7])[H:8])[H:6]>>[C:2]([C@@:3]1([H:9])[C:4]([H:10])([H:11])[O:5]1)[H:8].[O:1]([H:6])[H:7]"
O       -1.68701614      -0.19723384      -0.48261101
C       -0.72999161       1.07375688       0.11439132
C        0.64536952       0.50841272       0.09790385
C        1.01853970      -0.87468531       0.39443386
O        0.93822728      -0.40682674      -0.95924935
H       -1.03204961      -0.65431309      -1.04547886
H       -1.72380389       0.79795736      -0.91867990
H       -1.10565321       1.17522445       1.13487765
H        1.40209699       1.27659231       0.25424066
H        0.25098289      -1.58869590       0.67911330
H        2.02329806      -1.11018884       0.73105850
11
Frame=4 idx=004947 GeodesicLength=0.2327434436813397 rxn_smarts="[O:1]([C:2]([C@@:3]1([H:9])[C:4]([H:10])([H:11])[O:5]1)([H:7])[H:8])[H:6]>>[C:2]([C@@:3]1([H:9])[C:4]([H:10])([H:11])[O:5]1)[H:8].[O:1]([H:6])[H:7]"
O       -1.68329746      -0.19386725      -0.47891166
C       -0.73487400       1.06479826       0.11533444
C        0.64408936       0.50654667       0.09666570
C        1.02017348      -0.87530894       0.39540043
O        0.93803522      -0.41034122      -0.95907309
H       -1.03268607      -0.65486111      -1.04379254
H       -1.72197442       0.81274619      -0.92536971
H       -1.10774963       1.17102840       1.13630470
H        1.39887815       1.27705703       0.24991950
H        0.25372740      -1.58984564       0.68171693
H        2.02567797      -1.10795238       0.73180530
11
Frame=5 idx=004947 GeodesicLength=0.29092674997896123 rxn_smarts="[O:1]([C:2]([C@@:3]1([H:9])[C:4]([H:10])([H:11])[O:5]1)([H:7])[H:8])[H:6]>>[C:2]([C@@:3]1([H:9])[C:4]([H:10])([H:11])[O:5]1)[H:8].[O:1]([H:6])[H:7]"
O       -1.67962977      -0.19078940      -0.47520028
C       -0.73974006       1.05586326       0.11620243
C        0.64277277       0.50467561       0.09541436
C        1.02179301      -0.87591549       0.39637077
O        0.93782597      -0.41386798      -0.95889230
H       -1.03331953      -0.65542427      -1.04218917
H       -1.71994433       0.82777748      -0.93178413
H       -1.10989955       1.16685560       1.13760311
H        1.39561852       1.27749710       0.24558987
H        0.25648098      -1.59098908       0.68433969
H        2.02804199      -1.10568283       0.73254565
11
Frame=6 idx=004947 GeodesicLength=0.34910045390403677 rxn_smarts="[O:1]([C:2]([C@@:3]1([H:9])[C:4]([H:10])([H:11])[O:5]1)([H:7])[H:8])[H:6]>>[C:2]([C@@:3]1([H:9])[C:4]([H:10])([H:11])[O:5]1)[H:8].[O:1]([H:6])[H:7]"
O       -1.67601208      -0.18800484      -0.47148102
C       -0.74459332       1.04694658       0.11699705
C        0.64141901       0.50279800       0.09414495
C        1.02339860      -0.87650590       0.39734813
O        0.93760024      -0.41741511      -0.95870789
H       -1.03394800      -0.65600251      -1.04068003
H       -1.71771239       0.84307230      -0.93791475
H       -1.11210233       1.16269589       1.13877913
H        1.39231585       1.27791605       0.24123563
H        0.25924425      -1.59212693       0.68699026
H        2.03039018      -1.10337354       0.73328854
11
Frame=7 idx=004947 GeodesicLength=0.4072724993630208 rxn_smarts="[O:1]([C:2]([C@@:3]1([H:9])[C:4]([H:10])([H:11])[O:5]1)([H:7])[H:8])[H:6]>>[C:2]([C@@:3]1([H:9])[C:4]([H:10])([H:11])[O:5]1)[H:8].[O:1]([H:6])[H:7]"
O       -1.67244815      -0.18551350      -0.46774766
C       -0.74943919       1.03804217       0.11771981
C        0.64002528       0.50091168       0.09285580
C        1.02499206      -0.87707999       0.39833144
O        0.93735421      -0.42098538      -0.95852052
H       -1.03457545      -0.65660302      -1.03925821
H       -1.71525943       0.85865260      -0.94377380
H       -1.11436035       1.15853755       1.13983629
H        1.38896515       1.27831471       0.23684895
H        0.26202134      -1.59325885       0.68967226
H        2.03272455      -1.10101796       0.73403564
11
Frame=8 idx=004947 GeodesicLength=0.4654453804637038 rxn_smarts="[O:1]([C:2]([C@@:3]1([H:9])[C:4]([H:10])([H:11])[O:5]1)([H:7])[H:8])[H:6]>>[C:2]([C@@:3]1([H:9])[C:4]([H:10])([H:11])[O:5]1)[H:8].[O:1]([H:6])[H:7]"
O       -1.66894134      -0.18331581      -0.46399840
C       -0.75428386       1.02914391       0.11837194
C        0.63858832       0.49901528       0.09154450
C        1.02657468      -0.87763607       0.39932350
O        0.93708504      -0.42458382      -0.95832895
H       -1.03520425      -0.65723279      -1.03791994
H       -1.71256706       0.87454211      -0.94936867
H       -1.11667682       1.15436776       1.14077847
H        1.38556078       1.27869505       0.23242019
H        0.26481601      -1.59438330       0.69239307
H        2.03504852      -1.09861232       0.73478427
11
Frame=9 idx=004947 GeodesicLength=0.5236166690514628 rxn_smarts="[O:1]([C:2]([C@@:3]1([H:9])[C:4]([H:10])([H:11])[O:5]1)([H:7])[H:8])[H:6]>>[C:2]([C@@:3]1([H:9])[C:4]([H:10])([H:11])[O:5]1)[H:8].[O:1]([H:6])[H:7]"
O       -1.66548896      -0.18142443      -0.46022355
C       -0.75913089       1.02024680       0.11894734
C        0.63710648       0.49710679       0.09021085
C        1.02814698      -0.87817488       0.40032469
O        0.93679399      -0.42821197      -0.95813274
H       -1.03583429      -0.65789216      -1.03667256
H       -1.70963389       0.89075455      -0.95469093
H       -1.11905347       1.15019733       1.14159869
H        1.38209997       1.27905527       0.22795092
H        0.26763104      -1.59550319       0.69515261
H        2.03736303      -1.09615410       0.73553467
11
Frame=10 idx=004947 GeodesicLength=0.5817842118635712 rxn_smarts="[O:1]([C:2]([C@@:3]1([H:9])[C:4]([H:10])([H:11])[O:5]1)([H:7])[H:8])[H:6]>>[C:2]([C@@:3]1([H:9])[C:4]([H:10])([H:11])[O:5]1)[H:8].[O:1]([H:6])[H:7]"
O       -1.66209055      -0.17985092      -0.45641105
C       -0.76398487       1.01134769       0.11943732
C        0.63557749       0.49518554       0.08885546
C        1.02970975      -0.87869630       0.40133352
O        0.93648148      -0.43186786      -0.95793265
H       -1.03646708      -0.65858776      -1.03551454
H       -1.70645293       0.90730189      -0.95973745
H       -1.12149143       1.14603851       1.14228818
H        1.37857938       1.27939446       0.22344957
H        0.27046974      -1.59662135       0.69794812
H        2.03966903      -1.09364390       0.73628352
11
Frame=11 idx=004947 GeodesicLength=0.6399427067064828 rxn_smarts="[O:1]([C:2]([C@@:3]1([H:9])[C:4]([H:10])([H:11])[O:5]1)([H:7])[H:8])[H:6]>>[C:2]([C@@:3]1([H:9])[C:4]([H:10])([H:11])[O:5]1)[H:8].[O:1]([H:6])[H:7]"
O       -1.65874639      -0.17860687      -0.45255020
C       -0.76885077       1.00244296       0.11983366
C        0.63399878       0.49325071       0.08747852
C        1.03126370      -0.87920004       0.40234867
O        0.93614796      -0.43555017      -0.95772919
H       -1.03710389      -0.65932604      -1.03444458
H       -1.70301499       0.92419698      -0.96450282
H       -1.12399232       1.14190260       1.14283807
H        1.37499515       1.27971176       0.21892265
H        0.27333532      -1.59774018       0.70077722
H        2.04196746      -1.09108171       0.73702800
11
Frame=12 idx=004947 GeodesicLength=0.6980957367734504 rxn_smarts="[O:1]([C:2]([C@@:3]1([H:9])[C:4]([H:10])([H:11])[O:5]1)([H:7])[H:8])[H:6]>>[C:2]([C@@:3]1([H:9])[C:4]([H:10])([H:11])[O:5]1)[H:8].[O:1]([H:6])[H:7]"
O       -1.65545144      -0.17770642      -0.44863294
C       -0.77373252       0.99352884       0.12013058
C        0.63236821       0.49130156       0.08607963
C        1.03280917      -0.87968580       0.40336989
O        0.93579263      -0.43925862      -0.95752384
H       -1.03774713      -0.66011216      -1.03346304
H       -1.69931588       0.94145671      -0.96898454
H       -1.12655672       1.13779746       1.14324299
H        1.37134457       1.28000735       0.21437333
H        0.27623083      -1.59886199       0.70364080
H        2.04425828      -1.08846693       0.73776715
11
Frame=13 idx=004947 GeodesicLength=0.7562546768257894 rxn_smarts="[O:1]([C:2]([C@@:3]1([H:9])[C:4]([H:10])([H:11])[O:5]1)([H:7])[H:8])[H:6]>>[C:2]([C@@:3]1([H:9])[C:4]([H:10])([H:11])[O:5]1)[H:8].[O:1]([H:6])[H:7]"
O       -1.65221364      -0.17715109      -0.44464738
C       -0.77863973       0.98459646       0.12032548
C        0.63067994       0.48933495       0.08465823
C        1.03434803      -0.88015181       0.40439622
O        0.93541185      -0.44299568      -0.95731384
H       -1.03840136      -0.66095636      -1.03255949
H       -1.69531907       0.95910426      -0.97318864
H       -1.12919183       1.13371747       1.14349784
H        1.36761763       1.28027863       0.20979926
H        0.27916181      -1.59998415       0.70653935
H        2.04654638      -1.08579267       0.73849298
11
Frame=14 idx=004947 GeodesicLength=0.8144017795514071 rxn_smarts="[O:1]([C:2]([C@@:3]1([H:9])[C:4]([H:10])([H:11])[O:5]1)([H:7])[H:8])[H:6]>>[C:2]([C@@:3]1([H:9])[C:4]([H:10])([H:11])[O:5]1)[H:8].[O:1]([H:6])[H:7]"
O       -1.64903429      -0.17695156      -0.44060247
C       -0.78357712       0.97563896       0.12041885
C        0.62893232       0.48734982       0.08320904
C        1.03588110      -0.88059813       0.40543338
O        0.93500461      -0.44677014      -0.95710228
H       -1.03906903      -0.66186200      -1.03174757
H       -1.69101251       0.97717036      -0.97709770
H       -1.13190043       1.12965016       1.14360872
H        1.36381290       1.28053381       0.20517796
H        0.28212894      -1.60110961       0.70948585
H        2.04883350      -1.08305167       0.73921623
11
Frame=15 idx=004947 GeodesicLength=0.872550047651869 rxn_smarts="[O:1]([C:2]([C@@:3]1([H:9])[C:4]([H:10])([H:11])[O:5]1)([H:7])[H:8])[H:6]>>[C:2]([C@@:3]1([H:9])[C:4]([H:10])([H:11])[O:5]1)[H:8].[O:1]([H:6])[H:7]"
O       -1.64590983      -0.17711216      -0.43649171
C       -0.78855295       0.96664771       0.12040740
C        0.62711862       0.48534151       0.08172884
C        1.03740888      -0.88102375       0.40647981
O        0.93456689      -0.45059013      -0.95688449
H       -1.03974935      -0.66283348      -1.03102223
H       -1.68636749       0.99568478      -0.98070359
H       -1.13468882       1.12558704       1.14356898
H        1.35991469       1.28076707       0.20049844
H        0.28514073      -1.60223500       0.71248350
H        2.05111863      -1.08023358       0.73993506
11
Frame=16 idx=004947 GeodesicLength=0.9306939907012843 rxn_smarts="[O:1]([C:2]([C@@:3]1([H:9])[C:4]([H:10])([H:11])[O:5]1)([H:7])[H:8])[H:6]>>[C:2]([C@@:3]1([H:9])[C:4]([H:10])([H:11])[O:5]1)[H:8].[O:1]([H:6])[H:7]"
O       -1.64284376      -0.17764915      -0.43231111
C       -0.79357259       0.95761614       0.12028269
C        0.62523570       0.48330884       0.08021449
C        1.03893175      -0.88142724       0.40753719
O        0.93409644      -0.45445753      -0.95666430
H       -1.04044827      -0.66387955      -1.03038881
H       -1.68136692       1.01467324      -0.98399287
H       -1.13755835       1.12152690       1.14337297
H        1.35592354       1.28098057       0.19575951
H        0.28819808      -1.60336127       0.71553893
H        2.05340440      -1.07733095       0.74065130
