21
Frame=0 idx=009784 GeodesicLength=0.0 rxn_smarts="[C:1]([C@@:2]1([H:11])[C@:3]([C:4]([H:13])([H:14])[H:15])([H:12])[C:5]1([C:6]([H:16])([H:17])[H:18])[C:7]([H:19])([H:20])[H:21])([H:8])([H:9])[H:10]>>[C:1](/[C:2](=[C:3](\[C:4]([H:13])([H:14])[H:15])[H:12])[H:11])([H:8])([H:9])[H:10].[C:5]([C:6]([H:16])([H:17])[H:18])(=[C:7]([H:19])[H:20])[H:21]"
C       -1.57386159      -1.12492552      -0.43909604
C       -0.50442866      -0.14049954      -0.86994377
C       -0.54279959       1.19411430      -0.33633013
C       -1.28333166       1.64133190       0.87357979
C        0.93213983      -0.46347563      -0.29149126
C        1.14779331      -0.48690869       1.20400349
C        2.09048932      -0.25599697      -1.12944415
H       -1.37626585      -2.11489211      -0.85390380
H       -2.55070858      -0.79182010      -0.79553904
H       -1.63471625      -1.22434888       0.64560301
H       -0.38940110      -0.18609963      -1.95518099
H        0.17552343       1.89044216      -0.75429401
H       -1.73070326       2.62621799       0.70436304
H       -0.63488367       1.75703868       1.75733727
H       -2.09226422       0.96277824       1.14996662
H        1.52481776       0.46692162       1.58274941
H        1.88841757      -1.24929491       1.45601038
H        0.22868462      -0.72001558       1.74087466
H        1.98461004      -0.32666116      -2.20393692
H        3.05302534       0.02536630      -0.72008784
H        1.28786324      -1.47927241      -0.76523967
21
Frame=1 idx=009784 GeodesicLength=0.1224893339310389 rxn_smarts="[C:1]([C@@:2]1([H:11])[C@:3]([C:4]([H:13])([H:14])[H:15])([H:12])[C:5]1([C:6]([H:16])([H:17])[H:18])[C:7]([H:19])([H:20])[H:21])([H:8])([H:9])[H:10]>>[C:1](/[C:2](=[C:3](\[C:4]([H:13])([H:14])[H:15])[H:12])[H:11])([H:8])([H:9])[H:10].[C:5]([C:6]([H:16])([H:17])[H:18])(=[C:7]([H:19])[H:20])[H:21]"
C       -1.58392976      -1.12433140      -0.44211789
C       -0.52185648      -0.13439703      -0.87636714
C       -0.54747593       1.19497853      -0.33389286
C       -1.28529128       1.64499716       0.87743423
C        0.94574010      -0.46029330      -0.29106016
C        1.15627216      -0.49276568       1.20484326
C        2.10774986      -0.26258762      -1.12262695
H       -1.37662093      -2.11392960      -0.85333199
H       -2.56358600      -0.80310656      -0.80183932
H       -1.64485174      -1.21990511       0.64280611
H       -0.41331911      -0.17223058      -1.96247197
H        0.14690080       1.90243737      -0.77308763
H       -1.76426838       2.61272846       0.69710058
H       -0.62604594       1.79561910       1.74717856
H       -2.06955790       0.95011789       1.18225459
H        1.56097988       0.44874995       1.58549593
H        1.86614176      -1.28176565       1.46330781
H        0.22802714      -0.69623112       1.73749466
H        2.00941529      -0.32509127      -2.19854797
H        3.06721984       0.02357699      -0.70876165
H        1.30835663      -1.48657053      -0.77381021
21
Frame=2 idx=009784 GeodesicLength=0.24483270927796635 rxn_smarts="[C:1]([C@@:2]1([H:11])[C@:3]([C:4]([H:13])([H:14])[H:15])([H:12])[C:5]1([C:6]([H:16])([H:17])[H:18])[C:7]([H:19])([H:20])[H:21])([H:8])([H:9])[H:10]>>[C:1](/[C:2](=[C:3](\[C:4]([H:13])([H:14])[H:15])[H:12])[H:11])([H:8])([H:9])[H:10].[C:5]([C:6]([H:16])([H:17])[H:18])(=[C:7]([H:19])[H:20])[H:21]"
C       -1.59416271      -1.12353641      -0.44482315
C       -0.53988051      -0.12796698      -0.88299293
C       -0.55182435       1.19600646      -0.33160795
C       -1.28725395       1.64865156       0.88106624
C        0.95980958      -0.45695093      -0.29071157
C        1.16479765      -0.49880702       1.20557299
C        2.12551000      -0.26928419      -1.11573035
H       -1.37690190      -2.11272682      -0.85218385
H       -2.57664155      -0.81460721      -0.80772198
H       -1.65501992      -1.21496354       0.64034402
H       -0.43824214      -0.15812318      -1.96989304
H        0.11749124       1.91434291      -0.79162443
H       -1.79763372       2.59806501       0.69065632
H       -0.61861590       1.83402128       1.73613689
H       -2.04574211       0.93830592       1.21371284
H        1.59718339       0.42920748       1.58858345
H        1.84262508      -1.31360306       1.47017467
H        0.22821047      -0.67224111       1.73369999
H        2.03486804      -0.32355127      -2.19298511
H        3.08179623       0.02179486      -0.69727732
H        1.32962707      -1.49403375      -0.78239573
21
Frame=3 idx=009784 GeodesicLength=0.3670606410425653 rxn_smarts="[C:1]([C@@:2]1([H:11])[C@:3]([C:4]([H:13])([H:14])[H:15])([H:12])[C:5]1([C:6]([H:16])([H:17])[H:18])[C:7]([H:19])([H:20])[H:21])([H:8])([H:9])[H:10]>>[C:1](/[C:2](=[C:3](\[C:4]([H:13])([H:14])[H:15])[H:12])[H:11])([H:8])([H:9])[H:10].[C:5]([C:6]([H:16])([H:17])[H:18])(=[C:7]([H:19])[H:20])[H:21]"
C       -1.60455395      -1.12254090      -0.44719350
C       -0.55854497      -0.12118439      -0.88981306
C       -0.55583500       1.19720076      -0.32949097
C       -1.28922343       1.65230306       0.88446184
C        0.97437905      -0.45343775      -0.29044524
C        1.17338031      -0.50505404       1.20618322
C        2.14379869      -0.27609128      -1.10874838
H       -1.37706634      -2.11126014      -0.85043856
H       -2.58987025      -0.82636645      -0.81316242
H       -1.66522020      -1.20950081       0.63823338
H       -0.46425190      -0.14373790      -1.97743434
H        0.08728096       1.92615498      -0.80986616
H       -1.83076661       2.58221823       0.68496629
H       -0.61262318       1.87222604       1.72425939
H       -2.02086615       0.92737544       1.24429303
H        1.63343185       0.40822325       1.59201397
H        1.81779802      -1.34481923       1.47654757
H        0.22926282      -0.64803062       1.72948656
H        2.06099126      -0.32203264      -2.18723669
H        3.09677455       0.02002533      -0.68562796
H        1.35172448      -1.50167095      -0.79098797
21
Frame=4 idx=009784 GeodesicLength=0.48919802728566014 rxn_smarts="[C:1]([C@@:2]1([H:11])[C@:3]([C:4]([H:13])([H:14])[H:15])([H:12])[C:5]1([C:6]([H:16])([H:17])[H:18])[C:7]([H:19])([H:20])[H:21])([H:8])([H:9])[H:10]>>[C:1](/[C:2](=[C:3](\[C:4]([H:13])([H:14])[H:15])[H:12])[H:11])([H:8])([H:9])[H:10].[C:5]([C:6]([H:16])([H:17])[H:18])(=[C:7]([H:19])[H:20])[H:21]"
C       -1.61509719      -1.12134929      -0.44921248
C       -0.57790165      -0.11402537      -0.89681889
C       -0.55950512       1.19856334      -0.32756427
C       -1.29120206       1.65595595       0.88760532
C        0.98947954      -0.44974194      -0.29026433
C        1.18202583      -0.51152784       1.20666075
C        2.16264882      -0.28301014      -1.10167100
H       -1.37706740      -2.10951057      -0.84807793
H       -2.60326471      -0.83843985      -0.81813314
H       -1.67545063      -1.20349817       0.63648835
H       -0.49143627      -0.12903899      -1.98508427
H        0.05625519       1.93786336      -0.82777227
H       -1.86362915       2.56517905       0.67999583
H       -0.60807169       1.91022413       1.71158016
H       -1.99497305       0.91736510       1.27394930
H        1.66971746       0.38572385       1.59578339
H        1.79156104      -1.37540871       1.48235330
H        0.23121142      -0.62358080       1.72484578
H        2.08782012      -0.32053177      -2.18128792
H        3.11217703       0.01827790      -0.67379778
H        1.37470246      -1.50948925      -0.79957788
21
Frame=5 idx=009784 GeodesicLength=0.6112634551376162 rxn_smarts="[C:1]([C@@:2]1([H:11])[C@:3]([C:4]([H:13])([H:14])[H:15])([H:12])[C:5]1([C:6]([H:16])([H:17])[H:18])[C:7]([H:19])([H:20])[H:21])([H:8])([H:9])[H:10]>>[C:1](/[C:2](=[C:3](\[C:4]([H:13])([H:14])[H:15])[H:12])[H:11])([H:8])([H:9])[H:10].[C:5]([C:6]([H:16])([H:17])[H:18])(=[C:7]([H:19])[H:20])[H:21]"
C       -1.62578709      -1.11997201      -0.45086829
C       -0.59800485      -0.10646985      -0.90400616
C       -0.56283834       1.20008997      -0.32586087
C       -1.29318278       1.65961204       0.89047773
C        1.00514170      -0.44585212      -0.29016949
C        1.19073092      -0.51825514       1.20699405
C        2.18209135      -0.29004329      -1.09448678
H       -1.37685626      -2.10745891      -0.84508555
H       -2.61681918      -0.85089433      -0.82261241
H       -1.68571267      -1.19694521       0.63511842
H       -0.51988990      -0.11399755      -1.99283234
H        0.02440277       1.94944845      -0.84530499
H       -1.89613545       2.54696742       0.67575716
H       -0.60497395       1.94800054       1.69812526
H       -1.96811780       0.90830869       1.30262413
H        1.70601229       0.36162611       1.59989264
H        1.76383606      -1.40531679       1.48751800
H        0.23407797      -0.59886810       1.71976638
H        2.11538682      -0.31904583      -2.17512189
H        3.12802184       0.01656495      -0.66176970
H        1.39861652      -1.51749905      -0.80815529
21
Frame=6 idx=009784 GeodesicLength=0.7332813115487055 rxn_smarts="[C:1]([C@@:2]1([H:11])[C@:3]([C:4]([H:13])([H:14])[H:15])([H:12])[C:5]1([C:6]([H:16])([H:17])[H:18])[C:7]([H:19])([H:20])[H:21])([H:8])([H:9])[H:10]>>[C:1](/[C:2](=[C:3](\[C:4]([H:13])([H:14])[H:15])[H:12])[H:11])([H:8])([H:9])[H:10].[C:5]([C:6]([H:16])([H:17])[H:18])(=[C:7]([H:19])[H:20])[H:21]"
C       -1.63662116      -1.11842366      -0.45215020
C       -0.61892549      -0.09849674      -0.91137065
C       -0.56585124       1.20177624      -0.32441930
C       -1.29515477       1.66327022       0.89306656
C        1.02139434      -0.44175415      -0.29016800
C        1.19947965      -0.52524708       1.20716566
C        2.20215992      -0.29718836      -1.08718176
H       -1.37638344      -2.10508631      -0.84145711
H       -2.63053023      -0.86380634      -0.82657394
H       -1.69600587      -1.18983828       0.63412981
H       -0.54972276      -0.09858218      -2.00066684
H       -0.00828046       1.96088282      -0.86241871
H       -1.92820488       2.52762405       0.67225341
H       -0.60332036       1.98554254       1.68391396
H       -1.94034508       0.90023676       1.33027331
H        1.74227361       0.33583706       1.60434720
H        1.73455146      -1.43447907       1.49196814
H        0.23789079      -0.57387812       1.71423164
H        2.14373900      -0.31757991      -2.16871935
H        3.14432734       0.01489883      -0.64951810
H        1.42352963      -1.52570832      -0.81670573
21
Frame=7 idx=009784 GeodesicLength=0.8552665797380727 rxn_smarts="[C:1]([C@@:2]1([H:11])[C@:3]([C:4]([H:13])([H:14])[H:15])([H:12])[C:5]1([C:6]([H:16])([H:17])[H:18])[C:7]([H:19])([H:20])[H:21])([H:8])([H:9])[H:10]>>[C:1](/[C:2](=[C:3](\[C:4]([H:13])([H:14])[H:15])[H:12])[H:11])([H:8])([H:9])[H:10].[C:5]([C:6]([H:16])([H:17])[H:18])(=[C:7]([H:19])[H:20])[H:21]"
C       -1.64760407      -1.11671587      -0.45305707
C       -0.64073871      -0.09009006      -0.91891608
C       -0.56856779       1.20361576      -0.32328793
C       -1.29709976       1.66692703       0.89535769
C        1.03826246      -0.43744047      -0.29026427
C        1.20824016      -0.53251682       1.20715487
C        2.22288351      -0.30444908      -1.07973841
H       -1.37560654      -2.10236495      -0.83719527
H       -2.64439637      -0.87724920      -0.82999756
H       -1.70634169      -1.18217420       0.63351781
H       -0.58105083      -0.08276537      -2.00858439
H       -0.04178058       1.97213232      -0.87906361
H       -1.95973897       2.50719123       0.66952151
H       -0.60310280       2.02282599       1.66895686
H       -1.91169932       0.89317863       1.35685251
H        1.77844141       0.30825997       1.60915381
H        1.70369703      -1.46279303       1.49564043
H        0.24267218      -0.54859435       1.70821752
H        2.17291403      -0.31615056      -2.16205665
H        3.16110338       0.01330952      -0.63701632
H        1.44951329      -1.53413647      -0.82519546
21
Frame=8 idx=009784 GeodesicLength=0.977222639588292 rxn_smarts="[C:1]([C@@:2]1([H:11])[C@:3]([C:4]([H:13])([H:14])[H:15])([H:12])[C:5]1([C:6]([H:16])([H:17])[H:18])[C:7]([H:19])([H:20])[H:21])([H:8])([H:9])[H:10]>>[C:1](/[C:2](=[C:3](\[C:4]([H:13])([H:14])[H:15])[H:12])[H:11])([H:8])([H:9])[H:10].[C:5]([C:6]([H:16])([H:17])[H:18])(=[C:7]([H:19])[H:20])[H:21]"
C       -1.65873684      -1.11486329      -0.45358153
C       -0.66352341      -0.08123924      -0.92665040
C       -0.57101935       1.20560104      -0.32252805
C       -1.29899320       1.67057653       0.89733724
C        1.05577384      -0.43289865      -0.29047548
C        1.21698321      -0.54007478       1.20693826
C        2.24429890      -0.31182174      -1.07214083
H       -1.37447497      -2.09926696      -0.83230050
H       -2.65841250      -0.89130077      -0.83283879
H       -1.71672141      -1.17395154       0.63328053
H       -0.61400860      -0.06653041      -2.01657948
H       -0.07606844       1.98317497      -0.89519960
H       -1.99064337       2.48571619       0.66762438
H       -0.60431191       2.05982034       1.65325611
H       -1.88221099       0.88715853       1.38231728
H        1.81442357       0.27878819       1.61433128
H        1.67122026      -1.49012449       1.49845869
H        0.24844766      -0.52300264       1.70168941
H        2.20297320      -0.31477299      -2.15510958
H        3.17836784       0.01180966      -0.62422667
H        1.47663652      -1.54279795      -0.83360228
21
Frame=9 idx=009784 GeodesicLength=1.0994188793592672 rxn_smarts="[C:1]([C@@:2]1([H:11])[C@:3]([C:4]([H:13])([H:14])[H:15])([H:12])[C:5]1([C:6]([H:16])([H:17])[H:18])[C:7]([H:19])([H:20])[H:21])([H:8])([H:9])[H:10]>>[C:1](/[C:2](=[C:3](\[C:4]([H:13])([H:14])[H:15])[H:12])[H:11])([H:8])([H:9])[H:10].[C:5]([C:6]([H:16])([H:17])[H:18])(=[C:7]([H:19])[H:20])[H:21]"
C       -1.67009542      -1.11290268      -0.45375174
C       -0.68752901      -0.07187853      -0.93453963
C       -0.57329786       1.20770947      -0.32217808
C       -1.30081510       1.67426056       0.89900346
C        1.07395074      -0.42807966      -0.29077051
C        1.22558819      -0.54789668       1.20648046
C        2.26645930      -0.31928268      -1.06428382
H       -1.37298108      -2.09579500      -0.82684028
H       -2.67261695      -0.90613295      -0.83515104
H       -1.72722985      -1.16521688       0.63339073
H       -0.64895932      -0.04978051      -2.02456360
H       -0.11106552       1.99388337      -0.91083385
H       -2.02071919       2.46354372       0.66653889
H       -0.60681256       2.09655481       1.63678909
H       -1.85201033       0.88207062       1.40661666
H        1.85015547       0.24718697       1.61980230
H        1.63767958      -1.51640646       1.50032290
H        0.25507329      -0.49714648       1.69457184
H        2.23403016      -0.31350529      -2.14778770
H        3.19612666       0.01049115      -0.61103060
H        1.50506880      -1.55167685      -0.84178549
21
Frame=10 idx=009784 GeodesicLength=1.2216022747581088 rxn_smarts="[C:1]([C@@:2]1([H:11])[C@:3]([C:4]([H:13])([H:14])[H:15])([H:12])[C:5]1([C:6]([H:16])([H:17])[H:18])[C:7]([H:19])([H:20])[H:21])([H:8])([H:9])[H:10]>>[C:1](/[C:2](=[C:3](\[C:4]([H:13])([H:14])[H:15])[H:12])[H:11])([H:8])([H:9])[H:10].[C:5]([C:6]([H:16])([H:17])[H:18])(=[C:7]([H:19])[H:20])[H:21]"
C       -1.68161315      -1.11084146      -0.45352069
C       -0.71271917      -0.06203927      -0.94260145
C       -0.57541843       1.20993307      -0.32234493
C       -1.30252138       1.67793401       0.90032525
C        1.09282959      -0.42296979      -0.29119661
C        1.23409387      -0.55599501       1.20575717
C        2.28939060      -0.32681107      -1.05620906
H       -1.37101618      -2.09188669      -0.82075471
H       -2.68694674      -0.92178017      -0.83680250
H       -1.73779513      -1.15593747       0.63388064
H       -0.68587036      -0.03256565      -2.03257054
H       -0.14675654       2.00431422      -0.92588359
H       -2.04999494       2.44043640       0.66634350
H       -0.61062241       2.13295585       1.61953984
H       -1.82096518       0.87804034       1.42976165
H        1.88550079       0.21346397       1.62562188
H        1.60236507      -1.54154253       1.50115209
H        0.26273202      -0.47094840       1.68687055
H        2.26610652      -0.31227337      -2.14010903
H        3.21441517       0.00929120      -0.59743371
H        1.53480597      -1.56077819      -0.84982576
21
Frame=11 idx=009784 GeodesicLength=1.3437661106595258 rxn_smarts="[C:1]([C@@:2]1([H:11])[C@:3]([C:4]([H:13])([H:14])[H:15])([H:12])[C:5]1([C:6]([H:16])([H:17])[H:18])[C:7]([H:19])([H:20])[H:21])([H:8])([H:9])[H:10]>>[C:1](/[C:2](=[C:3](\[C:4]([H:13])([H:14])[H:15])[H:12])[H:11])([H:8])([H:9])[H:10].[C:5]([C:6]([H:16])([H:17])[H:18])(=[C:7]([H:19])[H:20])[H:21]"
C       -1.69329863      -1.10870650      -0.45287282
C       -0.73920560      -0.05170909      -0.95081807
C       -0.57744379       1.21225273      -0.32309482
C       -1.30407251       1.68160407       0.90128938
C        1.11244078      -0.41752540      -0.29174837
C        1.24245492      -0.56436683       1.20473635
C        2.31313144      -0.33437018      -1.04787091
H       -1.36853381      -2.08751547      -0.81403724
H       -2.70139224      -0.93835859      -0.83775969
H       -1.74843335      -1.14612640       0.63476082
H       -0.72492681      -0.01486267      -2.04055707
H       -0.18305743       2.01442212      -0.94030861
H       -2.07838293       2.41644819       0.66702778
H       -0.61563572       2.16897976       1.60148377
H       -1.78909506       0.87506300       1.45173439
H        1.92034285       0.17753924       1.63175050
H        1.56520520      -1.56547364       1.50080694
H        0.27143778      -0.44438599       1.67855658
H        2.29927399      -0.31104895      -2.13202453
H        3.23325728       0.00821620      -0.58336320
H        1.56593363      -1.57007559      -0.85769116
21
Frame=12 idx=009784 GeodesicLength=1.465909801808014 rxn_smarts="[C:1]([C@@:2]1([H:11])[C@:3]([C:4]([H:13])([H:14])[H:15])([H:12])[C:5]1([C:6]([H:16])([H:17])[H:18])[C:7]([H:19])([H:20])[H:21])([H:8])([H:9])[H:10]>>[C:1](/[C:2](=[C:3](\[C:4]([H:13])([H:14])[H:15])[H:12])[H:11])([H:8])([H:9])[H:10].[C:5]([C:6]([H:16])([H:17])[H:18])(=[C:7]([H:19])[H:20])[H:21]"
C       -1.70516294      -1.10653685      -0.45179097
C       -0.76712175      -0.04088231      -0.95917151
C       -0.57945283       1.21463333      -0.32450680
C       -1.30541911       1.68527148       0.90188434
C        1.13281321      -0.41170604      -0.29243533
C        1.25061808      -0.57301305       1.20338050
C        2.33772440      -0.34191914      -1.03922528
H       -1.36547386      -2.08265473      -0.80667996
H       -2.71593446      -0.95600099      -0.83798129
H       -1.75916449      -1.13580424       0.63604027
H       -0.76632958       0.00334076      -2.04847752
H       -0.21987350       2.02416595      -0.95408358
H       -2.10575407       2.39169869       0.66863537
H       -0.62173735       2.20456203       1.58259440
H       -1.75641506       0.87313231       1.47250270
H        1.95451159       0.13934507       1.63814921
H        1.52612271      -1.58809862       1.49914617
H        0.28119711      -0.41746268       1.66958751
H        2.33362232      -0.30980587      -2.12348409
H        3.25267307       0.00728363      -0.56873673
H        1.59855653      -1.57954873      -0.86534741
21
Frame=13 idx=009784 GeodesicLength=1.5880327786633406 rxn_smarts="[C:1]([C@@:2]1([H:11])[C@:3]([C:4]([H:13])([H:14])[H:15])([H:12])[C:5]1([C:6]([H:16])([H:17])[H:18])[C:7]([H:19])([H:20])[H:21])([H:8])([H:9])[H:10]>>[C:1](/[C:2](=[C:3](\[C:4]([H:13])([H:14])[H:15])[H:12])[H:11])([H:8])([H:9])[H:10].[C:5]([C:6]([H:16])([H:17])[H:18])(=[C:7]([H:19])[H:20])[H:21]"
C       -1.71722118      -1.10437107      -0.45026293
C       -0.79661140      -0.02955892      -0.96764632
C       -0.58153436       1.21703255      -0.32666406
C       -1.30650742       1.68893586       0.90209739
C        1.15397794      -0.40547100      -0.29326352
C        1.25851688      -0.58192825       1.20164584
C        2.36321239      -0.34941453      -1.03022250
H       -1.36177867      -2.07726942      -0.79868409
H       -2.73055659      -0.97484794      -0.83742201
H       -1.77001519      -1.12499397       0.63772018
H       -0.81029827       0.02205474      -2.05628671
H       -0.25709731       2.03350790      -0.96720037
H       -2.13198005       2.36630789       0.67122872
H       -0.62879290       2.23962736       1.56284712
H       -1.72293202       0.87223944       1.49203042
H        1.98782274       0.09878761       1.64478532
H        1.48506969      -1.60927027       1.49603621
H        0.29201881      -0.39018132       1.65991008
H        2.36924187      -0.30851620      -2.11443210
H        3.27268631       0.00650730      -0.55346171
H        1.63277873      -1.58917777      -0.87275496
21
Frame=14 idx=009784 GeodesicLength=1.710132423319502 rxn_smarts="[C:1]([C@@:2]1([H:11])[C@:3]([C:4]([H:13])([H:14])[H:15])([H:12])[C:5]1([C:6]([H:16])([H:17])[H:18])[C:7]([H:19])([H:20])[H:21])([H:8])([H:9])[H:10]>>[C:1](/[C:2](=[C:3](\[C:4]([H:13])([H:14])[H:15])[H:12])[H:11])([H:8])([H:9])[H:10].[C:5]([C:6]([H:16])([H:17])[H:18])(=[C:7]([H:19])[H:20])[H:21]"
C       -1.72949360      -1.10225335      -0.44827914
C       -0.82783614      -0.01774752      -0.97622222
C       -0.58378166       1.21940056      -0.32965051
C       -1.30727464       1.69259286       0.90191754
C        1.17596737      -0.39877516      -0.29424805
C        1.26608066      -0.59108817       1.19947667
C        2.38964611      -0.35681076      -1.02080595
H       -1.35739263      -2.07132478      -0.79006864
H       -2.74523379      -0.99504372      -0.83602913
H       -1.78101376      -1.11372770       0.63979879
H       -0.85711282       0.04129682      -2.06391158
H       -0.29460316       2.04240547      -0.97966287
H       -2.15691243       2.34043640       0.67488679
H       -0.63666533       2.27408970       1.54221147
H       -1.68866258       0.87237240       1.51026706
H        2.02005015       0.05579986       1.65160739
H        1.44204842      -1.62884708       1.49134014
H        0.30390080      -0.36257020       1.64946751
H        2.40624915      -0.30715358      -2.10480144
H        3.29332112       0.00588653      -0.53742655
H        1.66871877      -1.59893859      -0.87986728
21
Frame=15 idx=009784 GeodesicLength=1.8322007293620084 rxn_smarts="[C:1]([C@@:2]1([H:11])[C@:3]([C:4]([H:13])([H:14])[H:15])([H:12])[C:5]1([C:6]([H:16])([H:17])[H:18])[C:7]([H:19])([H:20])[H:21])([H:8])([H:9])[H:10]>>[C:1](/[C:2](=[C:3](\[C:4]([H:13])([H:14])[H:15])[H:12])[H:11])([H:8])([H:9])[H:10].[C:5]([C:6]([H:16])([H:17])[H:18])(=[C:7]([H:19])[H:20])[H:21]"
C       -1.74200545      -1.10023350      -0.44583054
C       -0.86097074      -0.00545871      -0.98487303
C       -0.58630034       1.22167049      -0.33355447
C       -1.30765054       1.69623838       0.90133067
C        1.19881343      -0.39157471      -0.29540029
C        1.27323024      -0.60047008       1.19681107
C        2.41707295      -0.36405812      -1.01091282
H       -1.35226767      -2.06478183      -0.78085840
H       -2.75993214      -1.01674266      -0.83375845
H       -1.79220231      -1.10204569       0.64227171
H       -0.90706651       0.06108386      -2.07126959
H       -0.33226420       2.05082036      -0.99149321
H       -2.18038254       2.31427190       0.67969296
H       -0.64519703       2.30785109       1.52067615
H       -1.65361636       0.87351146       1.52715309
H        2.05093821       0.01031038       1.65855567
H        1.39710096      -1.64665708       1.48492191
H        0.31683935      -0.33466426       1.63819193
H        2.44475906      -0.30568560      -2.09451652
H        3.31460173       0.00542110      -0.52050849
H        1.70649990      -1.60880679      -0.88662935
21
Frame=16 idx=009784 GeodesicLength=1.954243154763116 rxn_smarts="[C:1]([C@@:2]1([H:11])[C@:3]([C:4]([H:13])([H:14])[H:15])([H:12])[C:5]1([C:6]([H:16])([H:17])[H:18])[C:7]([H:19])([H:20])[H:21])([H:8])([H:9])[H:10]>>[C:1](/[C:2](=[C:3](\[C:4]([H:13])([H:14])[H:15])[H:12])[H:11])([H:8])([H:9])[H:10].[C:5]([C:6]([H:16])([H:17])[H:18])(=[C:7]([H:19])[H:20])[H:21]"
C       -1.75479188      -1.09836457      -0.44290979
C       -0.89621663       0.00729848      -0.99355851
C       -0.58920215       1.22376301      -0.33846661
C       -1.30755405       1.69987098       0.90031816
C        1.22255259      -0.38382028      -0.29673408
C        1.27987852      -0.61003647       1.19357686
C        2.44554726      -0.37110219      -1.00047273
H       -1.34635686      -2.05759841      -0.77109047
H       -2.77462624      -1.04010743      -0.83056331
H       -1.80363291      -1.08999382       0.64513325
H       -0.96049132       0.08144342      -2.07825131
H       -0.36994962       2.05871216      -1.00273910
H       -2.20221476       2.28803364       0.68573136
H       -0.65420823       2.34080249       1.49822793
H       -1.61781512       0.87563135       1.54261546
H        2.08020900      -0.03776402       1.66556560
H        1.35033625      -1.66251593       1.47664355
H        0.33081409      -0.30652666       1.62601330
H        2.48490574      -0.30407580      -2.08349318
H        3.33655532       0.00510257      -0.50256879
H        1.74626099      -1.61875254      -0.89297760
