10
Frame=0 idx=007203 GeodesicLength=0.0 rxn_smarts="[N:1](=[C:2](\[O:3][C:4](=[O:5])[H:9])[C:6](=[O:7])[H:10])\[H:8]>>[N:1](=[C:2](\[O:3][C:4](=[O:5])[H:9])[O+:7]=[C-:6][H:10])\[H:8]"
N       -0.66975564       1.28567512      -0.83207912
C       -0.52346712       0.10571564      -0.40425817
O        0.57560128      -0.72783939      -0.48386153
C        1.71971691      -0.33780542       0.12843759
O        1.88083202       0.67271244       0.73003458
C       -1.51955692      -0.44171108       0.84254448
O       -1.71425401      -0.74171933      -0.39539351
H        0.21602519       1.74318947      -1.00603749
H        2.47363901      -1.11738030      -0.03430135
H       -2.43878074      -0.44083714       1.45491452
10
Frame=1 idx=007203 GeodesicLength=0.06929129346521257 rxn_smarts="[N:1](=[C:2](\[O:3][C:4](=[O:5])[H:9])[C:6](=[O:7])[H:10])\[H:8]>>[N:1](=[C:2](\[O:3][C:4](=[O:5])[H:9])[O+:7]=[C-:6][H:10])\[H:8]"
N       -0.68394562       1.28588671      -0.84119986
C       -0.51914683       0.10981687      -0.41283190
O        0.58990922      -0.70609602      -0.52449468
C        1.71674400      -0.34868542       0.13787343
O        1.86839452       0.64337116       0.77163692
C       -1.50996598      -0.43512940       0.84978371
O       -1.69726902      -0.78050972      -0.37475103
H        0.19542871       1.75690108      -1.01367306
H        2.47582455      -1.11903183      -0.04355817
H       -2.43597355      -0.40652342       1.45121462
10
Frame=2 idx=007203 GeodesicLength=0.13895804886126967 rxn_smarts="[N:1](=[C:2](\[O:3][C:4](=[O:5])[H:9])[C:6](=[O:7])[H:10])\[H:8]>>[N:1](=[C:2](\[O:3][C:4](=[O:5])[H:9])[O+:7]=[C-:6][H:10])\[H:8]"
N       -0.69870380       1.28578677      -0.85150979
C       -0.51451589       0.11468218      -0.42080115
O        0.60458527      -0.68209462      -0.56273273
C        1.71396409      -0.35992728       0.14580610
O        1.85579268       0.61114023       0.81329906
C       -1.50084332      -0.42632067       0.85762675
O       -1.67686718      -0.81996916      -0.35125799
H        0.17361549       1.77125318      -1.02176843
H        2.47773628      -1.12105768      -0.05372852
H       -2.43476362      -0.37349295       1.44506670
10
Frame=3 idx=007203 GeodesicLength=0.20880903698455433 rxn_smarts="[N:1](=[C:2](\[O:3][C:4](=[O:5])[H:9])[C:6](=[O:7])[H:10])\[H:8]>>[N:1](=[C:2](\[O:3][C:4](=[O:5])[H:9])[O+:7]=[C-:6][H:10])\[H:8]"
N       -0.71414655       1.28603308      -0.86186471
C       -0.50956349       0.12071181      -0.42793718
O        0.61961577      -0.65548507      -0.59885397
C        1.71165169      -0.37104649       0.15184089
O        1.84375202       0.57672301       0.85379906
C       -1.49206842      -0.41602206       0.86591994
O       -1.65291341      -0.85939601      -0.32507625
H        0.15036648       1.78623812      -1.03136081
H        2.47840831      -1.12495807      -0.06290681
H       -2.43510239      -0.34279831       1.43643983
10
Frame=4 idx=007203 GeodesicLength=0.27855642284455856 rxn_smarts="[N:1](=[C:2](\[O:3][C:4](=[O:5])[H:9])[C:6](=[O:7])[H:10])\[H:8]>>[N:1](=[C:2](\[O:3][C:4](=[O:5])[H:9])[O+:7]=[C-:6][H:10])\[H:8]"
N       -0.73002510       1.28705562      -0.87129421
C       -0.50426722       0.12815057      -0.43386022
O        0.63485062      -0.62627978      -0.63245137
C        1.70970069      -0.38207575       0.15659500
O        1.83290284       0.54078694       0.89240060
C       -1.48391647      -0.40474903       0.87452341
O       -1.62556360      -0.89797771      -0.29646243
H        0.12599228       1.80136990      -1.04364607
H        2.47759419      -1.13095129      -0.07112291
H       -2.43726824      -0.31532947       1.42531820
10
Frame=5 idx=007203 GeodesicLength=0.349428538032831 rxn_smarts="[N:1](=[C:2](\[O:3][C:4](=[O:5])[H:9])[C:6](=[O:7])[H:10])\[H:8]>>[N:1](=[C:2](\[O:3][C:4](=[O:5])[H:9])[O+:7]=[C-:6][H:10])\[H:8]"
N       -0.74614879       1.28652328      -0.88353641
C       -0.49871983       0.13570154      -0.43957271
O        0.65026593      -0.59618754      -0.66314297
C        1.70806167      -0.39363099       0.16042359
O        1.81899217       0.49851495       0.93498675
C       -1.47654554      -0.39027210       0.88388704
O       -1.59447407      -0.93656911      -0.26326813
H        0.10079234       1.81621922      -1.05636004
H        2.47934237      -1.13334301      -0.08501496
H       -2.44156625      -0.28695623       1.41159785
10
Frame=6 idx=007203 GeodesicLength=0.4194103405495744 rxn_smarts="[N:1](=[C:2](\[O:3][C:4](=[O:5])[H:9])[C:6](=[O:7])[H:10])\[H:8]>>[N:1](=[C:2](\[O:3][C:4](=[O:5])[H:9])[O+:7]=[C-:6][H:10])\[H:8]"
N       -0.76214678       1.28760740      -0.89283040
C       -0.49281937       0.14507848      -0.44319215
O        0.66552188      -0.56384012      -0.69039163
C        1.70626310      -0.40592275       0.16453865
O        1.80825705       0.45661501       0.97298290
C       -1.47064266      -0.37597273       0.89316858
O       -1.56077743      -0.97261855      -0.22841384
H        0.07519950       1.83039720      -1.07341226
H        2.47945662      -1.13779586      -0.09763540
H       -2.44831190      -0.26354810       1.39518555
10
Frame=7 idx=007203 GeodesicLength=0.49134503379035976 rxn_smarts="[N:1](=[C:2](\[O:3][C:4](=[O:5])[H:9])[C:6](=[O:7])[H:10])\[H:8]>>[N:1](=[C:2](\[O:3][C:4](=[O:5])[H:9])[O+:7]=[C-:6][H:10])\[H:8]"
N       -0.77868811       1.28676627      -0.90608468
C       -0.48665894       0.15463924      -0.44726351
O        0.68100796      -0.53062198      -0.71551275
C        1.70536375      -0.41758303       0.16628777
O        1.79187736       0.40523114       1.01663043
C       -1.46476079      -0.35785408       0.90324418
O       -1.52261446      -1.00781444      -0.18762503
H        0.04818060       1.84447789      -1.09100135
H        2.48225706      -1.13815408      -0.11515599
H       -2.45596445      -0.23908691       1.37648092
10
Frame=8 idx=007203 GeodesicLength=0.563635955879174 rxn_smarts="[N:1](=[C:2](\[O:3][C:4](=[O:5])[H:9])[C:6](=[O:7])[H:10])\[H:8]>>[N:1](=[C:2](\[O:3][C:4](=[O:5])[H:9])[O+:7]=[C-:6][H:10])\[H:8]"
N       -0.79527201       1.28628295      -0.91877822
C       -0.48017378       0.16557482      -0.45003832
O        0.69646237      -0.49590265      -0.73760789
C        1.70489708      -0.42931185       0.16746528
O        1.77547024       0.35033067       1.05883530
C       -1.46010190      -0.33863028       0.91344855
O       -1.48149387      -1.04010642      -0.14354341
H        0.02053724       1.85792266      -1.11182478
H        2.48518525      -1.13822358      -0.13332874
H       -2.46551060      -0.21793633       1.35537223
10
Frame=9 idx=007203 GeodesicLength=0.6351701711880288 rxn_smarts="[N:1](=[C:2](\[O:3][C:4](=[O:5])[H:9])[C:6](=[O:7])[H:10])\[H:8]>>[N:1](=[C:2](\[O:3][C:4](=[O:5])[H:9])[O+:7]=[C-:6][H:10])\[H:8]"
N       -0.81172431       1.28733893      -0.92890148
C       -0.47323803       0.17855346      -0.45088077
O        0.71184286      -0.45913388      -0.75638209
C        1.70449338      -0.44111330       0.16870287
O        1.76190804       0.29601361       1.09629057
C       -1.45674441      -0.32010303       0.92324638
O       -1.43826910      -1.06853935      -0.09813764
H       -0.00758777       1.87067134      -1.13683147
H        2.48573354      -1.14132964      -0.14927076
H       -2.47641419      -0.20235814       1.33216439
10
Frame=10 idx=007203 GeodesicLength=0.7084610354007362 rxn_smarts="[N:1](=[C:2](\[O:3][C:4](=[O:5])[H:9])[C:6](=[O:7])[H:10])\[H:8]>>[N:1](=[C:2](\[O:3][C:4](=[O:5])[H:9])[O+:7]=[C-:6][H:10])\[H:8]"
N       -0.82870740       1.28808773      -0.94034694
C       -0.46584539       0.19298334      -0.45138611
O        0.72760122      -0.42048540      -0.77296568
C        1.70557657      -0.45062205       0.16780383
O        1.74480429       0.23465958       1.13504739
C       -1.45341599      -0.29974433       0.93327637
O       -1.39117562      -1.09360291      -0.04842086
H       -0.03730527       1.88302447      -1.16484300
H        2.48575148      -1.14474259      -0.16550253
H       -2.48728388      -0.18955783       1.30733754
10
Frame=11 idx=007203 GeodesicLength=0.7808647728870163 rxn_smarts="[N:1](=[C:2](\[O:3][C:4](=[O:5])[H:9])[C:6](=[O:7])[H:10])\[H:8]>>[N:1](=[C:2](\[O:3][C:4](=[O:5])[H:9])[O+:7]=[C-:6][H:10])\[H:8]"
N       -0.84473307       1.29006337      -0.94896748
C       -0.45804041       0.20913568      -0.44937643
O        0.74294803      -0.38121511      -0.78528294
C        1.70610027      -0.46168486       0.16831473
O        1.73071893       0.17409287       1.16913639
C       -1.45235710      -0.28043746       0.94287995
O       -1.34398484      -1.11412022       0.00202555
H       -0.06640119       1.89332767      -1.19685682
H        2.48563764      -1.14786092      -0.18228218
H       -2.49988827      -0.18130102       1.28040922
10
Frame=12 idx=007203 GeodesicLength=0.8566306983117218 rxn_smarts="[N:1](=[C:2](\[O:3][C:4](=[O:5])[H:9])[C:6](=[O:7])[H:10])\[H:8]>>[N:1](=[C:2](\[O:3][C:4](=[O:5])[H:9])[O+:7]=[C-:6][H:10])\[H:8]"
N       -0.86162484       1.29116834      -0.96008964
C       -0.44959391       0.22701954      -0.44738007
O        0.75908119      -0.33950712      -0.79568352
C        1.70892698      -0.46858697       0.16640216
O        1.71064175       0.10332421       1.20509624
C       -1.45059036      -0.25882997       0.95279748
O       -1.29222102      -1.13043665       0.05762079
H       -0.09791921       1.90311162      -1.23182469
H        2.48438685      -1.15149263      -0.19905795
H       -2.51108743      -0.17577038       1.25211919
10
Frame=13 idx=007203 GeodesicLength=0.9343285553312862 rxn_smarts="[N:1](=[C:2](\[O:3][C:4](=[O:5])[H:9])[C:6](=[O:7])[H:10])\[H:8]>>[N:1](=[C:2](\[O:3][C:4](=[O:5])[H:9])[O+:7]=[C-:6][H:10])\[H:8]"
N       -0.87820688       1.29216334      -0.97122731
C       -0.44055375       0.24670738      -0.44388887
O        0.77546711      -0.29658315      -0.80267086
C        1.71261243      -0.47427551       0.16469241
O        1.68873153       0.02717120       1.23875453
C       -1.44991011      -0.23662987       0.96265057
O       -1.23890789      -1.14174454       0.11608768
H       -0.13005605       1.91100963      -1.27002226
H        2.48308566      -1.15408801      -0.21662808
H       -2.52226204      -0.17373048       1.22225219
10
Frame=14 idx=007203 GeodesicLength=1.0135057493744235 rxn_smarts="[N:1](=[C:2](\[O:3][C:4](=[O:5])[H:9])[C:6](=[O:7])[H:10])\[H:8]>>[N:1](=[C:2](\[O:3][C:4](=[O:5])[H:9])[O+:7]=[C-:6][H:10])\[H:8]"
N       -0.89404893       1.29350021      -0.98133642
C       -0.43084381       0.26844251      -0.43832554
O        0.79206068      -0.25251439      -0.80588557
C        1.71661676      -0.47975904       0.16390743
O        1.66689782      -0.05137026       1.26818512
C       -1.45084529      -0.21464286       0.97216854
O       -1.18509937      -1.14790275       0.17641087
H       -0.16233356       1.91654112      -1.31117815
H        2.48113594      -1.15646438      -0.23456695
H       -2.53354025      -0.17583014       1.19062068
10
Frame=15 idx=007203 GeodesicLength=1.0927125286143462 rxn_smarts="[N:1](=[C:2](\[O:3][C:4](=[O:5])[H:9])[C:6](=[O:7])[H:10])\[H:8]>>[N:1](=[C:2](\[O:3][C:4](=[O:5])[H:9])[O+:7]=[C-:6][H:10])\[H:8]"
N       -0.90811335       1.29650134      -0.98810206
C       -0.42045294       0.29259249      -0.42949586
O        0.80826592      -0.20820480      -0.80453281
C        1.71938768      -0.48771967       0.16502591
O        1.64725027      -0.12972179       1.29273394
C       -1.45410929      -0.19436543       0.98128472
O       -1.13398226      -1.14901174       0.23604537
H       -0.19355677       1.91771781      -1.35711128
H        2.48037701      -1.15608331      -0.25375963
H       -2.54506627      -0.18170490       1.15791171
10
Frame=16 idx=007203 GeodesicLength=1.1759990364233324 rxn_smarts="[N:1](=[C:2](\[O:3][C:4](=[O:5])[H:9])[C:6](=[O:7])[H:10])\[H:8]>>[N:1](=[C:2](\[O:3][C:4](=[O:5])[H:9])[O+:7]=[C-:6][H:10])\[H:8]"
N       -0.92163082       1.29889141      -0.99561592
C       -0.40926467       0.31906515      -0.41884034
O        0.82495395      -0.16261136      -0.79970814
C        1.72272680      -0.49479731       0.16646804
O        1.62434735      -0.21501328       1.31404391
C       -1.45836284      -0.17322372       0.99039623
O       -1.08238237      -1.14482446       0.29879493
H       -0.22548635       1.91566221      -1.40542319
H        2.48052801      -1.15286060      -0.27395997
H       -2.55542905      -0.19028804       1.12384446
