14
Frame=0 idx=008255 GeodesicLength=0.0 rxn_smarts="[C:1]([C@:2]12[N:3]([H:11])[C@@:4]1([H:12])[C:5]([H:13])([H:14])[C:6]2=[O:7])([H:8])([H:9])[H:10]>>[C:1]([N+:3]1([H:11])[C:2]2=[C:6]([O-:7])[C:5]([H:13])([H:14])[C@@:4]21[H:12])([H:8])([H:9])[H:10]"
C       -1.93121770      -0.36149102       0.36937902
C       -0.39421058       0.75023552      -0.22449468
N       -0.19849645      -0.68072989       0.66563541
C        0.67711169       0.44113993       0.78751648
C        1.77113722       0.32632916      -0.26745576
C        0.62266083       0.36308778      -1.29642924
O        0.56742962       0.20336553      -2.47649341
H       -2.40995872      -0.10459951      -0.57033998
H       -2.26864514       0.28949337       1.16452908
H       -2.15867563      -1.40456101       0.60743764
H        0.13814726      -1.42178677       0.05996867
H        0.78428074       0.88268960       1.77046239
H        2.44887075      -0.52872383      -0.22666819
H        2.35156614       1.24555117      -0.36304748
14
Frame=1 idx=008255 GeodesicLength=0.05423917800739685 rxn_smarts="[C:1]([C@:2]12[N:3]([H:11])[C@@:4]1([H:12])[C:5]([H:13])([H:14])[C:6]2=[O:7])([H:8])([H:9])[H:10]>>[C:1]([N+:3]1([H:11])[C:2]2=[C:6]([O-:7])[C:5]([H:13])([H:14])[C@@:4]21[H:12])([H:8])([H:9])[H:10]"
C       -1.93321819      -0.35653611       0.37520626
C       -0.39636263       0.72475305      -0.24314886
N       -0.19574959      -0.68147236       0.65885688
C        0.67366885       0.44620745       0.77989107
C        1.77549096       0.32987162      -0.26639786
C        0.63410554       0.34933302      -1.30411692
O        0.58961238       0.18895693      -2.48456077
H       -2.44303698      -0.04800998      -0.53248832
H       -2.25837196       0.25497931       1.20686315
H       -2.17022187      -1.40785850       0.56076043
H        0.15094109      -1.43157281       0.07074081
H        0.76400071       0.90118456       1.75828882
H        2.45751015      -0.52114374      -0.21336865
H        2.35163156       1.25130755      -0.36652604
14
Frame=2 idx=008255 GeodesicLength=0.1080333438137911 rxn_smarts="[C:1]([C@:2]12[N:3]([H:11])[C@@:4]1([H:12])[C:5]([H:13])([H:14])[C:6]2=[O:7])([H:8])([H:9])[H:10]>>[C:1]([N+:3]1([H:11])[C:2]2=[C:6]([O-:7])[C:5]([H:13])([H:14])[C@@:4]21[H:12])([H:8])([H:9])[H:10]"
C       -1.93512947      -0.35137028       0.38084729
C       -0.39848358       0.69859247      -0.26180771
N       -0.19299931      -0.68243691       0.65246835
C        0.66977622       0.45145512       0.77200244
C        1.77942019       0.33355405      -0.26544037
C        0.64531576       0.33492698      -1.31168928
O        0.61146030       0.17361308      -2.49236567
H       -2.47311650       0.01025762      -0.49069409
H       -2.24784622       0.21692839       1.24803827
H       -2.18249814      -1.40833679       0.51105517
H        0.16401549      -1.44139464       0.08267715
H        0.74318479       0.92006370       1.74526389
H        2.46583520      -0.51308740      -0.19982830
H        2.35106527       1.25723460      -0.37052714
14
Frame=3 idx=008255 GeodesicLength=0.16137006586262775 rxn_smarts="[C:1]([C@:2]12[N:3]([H:11])[C@@:4]1([H:12])[C:5]([H:13])([H:14])[C:6]2=[O:7])([H:8])([H:9])[H:10]>>[C:1]([N+:3]1([H:11])[C:2]2=[C:6]([O-:7])[C:5]([H:13])([H:14])[C@@:4]21[H:12])([H:8])([H:9])[H:10]"
C       -1.93710608      -0.34599262       0.38647758
C       -0.40064413       0.67178556      -0.28041237
N       -0.19025150      -0.68365819       0.64658912
C        0.66546554       0.45688012       0.76385874
C        1.78303896       0.33738881      -0.26464089
C        0.65629786       0.31994265      -1.31916385
O        0.63296238       0.15751176      -2.49997194
H       -2.49991269       0.06964328      -0.44492585
H       -2.23745034       0.17532923       1.28773329
H       -2.19571833      -1.40564569       0.45843125
H        0.17735738      -1.45125777       0.09589095
H        0.72190960       0.93928911       1.73138899
H        2.47401813      -0.50457881      -0.18609341
H        2.35003323       1.26336255      -0.37516160
14
Frame=4 idx=008255 GeodesicLength=0.21400597571850435 rxn_smarts="[C:1]([C@:2]12[N:3]([H:11])[C@@:4]1([H:12])[C:5]([H:13])([H:14])[C:6]2=[O:7])([H:8])([H:9])[H:10]>>[C:1]([N+:3]1([H:11])[C:2]2=[C:6]([O-:7])[C:5]([H:13])([H:14])[C@@:4]21[H:12])([H:8])([H:9])[H:10]"
C       -1.93869810      -0.34042272       0.39192581
C       -0.40272070       0.64433725      -0.29858213
N       -0.18745158      -0.68503539       0.64106900
C        0.66073163       0.46236324       0.75558413
C        1.78591776       0.34130711      -0.26393548
C        0.66672888       0.30447574      -1.32630991
O        0.65357983       0.14100846      -2.50713617
H       -2.52192340       0.12877583      -0.39617848
H       -2.22717929       0.13082671       1.32489956
H       -2.20956626      -1.39907195       0.40434647
H        0.19076060      -1.46089520       0.10998429
H        0.70038160       0.95848399       1.71691718
H        2.48138576      -0.49562589      -0.17249047
H        2.34805329       1.26947282      -0.38009381
14
Frame=5 idx=008255 GeodesicLength=0.2658289796933986 rxn_smarts="[C:1]([C@:2]12[N:3]([H:11])[C@@:4]1([H:12])[C:5]([H:13])([H:14])[C:6]2=[O:7])([H:8])([H:9])[H:10]>>[C:1]([N+:3]1([H:11])[C:2]2=[C:6]([O-:7])[C:5]([H:13])([H:14])[C@@:4]21[H:12])([H:8])([H:9])[H:10]"
C       -1.94029542      -0.33476350       0.39741285
C       -0.40478772       0.61641801      -0.31630480
N       -0.18465682      -0.68670036       0.63611839
C        0.65567975       0.46787023       0.74717874
C        1.78842799       0.34534997      -0.26344506
C        0.67678258       0.28879799      -1.33322975
O        0.67348678       0.12446220      -2.51401990
H       -2.53954539       0.18715207      -0.34469875
H       -2.21776142       0.08361277       1.35927885
H       -2.22435618      -1.38867593       0.34934640
H        0.20424683      -1.47043569       0.12518973
H        0.67869265       0.97755675       1.70184449
H        2.48842286      -0.48634454      -0.15908674
H        2.34566352       1.27570004      -0.38558447
14
Frame=6 idx=008255 GeodesicLength=0.3171517636896727 rxn_smarts="[C:1]([C@:2]12[N:3]([H:11])[C@@:4]1([H:12])[C:5]([H:13])([H:14])[C:6]2=[O:7])([H:8])([H:9])[H:10]>>[C:1]([N+:3]1([H:11])[C:2]2=[C:6]([O-:7])[C:5]([H:13])([H:14])[C@@:4]21[H:12])([H:8])([H:9])[H:10]"
C       -1.94183168      -0.32907282       0.40287680
C       -0.40683851       0.58795065      -0.33351885
N       -0.18182367      -0.68864502       0.63164400
C        0.65036165       0.47338722       0.73861884
C        1.79053559       0.34956335      -0.26312814
C        0.68637608       0.27284751      -1.33982855
O        0.69255905       0.10771932      -2.52048152
H       -2.55253452       0.24467152      -0.29064619
H       -2.20922107       0.03361506       1.39062431
H       -2.24017847      -1.37424975       0.29374012
H        0.21777388      -1.47980986       0.14137637
H        0.65692857       0.99652886       1.68611178
H        2.49510923      -0.47659378      -0.14583994
H        2.34278388       1.28208775      -0.39154901
14
Frame=7 idx=008255 GeodesicLength=0.36799711712986344 rxn_smarts="[C:1]([C@:2]12[N:3]([H:11])[C@@:4]1([H:12])[C:5]([H:13])([H:14])[C:6]2=[O:7])([H:8])([H:9])[H:10]>>[C:1]([N+:3]1([H:11])[C:2]2=[C:6]([O-:7])[C:5]([H:13])([H:14])[C@@:4]21[H:12])([H:8])([H:9])[H:10]"
C       -1.94305546      -0.32338630       0.40835638
C       -0.40881795       0.55897516      -0.35007253
N       -0.17891802      -0.69082735       0.62767238
C        0.64466006       0.47883421       0.73004261
C        1.79203695       0.35388280      -0.26299585
C        0.69547768       0.25670390      -1.34614369
O        0.71076076       0.09086521      -2.52664149
H       -2.56054179       0.30065693      -0.23436619
H       -2.20151005      -0.01857252       1.41854352
H       -2.25670835      -1.35554669       0.23802323
H        0.23139861      -1.48888880       0.15840493
H        0.63490079       1.01524115       1.66998970
H        2.50118258      -0.46643185      -0.13290786
H        2.33913418       1.28849415      -0.39790513
14
Frame=8 idx=008255 GeodesicLength=0.41847836276529643 rxn_smarts="[C:1]([C@:2]12[N:3]([H:11])[C@@:4]1([H:12])[C:5]([H:13])([H:14])[C:6]2=[O:7])([H:8])([H:9])[H:10]>>[C:1]([N+:3]1([H:11])[C:2]2=[C:6]([O-:7])[C:5]([H:13])([H:14])[C@@:4]21[H:12])([H:8])([H:9])[H:10]"
C       -1.94411824      -0.31779328       0.41380002
C       -0.41078877       0.52956692      -0.36593481
N       -0.17589190      -0.69336224       0.62417759
C        0.63867922       0.48417557       0.72143894
C        1.79310304       0.35836237      -0.26305315
C        0.70409241       0.24046580      -1.35215211
O        0.72808197       0.07394757      -2.53245836
H       -2.56374415       0.35497215      -0.17615061
H       -2.19490629      -0.07275934       1.44278852
H       -2.27422531      -1.33266840       0.18281252
H        0.24520585      -1.49780476       0.17623095
H        0.61269803       1.03368286       1.65343622
H        2.50694455      -0.45586323      -0.12027334
H        2.33486960       1.29507801      -0.40466237
14
Frame=9 idx=008255 GeodesicLength=0.4685545600108235 rxn_smarts="[C:1]([C@:2]12[N:3]([H:11])[C@@:4]1([H:12])[C:5]([H:13])([H:14])[C:6]2=[O:7])([H:8])([H:9])[H:10]>>[C:1]([N+:3]1([H:11])[C:2]2=[C:6]([O-:7])[C:5]([H:13])([H:14])[C@@:4]21[H:12])([H:8])([H:9])[H:10]"
C       -1.94501045      -0.31242875       0.41911914
C       -0.41267239       0.49980241      -0.38091610
N       -0.17276550      -0.69623259       0.62116866
C        0.63252967       0.48929048       0.71289420
C        1.79376128       0.36298150      -0.26330451
C        0.71218840       0.22433085      -1.35778751
O        0.74436561       0.05745528      -2.53790907
H       -2.56217975       0.40667129      -0.11698532
H       -2.18963935      -0.12788778       1.46290130
H       -2.29266102      -1.30591594       0.12930393
H        0.25910054      -1.50641929       0.19473611
H        0.59054622       1.05151834       1.63664556
H        2.51232865      -0.44492241      -0.10814266
H        2.33010807       1.30175661      -0.41172373
14
Frame=10 idx=008255 GeodesicLength=0.518363500094088 rxn_smarts="[C:1]([C@:2]12[N:3]([H:11])[C@@:4]1([H:12])[C:5]([H:13])([H:14])[C:6]2=[O:7])([H:8])([H:9])[H:10]>>[C:1]([N+:3]1([H:11])[C:2]2=[C:6]([O-:7])[C:5]([H:13])([H:14])[C@@:4]21[H:12])([H:8])([H:9])[H:10]"
C       -1.94564886      -0.30738656       0.42416048
C       -0.41439814       0.46972615      -0.39485670
N       -0.16954867      -0.69938140       0.61856861
C        0.62632200       0.49411510       0.70439889
C        1.79398151       0.36772985      -0.26370876
C        0.71967770       0.20840490      -1.36286321
O        0.75939603       0.04162059      -2.54271713
H       -2.55593584       0.45516073      -0.05754306
H       -2.18565297      -0.18318849       1.47855341
H       -2.31192491      -1.27564643       0.07818100
H        0.27296127      -1.51458024       0.21379935
H        0.56868299       1.06856980       1.61958812
H        2.51719167      -0.43359920      -0.09661052
H        2.32489621       1.30845519      -0.41895048
14
Frame=11 idx=008255 GeodesicLength=0.5677270660206574 rxn_smarts="[C:1]([C@:2]12[N:3]([H:11])[C@@:4]1([H:12])[C:5]([H:13])([H:14])[C:6]2=[O:7])([H:8])([H:9])[H:10]>>[C:1]([N+:3]1([H:11])[C:2]2=[C:6]([O-:7])[C:5]([H:13])([H:14])[C@@:4]21[H:12])([H:8])([H:9])[H:10]"
C       -1.94617275      -0.30273641       0.42896826
C       -0.41592203       0.43947623      -0.40783945
N       -0.16629959      -0.70291244       0.61653462
C        0.62002320       0.49870877       0.69613650
C        1.79389820       0.37262762      -0.26433648
C        0.72676578       0.19273062      -1.36771004
O        0.77348979       0.02637006      -2.54745103
H       -2.54545303       0.50053899       0.00215194
H       -2.18322150      -0.23836547       1.49016359
H       -2.33197071      -1.24222450       0.02941068
H        0.28684446      -1.52252433       0.23347900
H        0.54692277       1.08499742       1.60266998
H        2.52170919      -0.42203197      -0.08571164
H        2.31938621       1.31534540      -0.42646593
14
Frame=12 idx=008255 GeodesicLength=0.6171724225703682 rxn_smarts="[C:1]([C@:2]12[N:3]([H:11])[C@@:4]1([H:12])[C:5]([H:13])([H:14])[C:6]2=[O:7])([H:8])([H:9])[H:10]>>[C:1]([N+:3]1([H:11])[C:2]2=[C:6]([O-:7])[C:5]([H:13])([H:14])[C@@:4]21[H:12])([H:8])([H:9])[H:10]"
C       -1.94638924      -0.29835114       0.43329995
C       -0.41739718       0.40899389      -0.41977159
N       -0.16274118      -0.70668082       0.61487479
C        0.61365932       0.50290358       0.68793239
C        1.79336478       0.37755578      -0.26505591
C        0.73316324       0.17728470      -1.37193773
O        0.78622816       0.01172524      -2.55144087
H       -2.53105813       0.54262959       0.06172675
H       -2.18183699      -0.29308655       1.49739980
H       -2.35252015      -1.20551461      -0.01682333
H        0.30112874      -1.52992194       0.25372257
H        0.52529283       1.10053172       1.58543715
H        2.52593805      -0.41017674      -0.07529039
H        2.31316776       1.32210728      -0.43407357
14
Frame=13 idx=008255 GeodesicLength=0.6664819301453025 rxn_smarts="[C:1]([C@:2]12[N:3]([H:11])[C@@:4]1([H:12])[C:5]([H:13])([H:14])[C:6]2=[O:7])([H:8])([H:9])[H:10]>>[C:1]([N+:3]1([H:11])[C:2]2=[C:6]([O-:7])[C:5]([H:13])([H:14])[C@@:4]21[H:12])([H:8])([H:9])[H:10]"
C       -1.94646503      -0.29435075       0.43726320
C       -0.41864760       0.37840288      -0.43071690
N       -0.15908346      -0.71073900       0.61374949
C        0.60719778       0.50686046       0.68001132
C        1.79252723       0.38258837      -0.26598193
C        0.73918987       0.16204697      -1.37594076
O        0.79808734      -0.00259379      -2.55534990
H       -2.51311814       0.58142762       0.12149952
H       -2.18182698      -0.34721332       1.50084414
H       -2.37354279      -1.16582119      -0.06091027
H        0.31560010      -1.53697843       0.27453247
H        0.50362855       1.11549307       1.56840396
H        2.52988613      -0.39809284      -0.06547561
H        2.30656701       1.32896994      -0.44192873
14
Frame=14 idx=008255 GeodesicLength=0.7156072267356267 rxn_smarts="[C:1]([C@:2]12[N:3]([H:11])[C@@:4]1([H:12])[C:5]([H:13])([H:14])[C:6]2=[O:7])([H:8])([H:9])[H:10]>>[C:1]([N+:3]1([H:11])[C:2]2=[C:6]([O-:7])[C:5]([H:13])([H:14])[C@@:4]21[H:12])([H:8])([H:9])[H:10]"
C       -1.94637067      -0.29073009       0.44067962
C       -0.41960176       0.34777393      -0.44053950
N       -0.15537971      -0.71505166       0.61313357
C        0.60082978       0.51056978       0.67229681
C        1.79138289       0.38768825      -0.26705989
C        0.74471087       0.14709680      -1.37945965
O        0.80872960      -0.01603913      -2.55882669
H       -2.49179476       0.61654070       0.18047735
H       -2.18322433      -0.40011501       1.50034094
H       -2.39473882      -1.12384415      -0.10211168
H        0.32997402      -1.54365946       0.29591962
H        0.48237903       1.12978384       1.55141271
H        2.53337309      -0.38590683      -0.05634726
H        2.29973076       1.33589303      -0.44991595
14
Frame=15 idx=008255 GeodesicLength=0.7646981828018578 rxn_smarts="[C:1]([C@:2]12[N:3]([H:11])[C@@:4]1([H:12])[C:5]([H:13])([H:14])[C:6]2=[O:7])([H:8])([H:9])[H:10]>>[C:1]([N+:3]1([H:11])[C:2]2=[C:6]([O-:7])[C:5]([H:13])([H:14])[C@@:4]21[H:12])([H:8])([H:9])[H:10]"
C       -1.94605116      -0.28745237       0.44348138
C       -0.42037516       0.31718266      -0.44925363
N       -0.15142110      -0.71943049       0.61307944
C        0.59457302       0.51396879       0.66486549
C        1.78990898       0.39275925      -0.26822418
C        0.74957650       0.13247712      -1.38251521
O        0.81788909      -0.02892650      -2.56183858
H       -2.46791180       0.64766918       0.23858958
H       -2.18563974      -0.45148522       1.49609887
H       -2.41569945      -1.07928919      -0.14100734
H        0.34459084      -1.54962968       0.31793022
H        0.46151550       1.14320279       1.53457506
H        2.53654707      -0.37362375      -0.04776843
H        2.29249743       1.34257741      -0.45801268
14
Frame=16 idx=008255 GeodesicLength=0.813676091263588 rxn_smarts="[C:1]([C@:2]12[N:3]([H:11])[C@@:4]1([H:12])[C:5]([H:13])([H:14])[C:6]2=[O:7])([H:8])([H:9])[H:10]>>[C:1]([N+:3]1([H:11])[C:2]2=[C:6]([O-:7])[C:5]([H:13])([H:14])[C@@:4]21[H:12])([H:8])([H:9])[H:10]"
C       -1.94567674      -0.28447052       0.44576742
C       -0.42087896       0.28663831      -0.45692162
N       -0.14735548      -0.72398273       0.61359542
C        0.58839282       0.51716486       0.65770021
C        1.78825410       0.39785504      -0.26957036
C        0.75406168       0.11809400      -1.38524110
O        0.82604095      -0.04127810      -2.56463812
H       -2.44176387       0.67510832       0.29601857
H       -2.18935666      -0.50159046       1.48850381
H       -2.43650925      -1.03239924      -0.17752753
H        0.35929281      -1.55516500       0.34054931
H        0.44088335       1.15606378       1.51790322
H        2.53951758      -0.36129945      -0.03981005
H        2.28509767       1.34926119      -0.46632918
