18
Frame=0 idx=004836 GeodesicLength=0.0 rxn_smarts="[C:1]([C:2]1([H:10])[C:3]([H:11])([H:12])[C:4]([H:13])([H:14])[C:5]([H:15])([H:16])[C:6]1([H:17])[H:18])([H:7])([H:8])[H:9]>>[C:1]1([H:8])([H:9])[C:2]([C:6]([C:5]([C:4]([H:7])([H:13])[H:14])([H:15])[H:16])([H:17])[H:18])([H:10])[C:3]1([H:11])[H:12]"
C        1.31570549      -0.30226430       1.02771504
C        1.03734710       0.17815583      -0.32873682
C        0.52531255       1.52897978      -0.40988162
C       -1.31082616       0.08811382       0.89391463
C       -1.31637586      -0.60938139      -0.45464101
C        0.10989602      -0.80252392      -1.04665303
H       -0.10537104       0.03379096       1.29192637
H        1.82735087       0.36266090       1.71966596
H        1.55679867      -1.35459019       1.14958975
H        2.03242583       0.21222167      -0.82815375
H        0.13567820       1.89379792      -1.35420305
H        0.84777518       2.28148210       0.30109485
H       -1.68320541      -0.53366314       1.71124711
H       -1.83919024       1.03332944       0.91047403
H       -1.81370194      -1.58095513      -0.39937560
H       -1.88843676       0.00370441      -1.15361036
H        0.47524651      -1.82343472      -0.90919299
H        0.09357098      -0.60942405      -2.12117953
18
Frame=1 idx=004836 GeodesicLength=0.138836934878355 rxn_smarts="[C:1]([C:2]1([H:10])[C:3]([H:11])([H:12])[C:4]([H:13])([H:14])[C:5]([H:15])([H:16])[C:6]1([H:17])[H:18])([H:7])([H:8])[H:9]>>[C:1]1([H:8])([H:9])[C:2]([C:6]([C:5]([C:4]([H:7])([H:13])[H:14])([H:15])[H:16])([H:17])[H:18])([H:10])[C:3]1([H:11])[H:12]"
C        1.34717408      -0.28630073       1.01576500
C        1.03818759       0.16978202      -0.34339266
C        0.51701065       1.52092433      -0.36980614
C       -1.31810408       0.10068313       0.87693945
C       -1.32515771      -0.60881103      -0.46669601
C        0.10478837      -0.81847601      -1.03738580
H       -0.09838441       0.01116634       1.31399742
H        1.89596480       0.37627060       1.68083229
H        1.59493634      -1.33611759       1.14656287
H        2.01443919       0.22013718      -0.87413791
H        0.15989334       1.92444390      -1.31121108
H        0.80088496       2.25911533       0.37200666
H       -1.72259936      -0.50535161       1.69096727
H       -1.84955185       1.04527719       0.87437403
H       -1.83225036      -1.57499580      -0.40586915
H       -1.88686379      -0.00085303      -1.17850007
H        0.45712909      -1.83932545      -0.86712523
H        0.10250313      -0.65756878      -2.11732095
18
Frame=2 idx=004836 GeodesicLength=0.27752760893392525 rxn_smarts="[C:1]([C:2]1([H:10])[C:3]([H:11])([H:12])[C:4]([H:13])([H:14])[C:5]([H:15])([H:16])[C:6]1([H:17])[H:18])([H:7])([H:8])[H:9]>>[C:1]1([H:8])([H:9])[C:2]([C:6]([C:5]([C:4]([H:7])([H:13])[H:14])([H:15])[H:16])([H:17])[H:18])([H:10])[C:3]1([H:11])[H:12]"
C        1.37804391      -0.26927799       1.00348646
C        1.03808393       0.16227642      -0.35758025
C        0.50920151       1.51228204      -0.32946741
C       -1.32578651       0.11276353       0.85990713
C       -1.33402406      -0.60798998      -0.47923455
C        0.09972427      -0.83444998      -1.02716728
H       -0.09204274      -0.01327965       1.33611855
H        1.96479158       0.39022742       1.63848155
H        1.63374506      -1.31627071       1.14248585
H        1.99384124       0.22936610      -0.91959114
H        0.18483452       1.95586160      -1.26467927
H        0.75574211       2.23414592       0.44132975
H       -1.76189772      -0.47708231       1.66962440
H       -1.85964003       1.05675594       0.83801831
H       -1.85120907      -1.56849364      -0.41358434
H       -1.88432111      -0.00477970      -1.20393716
H        0.43904424      -1.85371914      -0.82256404
H        0.11186886      -0.70833588      -2.11164655
18
Frame=3 idx=004836 GeodesicLength=0.4160626474506063 rxn_smarts="[C:1]([C:2]1([H:10])[C:3]([H:11])([H:12])[C:4]([H:13])([H:14])[C:5]([H:15])([H:16])[C:6]1([H:17])[H:18])([H:7])([H:8])[H:9]>>[C:1]1([H:8])([H:9])[C:2]([C:6]([C:5]([C:4]([H:7])([H:13])[H:14])([H:15])[H:16])([H:17])[H:18])([H:10])[C:3]1([H:11])[H:12]"
C        1.40831109      -0.25128375       0.99085421
C        1.03703308       0.15564172      -0.37128235
C        0.50180620       1.50307712      -0.28887763
C       -1.33390830       0.12441712       0.84277125
C       -1.34287501      -0.60700358      -0.49222859
C        0.09472246      -0.85040443      -1.01599726
H       -0.08622195      -0.03923562       1.35824991
H        2.03344043       0.40434710       1.59236817
H        1.67288218      -1.29521358       1.13729507
H        1.97051540       0.23996735      -0.96447602
H        0.21064014       1.98783258      -1.21451729
H        0.71238067       2.20669148       0.50916018
H       -1.80094738      -0.44880583       1.64729006
H       -1.86935322       1.06789064       0.80127707
H       -1.87036065      -1.56158741      -0.42242208
H       -1.88075369      -0.00829855      -1.22993044
H        0.42098947      -1.86644812      -0.77563698
H        0.12169907      -0.76158423      -2.10389728
18
Frame=4 idx=004836 GeodesicLength=0.5544594804438728 rxn_smarts="[C:1]([C:2]1([H:10])[C:3]([H:11])([H:12])[C:4]([H:13])([H:14])[C:5]([H:15])([H:16])[C:6]1([H:17])[H:18])([H:7])([H:8])[H:9]>>[C:1]1([H:8])([H:9])[C:2]([C:6]([C:5]([C:4]([H:7])([H:13])[H:14])([H:15])[H:16])([H:17])[H:18])([H:10])[C:3]1([H:11])[H:12]"
C        1.43803066      -0.23242379       0.97779972
C        1.03504089       0.14987856      -0.38449812
C        0.49474935       1.49331478      -0.24805902
C       -1.34249592       0.13572365       0.82546572
C       -1.35160882      -0.60595379      -0.50564149
C        0.08980524      -0.86629507      -1.00389341
H       -0.08077102      -0.06640623       1.38039641
H        2.10137636       0.41850652       1.54234638
H        1.71206503      -1.27312583       1.13092867
H        1.94430397       0.25201657      -1.00880058
H        0.23743278       2.02011729      -1.16059248
H        0.67091233       2.17682296       0.57561275
H       -1.83966303      -0.42042086       1.62401135
H       -1.87856684       1.07882628       0.76399191
H       -1.88947681      -1.55444171      -0.43224940
H       -1.87612223      -0.01167282      -1.25647851
H        0.40297710      -1.87734401      -0.72652823
H        0.13201094      -0.81712251      -2.09381164
18
Frame=5 idx=004836 GeodesicLength=0.6927600125172988 rxn_smarts="[C:1]([C:2]1([H:10])[C:3]([H:11])([H:12])[C:4]([H:13])([H:14])[C:5]([H:15])([H:16])[C:6]1([H:17])[H:18])([H:7])([H:8])[H:9]>>[C:1]1([H:8])([H:9])[C:2]([C:6]([C:5]([C:4]([H:7])([H:13])[H:14])([H:15])[H:16])([H:17])[H:18])([H:10])[C:3]1([H:11])[H:12]"
C        1.46726574      -0.21281023       0.96422709
C        1.03216745       0.14492339      -0.39726634
C        0.48796777       1.48299818      -0.20699981
C       -1.35158732       0.14679732       0.80788632
C       -1.36015779      -0.60490101      -0.51947460
C        0.08497796      -0.88209172      -0.99091998
H       -0.07552797      -0.09459504       1.40254281
H        2.16801843       0.43300319       1.48853396
H        1.75124077      -1.25011952       1.12332406
H        1.91511343       0.26530307      -1.05251001
H        0.26504167       2.05246129      -1.10291357
H        0.63165214       2.14438926       0.64098940
H       -1.87794690      -0.39183209       1.59979435
H       -1.88717198       1.08973761       0.72604423
H       -1.90838603      -1.54716978      -0.44297652
H       -1.87043433      -0.01510294      -1.28359238
H        0.38495752      -1.88629782      -0.67550182
H        0.14280945      -0.87469316      -2.08118721
18
Frame=6 idx=004836 GeodesicLength=0.8309601063400452 rxn_smarts="[C:1]([C:2]1([H:10])[C:3]([H:11])([H:12])[C:4]([H:13])([H:14])[C:5]([H:15])([H:16])[C:6]1([H:17])[H:18])([H:7])([H:8])[H:9]>>[C:1]1([H:8])([H:9])[C:2]([C:6]([C:5]([C:4]([H:7])([H:13])[H:14])([H:15])[H:16])([H:17])[H:18])([H:10])[C:3]1([H:11])[H:12]"
C        1.49617760      -0.19257747       0.94997297
C        1.02840783       0.14080487      -0.40958963
C        0.48141587       1.47210140      -0.16576104
C       -1.36116059       0.15776146       0.78995955
C       -1.36842179      -0.60397824      -0.53364716
C        0.08026894      -0.89773794      -0.97708416
H       -0.07028096      -0.12355081       1.42478891
H        2.23270330       0.44751029       1.43102294
H        1.79019426      -1.22642820       1.11436589
H        1.88269620       0.28009440      -1.09567542
H        0.29379015       2.08450482      -1.04127927
H        0.59447892       2.10955354       0.70522046
H       -1.91583945      -0.36282380       1.57464879
H       -1.89498705       1.10077790       0.68720713
H       -1.92686039      -1.53997624      -0.45436569
H       -1.86368325      -0.01891983      -1.31122292
H        0.36699262      -1.89314771      -0.62278189
H        0.15410779      -0.93396845      -2.06577946
18
Frame=7 idx=004836 GeodesicLength=0.9690899937755304 rxn_smarts="[C:1]([C:2]1([H:10])[C:3]([H:11])([H:12])[C:4]([H:13])([H:14])[C:5]([H:15])([H:16])[C:6]1([H:17])[H:18])([H:7])([H:8])[H:9]>>[C:1]1([H:8])([H:9])[C:2]([C:6]([C:5]([C:4]([H:7])([H:13])[H:14])([H:15])[H:16])([H:17])[H:18])([H:10])[C:3]1([H:11])[H:12]"
C        1.52490292      -0.17185377       0.93486224
C        1.02379284       0.13750913      -0.42150509
C        0.47507131       1.46058597      -0.12436503
C       -1.37121104       0.16876364       0.77157324
C       -1.37633394      -0.60329034      -0.54810994
C        0.07569267      -0.91319435      -0.96242649
H       -0.06482624      -0.15312967       1.44722658
H        2.29486050       0.46205700       1.37009050
H        1.82890669      -1.20221446       1.10393277
H        1.84682231       0.29644127      -1.13831898
H        0.32376055       2.11584590      -0.97556315
H        0.55940872       2.07228150       0.76842414
H       -1.95338341      -0.33313296       1.54853028
H       -1.90183901       1.11212483       0.64724934
H       -1.94473216      -1.53302185      -0.46621343
H       -1.85590247      -0.02341222      -1.33934674
H        0.34909947      -1.89778317      -0.56862716
H        0.16591029      -0.99457643      -2.04741309
18
Frame=8 idx=004836 GeodesicLength=1.1071383420072254 rxn_smarts="[C:1]([C:2]1([H:10])[C:3]([H:11])([H:12])[C:4]([H:13])([H:14])[C:5]([H:15])([H:16])[C:6]1([H:17])[H:18])([H:7])([H:8])[H:9]>>[C:1]1([H:8])([H:9])[C:2]([C:6]([C:5]([C:4]([H:7])([H:13])[H:14])([H:15])[H:16])([H:17])[H:18])([H:10])[C:3]1([H:11])[H:12]"
C        1.55355775      -0.15075128       0.91873322
C        1.01835646       0.13500662      -0.43304571
C        0.46894414       1.44839278      -0.08282883
C       -1.38172267       0.17996159       0.75260247
C       -1.38384359      -0.60293803      -0.56281647
C        0.07125955      -0.92842262      -0.94698780
H       -0.05900349      -0.18325082       1.46996199
H        2.35402001       0.47678127       1.30604515
H        1.86742755      -1.17760291       1.09190783
H        1.80722308       0.31437584      -1.18042245
H        0.35495334       2.14602794      -0.90563337
H        0.52650721       2.03246084       0.83074214
H       -1.99068709      -0.30245190       1.52131386
H       -1.90750190       1.12396170       0.60592454
H       -1.96185818      -1.52646110      -0.47831065
H       -1.84714959      -0.02886825      -1.36792925
H        0.33130897      -1.90011470      -0.51330967
H        0.17820845      -1.05610699      -2.02594701
18
Frame=9 idx=004836 GeodesicLength=1.2452028154920531 rxn_smarts="[C:1]([C:2]1([H:10])[C:3]([H:11])([H:12])[C:4]([H:13])([H:14])[C:5]([H:15])([H:16])[C:6]1([H:17])[H:18])([H:7])([H:8])[H:9]>>[C:1]1([H:8])([H:9])[C:2]([C:6]([C:5]([C:4]([H:7])([H:13])[H:14])([H:15])[H:16])([H:17])[H:18])([H:10])[C:3]1([H:11])[H:12]"
C        1.58222619      -0.12934881       0.90146544
C        1.01214415       0.13315117      -0.44427912
C        0.46304252       1.43545079      -0.04110602
C       -1.39271276       0.19154515       0.73284893
C       -1.39092660      -0.60294313      -0.57774397
C        0.06691527      -0.94339818      -0.93081678
H       -0.05264148      -0.21393817       1.49310724
H        2.40996721       0.49211350       1.23932741
H        1.90602344      -1.15262035       1.07812545
H        1.76377930       0.33353643      -1.22173776
H        0.38708540       2.17468409      -0.83156864
H        0.49576881       1.98980617       0.89238064
H       -2.02780351      -0.27054096       1.49283725
H       -1.91178349       1.13648720       0.56300174
H       -1.97816287      -1.52031948      -0.49046210
H       -1.83744735      -0.03545671      -1.39692711
H        0.31355708      -1.90014123      -0.45715326
H        0.19096870      -1.11806748      -2.00129933
18
Frame=10 idx=004836 GeodesicLength=1.3832423766810946 rxn_smarts="[C:1]([C:2]1([H:10])[C:3]([H:11])([H:12])[C:4]([H:13])([H:14])[C:5]([H:15])([H:16])[C:6]1([H:17])[H:18])([H:7])([H:8])[H:9]>>[C:1]1([H:8])([H:9])[C:2]([C:6]([C:5]([C:4]([H:7])([H:13])[H:14])([H:15])[H:16])([H:17])[H:18])([H:10])[C:3]1([H:11])[H:12]"
C        1.61099464      -0.10770667       0.88286959
C        1.00517989       0.13201730      -0.45517379
C        0.45740656       1.42166994       0.00080993
C       -1.40413332       0.20369497       0.71220530
C       -1.39753555      -0.60346572      -0.59279792
C        0.06271792      -0.95805255      -0.91391697
H       -0.04560050      -0.24521849       1.51684315
H        2.46240735       0.50790664       1.17006019
H        1.94461143      -1.12737518       1.06245139
H        1.71604869       0.35432125      -1.26221176
H        0.42032160       2.20112938      -0.75311266
H        0.46708590       1.94424486       0.95337232
H       -2.06495849      -0.23686988       1.46288348
H       -1.91435027       1.14986883       0.51812714
H       -1.99351127      -1.51482766      -0.50238108
H       -1.82689868      -0.04357929      -1.42629556
H        0.29597155      -1.89774054      -0.40035306
H        0.20424257      -1.18001721      -1.97337969
18
Frame=11 idx=004836 GeodesicLength=1.5213465702235813 rxn_smarts="[C:1]([C:2]1([H:10])[C:3]([H:11])([H:12])[C:4]([H:13])([H:14])[C:5]([H:15])([H:16])[C:6]1([H:17])[H:18])([H:7])([H:8])[H:9]>>[C:1]1([H:8])([H:9])[C:2]([C:6]([C:5]([C:4]([H:7])([H:13])[H:14])([H:15])[H:16])([H:17])[H:18])([H:10])[C:3]1([H:11])[H:12]"
C        1.63989860      -0.08584787       0.86282801
C        0.99750030       0.13157194      -0.46572888
C        0.45209064       1.40694162       0.04299081
C       -1.41594783       0.21662841       0.69048021
C       -1.40364473      -0.60458356      -0.60791282
C        0.05867039      -0.97232464      -0.89630411
H       -0.03773414      -0.27724465       1.54133614
H        2.51124605       0.52435070       1.09847076
H        1.98332426      -1.10186980       1.04471823
H        1.66367281       0.37673308      -1.30156766
H        0.45444290       2.22477054      -0.67023021
H        0.44038788       1.89546883       1.01387679
H       -2.10231472      -0.20094884       1.43112808
H       -1.91482186       1.16428755       0.47094892
H       -2.00782266      -1.51008376      -0.51377890
H       -1.81557737      -0.05353144      -1.45597953
H        0.27858938      -1.89285764      -0.34314650
H        0.21804010      -1.24146047      -1.94212933
18
Frame=12 idx=004836 GeodesicLength=1.65955820066067 rxn_smarts="[C:1]([C:2]1([H:10])[C:3]([H:11])([H:12])[C:4]([H:13])([H:14])[C:5]([H:15])([H:16])[C:6]1([H:17])[H:18])([H:7])([H:8])[H:9]>>[C:1]1([H:8])([H:9])[C:2]([C:6]([C:5]([C:4]([H:7])([H:13])[H:14])([H:15])[H:16])([H:17])[H:18])([H:10])[C:3]1([H:11])[H:12]"
C        1.66892727      -0.06377151       0.84126697
C        0.98917405       0.13177941      -0.47593802
C        0.44716343       1.39114278       0.08551514
C       -1.42807510       0.23057369       0.66750300
C       -1.40923626      -0.60635619      -0.62297902
C        0.05478290      -0.98614899      -0.87799409
H       -0.02891723      -0.31024471       1.56676480
H        2.55638531       0.54166687       1.02477668
H        2.02225679      -1.07608857       1.02477023
H        1.60641607       0.40076171      -1.33937026
H        0.48904820       2.24496069      -0.58298648
H        0.41561187       1.84312014       1.07397085
H       -2.13999107      -0.16222077       1.39720052
H       -1.91274918       1.17991383       0.42113033
H       -2.02104477      -1.50614871      -0.52432440
H       -1.80359599      -0.06559209      -1.48588446
H        0.26149490      -1.88549047      -0.28580602
H        0.23234882      -1.30185710      -1.90761578
18
Frame=13 idx=004836 GeodesicLength=1.797945025997574 rxn_smarts="[C:1]([C:2]1([H:10])[C:3]([H:11])([H:12])[C:4]([H:13])([H:14])[C:5]([H:15])([H:16])[C:6]1([H:17])[H:18])([H:7])([H:8])[H:9]>>[C:1]1([H:8])([H:9])[C:2]([C:6]([C:5]([C:4]([H:7])([H:13])[H:14])([H:15])[H:16])([H:17])[H:18])([H:10])[C:3]1([H:11])[H:12]"
C        1.69804677      -0.04141456       0.81821970
C        0.98025107       0.13253059      -0.48585682
C        0.44269746       1.37413914       0.12850102
C       -1.44041913       0.24576738       0.64308567
C       -1.41430503      -0.60876802      -0.63783729
C        0.05099528      -0.99945999      -0.85902980
H       -0.01899894      -0.34451105       1.59331449
H        2.59779426       0.56018381       0.94941742
H        2.06157662      -1.04992633       1.00245217
H        1.54439868       0.42603322      -1.37503300
H        0.52350610       2.26123417      -0.49176350
H        0.39257550       1.78686105       1.13360790
H       -2.17803884      -0.12031154       1.36067660
H       -1.90761957       1.19688346       0.36846954
H       -2.03316389      -1.50296772      -0.53358001
H       -1.79104459      -0.07991423      -1.51581683
H        0.24470251      -1.87576999      -0.22872242
H        0.24704572      -1.36058940      -1.87010483
18
Frame=14 idx=004836 GeodesicLength=1.936527443895483 rxn_smarts="[C:1]([C:2]1([H:10])[C:3]([H:11])([H:12])[C:4]([H:13])([H:14])[C:5]([H:15])([H:16])[C:6]1([H:17])[H:18])([H:7])([H:8])[H:9]>>[C:1]1([H:8])([H:9])[C:2]([C:6]([C:5]([C:4]([H:7])([H:13])[H:14])([H:15])[H:16])([H:17])[H:18])([H:10])[C:3]1([H:11])[H:12]"
C        1.72714360      -0.01875051       0.79364549
C        0.97081942       0.13391153      -0.49541815
C        0.43877131       1.35574612       0.17199874
C       -1.45280860       0.26244064       0.61712064
C       -1.41884256      -0.61192629      -0.65235821
C        0.04739046      -1.01214646      -0.83944309
H       -0.00786644      -0.38042334       1.62114981
H        2.63528840       0.57996745       0.87246357
H        2.10118881      -1.02335517       0.97768514
H        1.47731690       0.45286344      -1.40806048
H        0.55737767       2.27292564      -0.39664086
H        0.37126511       1.72627340       1.19275705
H       -2.21649387      -0.07441497       1.32112842
H       -1.89882745       1.21531170       0.31260948
H       -2.04413510      -1.50065254      -0.54116759
H       -1.77813996      -0.09686457      -1.54567069
H        0.22838239      -1.86364638      -0.17209169
H        0.26216991      -1.41725967      -1.82970756
18
Frame=15 idx=004836 GeodesicLength=2.0752217802951236 rxn_smarts="[C:1]([C:2]1([H:10])[C:3]([H:11])([H:12])[C:4]([H:13])([H:14])[C:5]([H:15])([H:16])[C:6]1([H:17])[H:18])([H:7])([H:8])[H:9]>>[C:1]1([H:8])([H:9])[C:2]([C:6]([C:5]([C:4]([H:7])([H:13])[H:14])([H:15])[H:16])([H:17])[H:18])([H:10])[C:3]1([H:11])[H:12]"
C        1.75608036       0.00429426       0.76767938
C        0.96095625       0.13588491      -0.50464384
C        0.43546746       1.33579532       0.21603620
C       -1.46503333       0.28080593       0.58951986
C       -1.42286056      -0.61580272      -0.66632673
C        0.04394940      -1.02410143      -0.81932866
H        0.00462892      -0.41838651       1.65043826
H        2.66873521       0.60126057       0.79445671
H        2.14110190      -0.99627030       0.95043505
H        1.40552383       0.48094524      -1.43781973
H        0.58979420       2.27961216      -0.29827168
H        0.35154512       1.66107418       1.25121204
H       -2.25523422      -0.02406575       1.27814217
H       -1.88576445       1.23523955       0.25345827
H       -2.05397348      -1.49912737      -0.54659608
H       -1.76508522      -0.11657657      -1.57518927
H        0.21262171      -1.84929177      -0.11633374
H        0.27754692      -1.47128972      -1.78686822
18
Frame=16 idx=004836 GeodesicLength=2.21422241022388 rxn_smarts="[C:1]([C:2]1([H:10])[C:3]([H:11])([H:12])[C:4]([H:13])([H:14])[C:5]([H:15])([H:16])[C:6]1([H:17])[H:18])([H:7])([H:8])[H:9]>>[C:1]1([H:8])([H:9])[C:2]([C:6]([C:5]([C:4]([H:7])([H:13])[H:14])([H:15])[H:16])([H:17])[H:18])([H:10])[C:3]1([H:11])[H:12]"
C        1.78464697       0.02784780       0.74041335
C        0.95072543       0.13844823      -0.51355185
C        0.43280527       1.31406649       0.26065149
C       -1.47687361       0.30112145       0.56015612
C       -1.42640758      -0.62038847      -0.67951781
C        0.04065471      -1.03522705      -0.79876774
H        0.01872955      -0.45897091       1.68130610
H        2.69792013       0.62442497       0.71574587
H        2.18130611      -0.96848461       0.92058849
H        1.32929135       0.51006901      -1.46357878
H        0.62012502       2.28103352      -0.19708380
H        0.33319028       1.59074183       1.30873009
H       -2.29407079       0.03136579       1.23118490
H       -1.86770822       1.25666309       0.19084171
H       -2.06275039      -1.49829100      -0.54931509
H       -1.75212568      -0.13925700      -1.60412223
H        0.19750310      -1.83284647      -0.06175545
H        0.29303834      -1.52231667      -1.74192538
