13
Frame=0 idx=010132 GeodesicLength=0.0 rxn_smarts="[O:1]=[C:2]1[N:3]([H:8])[C:4]([H:9])([H:10])[C@@:5]2([H:11])[C:6]([H:12])([H:13])[N:7]12>>[O:1]=[C:2]1[N:3]([H:8])[C:4]([H:9])([H:10])[C@@:5]2([H:11])[C-:6]([H:13])[N+:7]12[H:12]"
O        1.12977534       2.21673063       0.57516715
C        0.70528034       1.17197512       0.16934631
N        1.28877194      -0.05417702       0.21241261
C        0.47494402      -1.11971116      -0.32480236
C       -0.86003992      -0.41859809      -0.57028905
C       -1.62563462       0.12729244       0.57064469
N       -0.55939698       1.01362246      -0.50108526
H        2.14512155      -0.18775366       0.71734901
H        0.37598493      -1.95313901       0.37417774
H        0.88409680      -1.50280269      -1.26331449
H       -1.39268639      -0.72991974      -1.46302009
H       -1.52772758       1.39201067       0.01001604
H       -1.03848945       0.04447006       1.49339776
13
Frame=1 idx=010132 GeodesicLength=0.05210554512375171 rxn_smarts="[O:1]=[C:2]1[N:3]([H:8])[C:4]([H:9])([H:10])[C@@:5]2([H:11])[C:6]([H:12])([H:13])[N:7]12>>[O:1]=[C:2]1[N:3]([H:8])[C:4]([H:9])([H:10])[C@@:5]2([H:11])[C-:6]([H:13])[N+:7]12[H:12]"
O        1.13427472       2.21589694       0.57260871
C        0.70677101       1.17064065       0.17120457
N        1.28960061      -0.05579312       0.21363649
C        0.47655697      -1.12155938      -0.32439755
C       -0.85827402      -0.42074535      -0.57041391
C       -1.62098714       0.13199416       0.56835605
N       -0.56189197       1.01160415      -0.49045179
H        2.14993384      -0.18855545       0.71197360
H        0.37699657      -1.95492219       0.37462139
H        0.88695368      -1.50454219      -1.26246104
H       -1.39047706      -0.72752582      -1.46488762
H       -1.54682729       1.40078424       0.00466967
H       -1.04262992       0.04272336       1.49554143
13
Frame=2 idx=010132 GeodesicLength=0.1042059826680232 rxn_smarts="[O:1]=[C:2]1[N:3]([H:8])[C:4]([H:9])([H:10])[C@@:5]2([H:11])[C:6]([H:12])([H:13])[N:7]12>>[O:1]=[C:2]1[N:3]([H:8])[C:4]([H:9])([H:10])[C@@:5]2([H:11])[C-:6]([H:13])[N+:7]12[H:12]"
O        1.13882558       2.21506723       0.56996597
C        0.70833408       1.16932611       0.17298215
N        1.29044356      -0.05741284       0.21489852
C        0.47815552      -1.12337761      -0.32397906
C       -0.85648817      -0.42278536      -0.57049122
C       -1.61636467       0.13669435       0.56614720
N       -0.56434470       1.00966134      -0.47977596
H        2.15471377      -0.18936034       0.70660078
H        0.37796475      -1.95668263       0.37506545
H        0.88977313      -1.50624909      -1.26160380
H       -1.38822962      -0.72497271      -1.46671352
H       -1.56591793       1.40914908      -0.00076349
H       -1.04686531       0.04094247       1.49766699
13
Frame=3 idx=010132 GeodesicLength=0.1562936985547499 rxn_smarts="[O:1]=[C:2]1[N:3]([H:8])[C:4]([H:9])([H:10])[C@@:5]2([H:11])[C:6]([H:12])([H:13])[N:7]12>>[O:1]=[C:2]1[N:3]([H:8])[C:4]([H:9])([H:10])[C@@:5]2([H:11])[C-:6]([H:13])[N+:7]12[H:12]"
O        1.14343780       2.21424977       0.56719411
C        0.70997260       1.16803620       0.17465217
N        1.29130722      -0.05902801       0.21617159
C        0.47974509      -1.12515903      -0.32357122
C       -0.85468341      -0.42471956      -0.57051945
C       -1.61174680       0.14138377       0.56403240
N       -0.56675058       1.00778958      -0.46907669
H        2.15936871      -0.19018601       0.70136858
H        0.37890431      -1.95842323       0.37547359
H        0.89255302      -1.50790564      -1.26077201
H       -1.38596305      -0.72227603      -1.46847819
H       -1.58499033       1.41710346      -0.00624893
H       -1.05115457       0.03913472       1.49977407
13
Frame=4 idx=010132 GeodesicLength=0.20837749184440996 rxn_smarts="[O:1]=[C:2]1[N:3]([H:8])[C:4]([H:9])([H:10])[C@@:5]2([H:11])[C:6]([H:12])([H:13])[N:7]12>>[O:1]=[C:2]1[N:3]([H:8])[C:4]([H:9])([H:10])[C@@:5]2([H:11])[C-:6]([H:13])[N+:7]12[H:12]"
O        1.14811039       2.21344246       0.56430601
C        0.71167646       1.16676654       0.17624290
N        1.29218577      -0.06064436       0.21747747
C        0.48132170      -1.12690791      -0.32315944
C       -0.85286024      -0.42654394      -0.57050517
C       -1.60714952       0.14606130       0.56200045
N       -0.56910134       1.00598899      -0.45836054
H        2.16395876      -0.19102418       0.69619506
H        0.37980292      -1.96014439       0.37586550
H        0.89529963      -1.50952293      -1.25994717
H       -1.38366470      -0.71943024      -1.47019824
H       -1.60405491       1.42465618      -0.01177722
H       -1.05552493       0.03730250       1.50186039
13
Frame=5 idx=010132 GeodesicLength=0.2604572478467015 rxn_smarts="[O:1]=[C:2]1[N:3]([H:8])[C:4]([H:9])([H:10])[C@@:5]2([H:11])[C:6]([H:12])([H:13])[N:7]12>>[O:1]=[C:2]1[N:3]([H:8])[C:4]([H:9])([H:10])[C@@:5]2([H:11])[C-:6]([H:13])[N+:7]12[H:12]"
O        1.15283724       2.21263780       0.56132786
C        0.71343663       1.16551177       0.17778211
N        1.29306954      -0.06226592       0.21883674
C        0.48287839      -1.12862734      -0.32272603
C       -0.85101626      -0.42825516      -0.57045337
C       -1.60258455       0.15072504       0.56003624
N       -0.57138616       1.00425873      -0.44763260
H        2.16854312      -0.19186114       0.69098014
H        0.38064504      -1.96184233       0.37626503
H        0.89801318      -1.51111311      -1.25910304
H       -1.38131670      -0.71642875      -1.47188663
H       -1.62311719       1.43181341      -0.01734309
H       -1.06000228       0.03544700       1.50391664
13
Frame=6 idx=010132 GeodesicLength=0.3125356034972087 rxn_smarts="[O:1]=[C:2]1[N:3]([H:8])[C:4]([H:9])([H:10])[C@@:5]2([H:11])[C:6]([H:12])([H:13])[N:7]12>>[O:1]=[C:2]1[N:3]([H:8])[C:4]([H:9])([H:10])[C@@:5]2([H:11])[C-:6]([H:13])[N+:7]12[H:12]"
O        1.15761865       2.21183611       0.55825795
C        0.71525023       1.16427120       0.17927437
N        1.29395896      -0.06389293       0.22025072
C        0.48441554      -1.13031805      -0.32227150
C       -0.84915182      -0.42985305      -0.57036788
C       -1.59805195       0.15537362       0.55813741
N       -0.57359926       1.00259661      -0.43690410
H        2.17311995      -0.19269790       0.68572464
H        0.38143014      -1.96351761       0.37667168
H        0.90069624      -1.51267860      -1.25823929
H       -1.37891940      -0.71327616      -1.47354583
H       -1.64218191       1.43858275      -0.02292809
H       -1.06458537       0.03357402       1.50593992
13
Frame=7 idx=010132 GeodesicLength=0.36461195256010637 rxn_smarts="[O:1]=[C:2]1[N:3]([H:8])[C:4]([H:9])([H:10])[C@@:5]2([H:11])[C:6]([H:12])([H:13])[N:7]12>>[O:1]=[C:2]1[N:3]([H:8])[C:4]([H:9])([H:10])[C@@:5]2([H:11])[C-:6]([H:13])[N+:7]12[H:12]"
O        1.16245384       2.21103660       0.55509440
C        0.71711437       1.16304373       0.18072365
N        1.29485357      -0.06552558       0.22171990
C        0.48593305      -1.13198030      -0.32179599
C       -0.84726643      -0.43133767      -0.57025210
C       -1.59355011       0.16000554       0.55630099
N       -0.57573455       1.00100016      -0.42618565
H        2.17768678      -0.19353534       0.68042924
H        0.38215687      -1.96517027       0.37708527
H        0.90335043      -1.51422078      -1.25735465
H       -1.37647166      -0.70997611      -1.47517747
H       -1.66125370       1.44497118      -0.02851406
H       -1.06927247       0.03168884       1.50792646
13
Frame=8 idx=010132 GeodesicLength=0.41668641945393337 rxn_smarts="[O:1]=[C:2]1[N:3]([H:8])[C:4]([H:9])([H:10])[C@@:5]2([H:11])[C:6]([H:12])([H:13])[N:7]12>>[O:1]=[C:2]1[N:3]([H:8])[C:4]([H:9])([H:10])[C@@:5]2([H:11])[C-:6]([H:13])[N+:7]12[H:12]"
O        1.16734219       2.21023859       0.55183569
C        0.71902678       1.16182837       0.18213353
N        1.29575356      -0.06716413       0.22324429
C        0.48743121      -1.13361461      -0.32129994
C       -0.84535967      -0.43270958      -0.57010949
C       -1.58907716       0.16462034       0.55452387
N       -0.57778641       0.99946689      -0.41548746
H        2.18224077      -0.19437476       0.67509603
H        0.38282448      -1.96680049       0.37750546
H        0.90597766      -1.51574146      -1.25644836
H       -1.37397281      -0.70653267      -1.47678341
H       -1.68033912       1.45098631      -0.03408284
H       -1.07406148       0.02979720       1.50987263
13
Frame=9 idx=010132 GeodesicLength=0.46875900708199225 rxn_smarts="[O:1]=[C:2]1[N:3]([H:8])[C:4]([H:9])([H:10])[C@@:5]2([H:11])[C:6]([H:12])([H:13])[N:7]12>>[O:1]=[C:2]1[N:3]([H:8])[C:4]([H:9])([H:10])[C@@:5]2([H:11])[C-:6]([H:13])[N+:7]12[H:12]"
O        1.17228399       2.20944137       0.54848083
C        0.72098572       1.16062395       0.18350876
N        1.29665948      -0.06880915       0.22482525
C        0.48891043      -1.13522171      -0.32078305
C       -0.84343128      -0.43396957      -0.56994369
C       -1.58463206       0.16921814       0.55280235
N       -0.57974950       0.99799450      -0.40481910
H        2.18678177      -0.19521714       0.66972337
H        0.38343185      -1.96840872       0.37793301
H        0.90858044      -1.51724254      -1.25551900
H       -1.37142208      -0.70294950      -1.47836646
H       -1.69944695       1.45663598      -0.03961725
H       -1.07895181       0.02790438       1.51177498
13
Frame=10 idx=010132 GeodesicLength=0.5208275419578547 rxn_smarts="[O:1]=[C:2]1[N:3]([H:8])[C:4]([H:9])([H:10])[C@@:5]2([H:11])[C:6]([H:12])([H:13])[N:7]12>>[O:1]=[C:2]1[N:3]([H:8])[C:4]([H:9])([H:10])[C@@:5]2([H:11])[C-:6]([H:13])[N+:7]12[H:12]"
O        1.17726928       2.20864280       0.54503673
C        0.72299368       1.15943320       0.18483032
N        1.29757792      -0.07045630       0.22643811
C        0.49037318      -1.13680129      -0.32025483
C       -0.84148067      -0.43512059      -0.56975823
C       -1.58020131       0.17380025       0.55113776
N       -0.58161941       0.99657941      -0.39419710
H        2.19127524      -0.19606991       0.66436628
H        0.38398582      -1.96999158       0.37836136
H        0.91115439      -1.51872993      -1.25457597
H       -1.36882600      -0.69923619      -1.47992244
H       -1.71858181       1.46192758      -0.04509142
H       -1.08392033       0.02602255       1.51362942
13
Frame=11 idx=010132 GeodesicLength=0.5728944145314371 rxn_smarts="[O:1]=[C:2]1[N:3]([H:8])[C:4]([H:9])([H:10])[C@@:5]2([H:11])[C:6]([H:12])([H:13])[N:7]12>>[O:1]=[C:2]1[N:3]([H:8])[C:4]([H:9])([H:10])[C@@:5]2([H:11])[C-:6]([H:13])[N+:7]12[H:12]"
O        1.18230651       2.20784287       0.54149590
C        0.72504619       1.15825146       0.18612181
N        1.29850407      -0.07211057       0.22810453
C        0.49181839      -1.13835508      -0.31970751
C       -0.83950677      -0.43616226      -0.56955631
C       -1.57579201       0.17836818       0.54952139
N       -0.58339005       0.99522046      -0.38362327
H        2.19574769      -0.19692982       0.65897923
H        0.38447923      -1.97155234       0.37879612
H        0.91370740      -1.52020232      -1.25360928
H       -1.36617680      -0.69539176      -1.48145887
H       -1.73776024       1.46686841      -0.05049575
H       -1.08898362       0.02415277       1.51543202
13
Frame=12 idx=010132 GeodesicLength=0.6249596534632531 rxn_smarts="[O:1]=[C:2]1[N:3]([H:8])[C:4]([H:9])([H:10])[C@@:5]2([H:11])[C:6]([H:12])([H:13])[N:7]12>>[O:1]=[C:2]1[N:3]([H:8])[C:4]([H:9])([H:10])[C@@:5]2([H:11])[C-:6]([H:13])[N+:7]12[H:12]"
O        1.18739605       2.20704091       0.53785582
C        0.72714338       1.15707817       0.18738397
N        1.29943993      -0.07377201       0.22982093
C        0.49324714      -1.13988368      -0.31914288
C       -0.83750898      -0.43709600      -0.56934130
C       -1.57140020       0.18292393       0.54794996
N       -0.58505691       0.99391578      -0.37310651
H        2.20019371      -0.19780043       0.65357411
H        0.38491272      -1.97309101       0.37923621
H        0.91624101      -1.52166180      -1.25261990
H       -1.36347466      -0.69141994      -1.48297756
H       -1.75699580       1.47146497      -0.05581210
H       -1.09413741       0.02230111       1.51717926
13
Frame=13 idx=010132 GeodesicLength=0.6770233132149347 rxn_smarts="[O:1]=[C:2]1[N:3]([H:8])[C:4]([H:9])([H:10])[C@@:5]2([H:11])[C:6]([H:12])([H:13])[N:7]12>>[O:1]=[C:2]1[N:3]([H:8])[C:4]([H:9])([H:10])[C@@:5]2([H:11])[C-:6]([H:13])[N+:7]12[H:12]"
O        1.19253825       2.20623577       0.53411548
C        0.72928559       1.15591240       0.18861875
N        1.30038701      -0.07544113       0.23158526
C        0.49466039      -1.14138783      -0.31856194
C       -0.83548618      -0.43792322      -0.56911644
C       -1.56702195       0.18747029       0.54641949
N       -0.58661510       0.99266352      -0.36265464
H        2.20460901      -0.19868465       0.64815761
H        0.38528626      -1.97460744       0.37968112
H        0.91875697      -1.52311074      -1.25160775
H       -1.36071863      -0.68732416      -1.48448049
H       -1.77630342       1.47572285      -0.06102345
H       -1.09937822       0.02047434       1.51886701
13
Frame=14 idx=010132 GeodesicLength=0.7290854041825219 rxn_smarts="[O:1]=[C:2]1[N:3]([H:8])[C:4]([H:9])([H:10])[C@@:5]2([H:11])[C:6]([H:12])([H:13])[N:7]12>>[O:1]=[C:2]1[N:3]([H:8])[C:4]([H:9])([H:10])[C@@:5]2([H:11])[C-:6]([H:13])[N+:7]12[H:12]"
O        1.19773360       2.20542599       0.53027560
C        0.73147387       1.15475331       0.18982778
N        1.30134729      -0.07711851       0.23339518
C        0.49605905      -1.14286835      -0.31796547
C       -0.83343727      -0.43864527      -0.56888498
C       -1.56265340       0.19201070       0.54492573
N       -0.58805977       0.99146223      -0.35227530
H        2.20899078      -0.19958550       0.64273530
H        0.38559970      -1.97610132       0.38013108
H        0.92125682      -1.52455202      -1.25057249
H       -1.35790777      -0.68310749      -1.48596992
H       -1.79570009       1.47964659      -0.06611368
H       -1.10470281       0.01867965       1.52049115
13
Frame=15 idx=010132 GeodesicLength=0.7811458607760322 rxn_smarts="[O:1]=[C:2]1[N:3]([H:8])[C:4]([H:9])([H:10])[C@@:5]2([H:11])[C:6]([H:12])([H:13])[N:7]12>>[O:1]=[C:2]1[N:3]([H:8])[C:4]([H:9])([H:10])[C@@:5]2([H:11])[C-:6]([H:13])[N+:7]12[H:12]"
O        1.20298336       2.20461030       0.52633555
C        0.73371004       1.15360032       0.19101123
N        1.30232321      -0.07880456       0.23524708
C        0.49744428      -1.14432592      -0.31735503
C       -0.83136111      -0.43926342      -0.56865013
C       -1.55828994       0.19654902       0.54346482
N       -0.58938624       0.99031075      -0.34197595
H        2.21333395      -0.20050699       0.63731824
H        0.38585333      -1.97757232       0.38058540
H        0.92374197      -1.52598812      -1.24951487
H       -1.35504169      -0.67877287      -1.48744779
H       -1.81520450       1.48323934      -0.07106629
H       -1.11010665       0.01692449       1.52204773
13
Frame=16 idx=010132 GeodesicLength=0.8332047022197201 rxn_smarts="[O:1]=[C:2]1[N:3]([H:8])[C:4]([H:9])([H:10])[C@@:5]2([H:11])[C:6]([H:12])([H:13])[N:7]12>>[O:1]=[C:2]1[N:3]([H:8])[C:4]([H:9])([H:10])[C@@:5]2([H:11])[C-:6]([H:13])[N+:7]12[H:12]"
O        1.20828975       2.20378746       0.52229418
C        0.73599624       1.15245274       0.19217029
N        1.30331713      -0.08049996       0.23713813
C        0.49881705      -1.14576124      -0.31673172
C       -0.82925642      -0.43977868      -0.56841512
C       -1.55392722       0.20108951       0.54203247
N       -0.59058978       0.98920832      -0.33176317
H        2.21763520      -0.20145310       0.63191525
H        0.38604687      -1.97902002       0.38104391
H        0.92621384      -1.52742172      -1.24843493
H       -1.35211917      -0.67432215      -1.48891670
H       -1.83483733       1.48650266      -0.07586520
H       -1.11558615       0.01521619       1.52353260
