9
Frame=0 idx=000404 GeodesicLength=0.0 rxn_smarts="[O:1]([c:2]1[n:3][n:4]([H:8])[c:5]([H:9])[n:6]1)[H:7]>>[O:1]([c:2]1[n:3]([H:8])[n:4][c:5]([H:9])[n:6]1)[H:7]"
O        2.07449568      -0.26020755      -0.13163090
C        0.75236278      -0.15077033      -0.11899292
N        0.13205479       1.03196641      -0.07419310
N       -1.28547061       0.66113906      -0.05354235
C       -1.25233152      -0.66960582      -0.08421817
N       -0.04379699      -1.20915265      -0.18575788
H        2.45653478       0.62294993      -0.13555719
H       -0.66850890       1.22156482       0.84355727
H       -2.16534002      -1.24788389      -0.05966472
9
Frame=1 idx=000404 GeodesicLength=0.0408570477813333 rxn_smarts="[O:1]([c:2]1[n:3][n:4]([H:8])[c:5]([H:9])[n:6]1)[H:7]>>[O:1]([c:2]1[n:3]([H:8])[n:4][c:5]([H:9])[n:6]1)[H:7]"
O        2.07503304      -0.26043732      -0.13636357
C        0.75232215      -0.15301592      -0.12602313
N        0.12855349       1.02718035      -0.07701548
N       -1.28128618       0.65766270      -0.05093965
C       -1.25206708      -0.67236319      -0.08392282
N       -0.04348929      -1.21153602      -0.19521876
H        2.45652339       0.62277383      -0.12279613
H       -0.67012444       1.23934517       0.84631669
H       -2.16546508      -1.24960959      -0.05403715
9
Frame=2 idx=000404 GeodesicLength=0.08170735102100336 rxn_smarts="[O:1]([c:2]1[n:3][n:4]([H:8])[c:5]([H:9])[n:6]1)[H:7]>>[O:1]([c:2]1[n:3]([H:8])[n:4][c:5]([H:9])[n:6]1)[H:7]"
O        2.07553250      -0.26066079      -0.14103463
C        0.75224806      -0.15520625      -0.13368727
N        0.12503944       1.02239628      -0.07980987
N       -1.27713616       0.65408683      -0.04801698
C       -1.25176304      -0.67519083      -0.08380500
N       -0.04323138      -1.21382775      -0.20568569
H        2.45640196       0.62233944      -0.10909809
H       -0.67169863       1.25759898       0.84858396
H       -2.16539275      -1.25153589      -0.04744641
9
Frame=3 idx=000404 GeodesicLength=0.12256890139381986 rxn_smarts="[O:1]([c:2]1[n:3][n:4]([H:8])[c:5]([H:9])[n:6]1)[H:7]>>[O:1]([c:2]1[n:3]([H:8])[n:4][c:5]([H:9])[n:6]1)[H:7]"
O        2.07589262      -0.26059005      -0.14792147
C        0.75203467      -0.15722359      -0.14342260
N        0.12133676       1.01767767      -0.08372220
N       -1.27311236       0.65032501      -0.04461355
C       -1.25139449      -0.67817679      -0.08340519
N       -0.04307577      -1.21599361      -0.21771497
H        2.45591806       0.62126782      -0.09045714
H       -0.67263907       1.27656873       0.84979442
H       -2.16496041      -1.25385520      -0.03853730
9
Frame=4 idx=000404 GeodesicLength=0.1634308143257197 rxn_smarts="[O:1]([c:2]1[n:3][n:4]([H:8])[c:5]([H:9])[n:6]1)[H:7]>>[O:1]([c:2]1[n:3]([H:8])[n:4][c:5]([H:9])[n:6]1)[H:7]"
O        2.07623787      -0.26054838      -0.15353326
C        0.75181786      -0.15915027      -0.15337183
N        0.11766403       1.01298759      -0.08714897
N       -1.26907189       0.64648994      -0.04086078
C       -1.25094624      -0.68120125      -0.08334584
N       -0.04295684      -1.21798489      -0.23080673
H        2.45525068       0.61978754      -0.07253437
H       -0.67378091       1.29599697       0.85067871
H       -2.16421456      -1.25637724      -0.02907694
9
Frame=5 idx=000404 GeodesicLength=0.204308216256168 rxn_smarts="[O:1]([c:2]1[n:3][n:4]([H:8])[c:5]([H:9])[n:6]1)[H:7]>>[O:1]([c:2]1[n:3]([H:8])[n:4][c:5]([H:9])[n:6]1)[H:7]"
O        2.07651882      -0.26042743      -0.15903982
C        0.75155760      -0.16094169      -0.16404954
N        0.11395867       1.00833681      -0.09052991
N       -1.26503655       0.64253274      -0.03667075
C       -1.25040243      -0.68430048      -0.08340931
N       -0.04289801      -1.21979188      -0.24501914
H        2.45427627       0.61774397      -0.05361553
H       -0.67490493       1.31602572       0.85097354
H       -2.16306943      -1.25917775      -0.01863954
9
Frame=6 idx=000404 GeodesicLength=0.24518913904467884 rxn_smarts="[O:1]([c:2]1[n:3][n:4]([H:8])[c:5]([H:9])[n:6]1)[H:7]>>[O:1]([c:2]1[n:3]([H:8])[n:4][c:5]([H:9])[n:6]1)[H:7]"
O        2.07675395      -0.26028733      -0.16415992
C        0.75128084      -0.16261356      -0.17506288
N        0.11026074       1.00371893      -0.09357450
N       -1.26097621       0.63846478      -0.03201202
C       -1.24975868      -0.68747114      -0.08361356
N       -0.04288545      -1.22142098      -0.26004167
H        2.45303378       0.61516557      -0.03455466
H       -0.67617359       1.33668136       0.85075682
H       -2.16153537      -1.26223764      -0.00773761
9
Frame=7 idx=000404 GeodesicLength=0.2860770214425974 rxn_smarts="[O:1]([c:2]1[n:3][n:4]([H:8])[c:5]([H:9])[n:6]1)[H:7]>>[O:1]([c:2]1[n:3]([H:8])[n:4][c:5]([H:9])[n:6]1)[H:7]"
O        2.07694321      -0.26010413      -0.16922270
C        0.75098755      -0.16416009      -0.18633205
N        0.10657337       0.99912489      -0.09625634
N       -1.25687686       0.63426366      -0.02681106
C       -1.24900723      -0.69072849      -0.08386691
N       -0.04292107      -1.22287547      -0.27561879
H        2.45151525       0.61200956      -0.01524712
H       -0.67760330       1.35804370       0.84996958
H       -2.15961091      -1.26557362       0.00338541
9
Frame=8 idx=000404 GeodesicLength=0.32696809513473574 rxn_smarts="[O:1]([c:2]1[n:3][n:4]([H:8])[c:5]([H:9])[n:6]1)[H:7]>>[O:1]([c:2]1[n:3]([H:8])[n:4][c:5]([H:9])[n:6]1)[H:7]"
O        2.07711104      -0.26009956      -0.17326000
C        0.75073279      -0.16566052      -0.19714103
N        0.10298687       0.99448422      -0.09800725
N       -1.25269280       0.62994576      -0.02107551
C       -1.24817460      -0.69402308      -0.08435460
N       -0.04297317      -1.22414303      -0.29145921
H        2.44991602       0.60854614       0.00246277
H       -0.67950910       1.38004369       0.84880526
H       -2.15739706      -1.26909361       0.01402957
9
Frame=9 idx=000404 GeodesicLength=0.3678579823143413 rxn_smarts="[O:1]([c:2]1[n:3][n:4]([H:8])[c:5]([H:9])[n:6]1)[H:7]>>[O:1]([c:2]1[n:3]([H:8])[n:4][c:5]([H:9])[n:6]1)[H:7]"
O        2.07725656      -0.26011149      -0.17736399
C        0.75048646      -0.16707758      -0.20782580
N        0.09945138       0.98981930      -0.09913356
N       -1.24843602       0.62546190      -0.01467080
C       -1.24724670      -0.69740919      -0.08483048
N       -0.04305018      -1.22525388      -0.30736179
H        2.44816322       0.60461204       0.01988121
H       -0.68172163       1.40281905       0.84703574
H       -2.15490310      -1.27286015       0.02426947
9
Frame=10 idx=000404 GeodesicLength=0.40875976745595816 rxn_smarts="[O:1]([c:2]1[n:3][n:4]([H:8])[c:5]([H:9])[n:6]1)[H:7]>>[O:1]([c:2]1[n:3]([H:8])[n:4][c:5]([H:9])[n:6]1)[H:7]"
O        2.07741988      -0.26032709      -0.18076344
C        0.75030203      -0.16851713      -0.21771276
N        0.09607575       0.98508742      -0.09913119
N       -1.24405468       0.62085242      -0.00758802
C       -1.24626935      -0.70087613      -0.08539748
N       -0.04312422      -1.22631379      -0.32291985
H        2.44652264       0.60056062       0.03533451
H       -0.68452923       1.42629332       0.84486096
H       -2.15234282      -1.27675964       0.03331726
9
Frame=11 idx=000404 GeodesicLength=0.4496082769318534 rxn_smarts="[O:1]([c:2]1[n:3][n:4]([H:8])[c:5]([H:9])[n:6]1)[H:7]>>[O:1]([c:2]1[n:3]([H:8])[n:4][c:5]([H:9])[n:6]1)[H:7]"
O        2.07763433      -0.26087833      -0.18321732
C        0.75020587      -0.17007093      -0.22632262
N        0.09287227       0.98011072      -0.09757795
N       -1.23955390       0.61601233       0.00038369
C       -1.24527918      -0.70436980      -0.08615005
N       -0.04315683      -1.22731120      -0.33780403
H        2.44516254       0.59665248       0.04792683
H       -0.68802116       1.45058297       0.84218974
H       -2.14986394      -1.28072824       0.04057170
9
Frame=12 idx=000404 GeodesicLength=0.4903849519382014 rxn_smarts="[O:1]([c:2]1[n:3][n:4]([H:8])[c:5]([H:9])[n:6]1)[H:7]>>[O:1]([c:2]1[n:3]([H:8])[n:4][c:5]([H:9])[n:6]1)[H:7]"
O        2.07788162      -0.26174099      -0.18494298
C        0.75016841      -0.17168652      -0.23419947
N        0.08984635       0.97501746      -0.09482992
N       -1.23492075       0.61098179       0.00928133
C       -1.24429110      -0.70796321      -0.08699447
N       -0.04323310      -1.22824786      -0.35252683
H        2.44408459       0.59284198       0.05865997
H       -0.69209308       1.47565062       0.83887575
H       -2.14744295      -1.28485327       0.04667663
9
Frame=13 idx=000404 GeodesicLength=0.5313028659457086 rxn_smarts="[O:1]([c:2]1[n:3][n:4]([H:8])[c:5]([H:9])[n:6]1)[H:7]>>[O:1]([c:2]1[n:3]([H:8])[n:4][c:5]([H:9])[n:6]1)[H:7]"
O        2.07809222      -0.26268206      -0.18693725
C        0.75015064      -0.17317192      -0.24218472
N        0.08689422       0.96984917      -0.09139203
N       -1.23016046       0.60570338       0.01912011
C       -1.24322508      -0.71162901      -0.08790577
N       -0.04334680      -1.22891075      -0.36775807
H        2.44292148       0.58850757       0.06967613
H       -0.69660120       1.50162105       0.83454706
H       -2.14472501      -1.28928744       0.05283453
9
Frame=14 idx=000404 GeodesicLength=0.5719449397609567 rxn_smarts="[O:1]([c:2]1[n:3][n:4]([H:8])[c:5]([H:9])[n:6]1)[H:7]>>[O:1]([c:2]1[n:3]([H:8])[n:4][c:5]([H:9])[n:6]1)[H:7]"
O        2.07828165      -0.26418459      -0.18754319
C        0.75016860      -0.17482275      -0.24891324
N        0.08414817       0.96441617      -0.08624543
N       -1.22521877       0.60013300       0.03023349
C       -1.24220060      -0.71531779      -0.08917985
N       -0.04352324      -1.22942066      -0.38287351
H        2.44225479       0.58460937       0.07771741
H       -0.70181153       1.52840482       0.82932218
H       -2.14209906      -1.29381757       0.05748215
9
Frame=15 idx=000404 GeodesicLength=0.6126213636168131 rxn_smarts="[O:1]([c:2]1[n:3][n:4]([H:8])[c:5]([H:9])[n:6]1)[H:7]>>[O:1]([c:2]1[n:3]([H:8])[n:4][c:5]([H:9])[n:6]1)[H:7]"
O        2.07847855      -0.26600699      -0.18775272
C        0.75023866      -0.17644082      -0.25527739
N        0.08157089       0.95881749      -0.07985142
N       -1.22009863       0.59423702       0.04266845
C       -1.24120544      -0.71905326      -0.09074042
N       -0.04378269      -1.22965619      -0.39843966
H        2.44184093       0.58056923       0.08482944
H       -0.70768602       1.55616255       0.82287145
H       -2.13935624      -1.29862903       0.06169229
9
Frame=16 idx=000404 GeodesicLength=0.6533739150578902 rxn_smarts="[O:1]([c:2]1[n:3][n:4]([H:8])[c:5]([H:9])[n:6]1)[H:7]>>[O:1]([c:2]1[n:3]([H:8])[n:4][c:5]([H:9])[n:6]1)[H:7]"
O        2.07860152      -0.26814565      -0.18779273
C        0.75029969      -0.17794783      -0.26167041
N        0.07912393       0.95306105      -0.07232195
N       -1.21475167       0.58792431       0.05671098
C       -1.24021899      -0.72281209      -0.09268459
N       -0.04420695      -1.22943245      -0.41508821
H        2.44155197       0.57614608       0.09192919
H       -0.71418166       1.58506701       0.81477484
H       -2.13621783      -1.30386044       0.06614287
