13
Frame=0 idx=008515 GeodesicLength=0.0 rxn_smarts="[O:1]=[C:2]1[C:3]([H:8])([H:9])[O:4][C@@:5]2([H:10])[C:6]([H:11])([H:12])[C@@:7]12[H:13]>>[O:1]=[C:2]([C:3]([O+:4]=[C-:5][H:10])([H:8])[H:9])[C:7](=[C:6]([H:11])[H:12])[H:13]"
O        1.16909327       1.92464191       0.87396006
C        0.68687048       0.93955934       0.38840383
C        1.56393836      -0.16039739      -0.20705045
O        0.71200496      -1.15495657      -0.76080043
C       -0.28010936      -0.57925170      -1.40936878
C       -1.49575928      -0.26066522       0.82888014
C       -0.80131008       0.74457386       0.26981797
H        2.18791423      -0.62578591       0.55555102
H        2.19272505       0.28599916      -0.97878331
H       -1.02957933      -1.37942931      -1.58496073
H       -1.01168058      -1.12128087       1.27369538
H       -2.57698450      -0.22949035       0.86484070
H       -1.31712322       1.61648308      -0.11418546
13
Frame=1 idx=008515 GeodesicLength=0.0477660602770937 rxn_smarts="[O:1]=[C:2]1[C:3]([H:8])([H:9])[O:4][C@@:5]2([H:10])[C:6]([H:11])([H:12])[C@@:7]12[H:13]>>[O:1]=[C:2]([C:3]([O+:4]=[C-:5][H:10])([H:8])[H:9])[C:7](=[C:6]([H:11])[H:12])[H:13]"
O        1.17328474       1.93485617       0.85991693
C        0.68746486       0.94499099       0.38755969
C        1.55894680      -0.16207938      -0.20244247
O        0.70989093      -1.15386897      -0.76587538
C       -0.29644540      -0.57923847      -1.39625146
C       -1.48827781      -0.26949968       0.81518131
C       -0.79939365       0.75162669       0.26756761
H        2.17260385      -0.63121740       0.56659151
H        2.19681856       0.27897458      -0.96964756
H       -1.02907388      -1.38586646      -1.60295326
H       -0.99651739      -1.11726541       1.27602262
H       -2.56902781      -0.23932259       0.86328687
H       -1.32027380       1.62790992      -0.09895639
13
Frame=2 idx=008515 GeodesicLength=0.0955088020682183 rxn_smarts="[O:1]=[C:2]1[C:3]([H:8])([H:9])[O:4][C@@:5]2([H:10])[C:6]([H:11])([H:12])[C@@:7]12[H:13]>>[O:1]=[C:2]([C:3]([O+:4]=[C-:5][H:10])([H:8])[H:9])[C:7](=[C:6]([H:11])[H:12])[H:13]"
O        1.17729653       1.94513116       0.84507086
C        0.68796041       0.95041699       0.38642413
C        1.55393418      -0.16381985      -0.19775524
O        0.70784511      -1.15273040      -0.77103154
C       -0.31250705      -0.57962839      -1.38315273
C       -1.48063418      -0.27809519       0.80219137
C       -0.79756288       0.75837127       0.26524152
H        2.15687322      -0.63658924       0.57787309
H        2.20113263       0.27169116      -0.96016196
H       -1.02826852      -1.39099221      -1.62150525
H       -0.98166240      -1.11326017       1.27813946
H       -2.56079728      -0.24912811       0.86231438
H       -1.32360978       1.63863298      -0.08364809
13
Frame=3 idx=008515 GeodesicLength=0.14322937496548455 rxn_smarts="[O:1]=[C:2]1[C:3]([H:8])([H:9])[O:4][C@@:5]2([H:10])[C:6]([H:11])([H:12])[C@@:7]12[H:13]>>[O:1]=[C:2]([C:3]([O+:4]=[C-:5][H:10])([H:8])[H:9])[C:7](=[C:6]([H:11])[H:12])[H:13]"
O        1.18113603       1.95541464       0.82950298
C        0.68836897       0.95581630       0.38503124
C        1.54891891      -0.16560643      -0.19300403
O        0.70586345      -1.15155764      -0.77621895
C       -0.32830076      -0.58045948      -1.37004665
C       -1.47287031      -0.28645649       0.78989590
C       -0.79581652       0.76481643       0.26281112
H        2.14081836      -0.64186752       0.58933003
H        2.20562290       0.26419969      -0.95036465
H       -1.02720983      -1.39479712      -1.64056360
H       -0.96710344      -1.10927407       1.28010240
H       -2.55234373      -0.25890561       0.86183871
H       -1.32708402       1.64867728      -0.06831450
13
Frame=4 idx=008515 GeodesicLength=0.19093954588183382 rxn_smarts="[O:1]=[C:2]1[C:3]([H:8])([H:9])[O:4][C@@:5]2([H:10])[C:6]([H:11])([H:12])[C@@:7]12[H:13]>>[O:1]=[C:2]([C:3]([O+:4]=[C-:5][H:10])([H:8])[H:9])[C:7](=[C:6]([H:11])[H:12])[H:13]"
O        1.18479920       1.96569374       0.81316760
C        0.68868732       0.96118791       0.38337133
C        1.54389611      -0.16744347      -0.18818376
O        0.70394471      -1.15035767      -0.78143383
C       -0.34383184      -0.58172710      -1.35692776
C       -1.46499420      -0.29460197       0.77829485
C       -0.79415827       0.77097386       0.26026147
H        2.12441375      -0.64705355       0.60096841
H        2.21029215       0.25648830      -0.94023669
H       -1.02589877      -1.39725050      -1.66013484
H       -0.95277420      -1.10531248       1.28196393
H       -2.54368785      -0.26867608       0.86181892
H       -1.33068813       1.65807900      -0.05292963
13
Frame=5 idx=008515 GeodesicLength=0.23865659185645044 rxn_smarts="[O:1]=[C:2]1[C:3]([H:8])([H:9])[O:4][C@@:5]2([H:10])[C:6]([H:11])([H:12])[C@@:7]12[H:13]>>[O:1]=[C:2]([C:3]([O+:4]=[C-:5][H:10])([H:8])[H:9])[C:7](=[C:6]([H:11])[H:12])[H:13]"
O        1.18828243       1.97598665       0.79599610
C        0.68891384       0.96653446       0.38143417
C        1.53885984      -0.16934369      -0.18328611
O        0.70208717      -1.14911436      -0.78666710
C       -0.35910332      -0.58343010      -1.34379331
C       -1.45701276      -0.30255263       0.76738026
C       -0.79259129       0.77685377       0.25757135
H        2.10762310      -0.65215229       0.61279654
H        2.21514665       0.24850704      -0.92975177
H       -1.02432691      -1.39826273      -1.68019173
H       -0.93862663      -1.10138032       1.28374602
H       -2.53483877      -0.27849471       0.86223699
H       -1.33441334       1.66684891      -0.03747139
13
Frame=6 idx=008515 GeodesicLength=0.28638988756576916 rxn_smarts="[O:1]=[C:2]1[C:3]([H:8])([H:9])[O:4][C@@:5]2([H:10])[C:6]([H:11])([H:12])[C@@:7]12[H:13]>>[O:1]=[C:2]([C:3]([O+:4]=[C-:5][H:10])([H:8])[H:9])[C:7](=[C:6]([H:11])[H:12])[H:13]"
O        1.19157470       1.98627034       0.77793043
C        0.68904423       0.97185428       0.37921118
C        1.53380249      -0.17130490      -0.17830093
O        0.70027670      -1.14784871      -0.79193296
C       -0.37413834      -0.58556652      -1.33064205
C       -1.44892090      -0.31032821       0.75713832
C       -0.79112449       0.78245986       0.25473457
H        2.09041956      -0.65714970       0.62483858
H        2.22018705       0.24026374      -0.91887948
H       -1.02247734      -1.39785647      -1.70078266
H       -0.92461395      -1.09749462       1.28549640
H       -2.52578365      -0.28833720       0.86307436
H       -1.33824606       1.67503810      -0.02188576
13
Frame=7 idx=008515 GeodesicLength=0.33415828834181843 rxn_smarts="[O:1]=[C:2]1[C:3]([H:8])([H:9])[O:4][C@@:5]2([H:10])[C:6]([H:11])([H:12])[C@@:7]12[H:13]>>[O:1]=[C:2]([C:3]([O+:4]=[C-:5][H:10])([H:8])[H:9])[C:7](=[C:6]([H:11])[H:12])[H:13]"
O        1.19466292       1.99650590       0.75901710
C        0.68907784       0.97712093       0.37672604
C        1.52873428      -0.17333044      -0.17323587
O        0.69852759      -1.14655910      -0.79714811
C       -0.38891488      -0.58818486      -1.31743902
C       -1.44075206      -0.31794744       0.74754193
C       -0.78975088       0.78779173       0.25171042
H        2.07288458      -0.66203168       0.63702656
H        2.22535175       0.23176026      -0.90765321
H       -1.02037160      -1.39586897      -1.72184456
H       -0.91071439      -1.09362661       1.28725584
H       -2.51657927      -0.29823104       0.86430857
H       -1.34215589       1.68260133      -0.00626569
13
Frame=8 idx=008515 GeodesicLength=0.381974479570351 rxn_smarts="[O:1]=[C:2]1[C:3]([H:8])([H:9])[O:4][C@@:5]2([H:10])[C:6]([H:11])([H:12])[C@@:7]12[H:13]>>[O:1]=[C:2]([C:3]([O+:4]=[C-:5][H:10])([H:8])[H:9])[C:7](=[C:6]([H:11])[H:12])[H:13]"
O        1.19755462       2.00669272       0.73920123
C        0.68901779       0.98233962       0.37397314
C        1.52365219      -0.17542299      -0.16808604
O        0.69683258      -1.14528207      -0.80232099
C       -0.40345393      -0.59130505      -1.30418361
C       -1.43252233      -0.32544283       0.73858795
C       -0.78848110       0.79285527       0.24849132
H        2.05499658      -0.66677283       0.64937780
H        2.23064421       0.22299176      -0.89605901
H       -1.01796087      -1.39228607      -1.74343768
H       -0.89691036      -1.08979285       1.28906609
H       -2.50723334      -0.30815978       0.86595237
H       -1.34613604       1.68958509       0.00943742
13
Frame=9 idx=008515 GeodesicLength=0.4298158777697984 rxn_smarts="[O:1]=[C:2]1[C:3]([H:8])([H:9])[O:4][C@@:5]2([H:10])[C:6]([H:11])([H:12])[C@@:7]12[H:13]>>[O:1]=[C:2]([C:3]([O+:4]=[C-:5][H:10])([H:8])[H:9])[C:7](=[C:6]([H:11])[H:12])[H:13]"
O        1.20019799       2.01679263       0.71835197
C        0.68884085       0.98748396       0.37093749
C        1.51855507      -0.17758617      -0.16283094
O        0.69519211      -1.14402704      -0.80742171
C       -0.41773103      -0.59494134      -1.29083522
C       -1.42422712      -0.33282172       0.73024716
C       -0.78732036       0.79762690       0.24507361
H        2.03674491      -0.67136292       0.66191767
H        2.23607210       0.21395599      -0.88406050
H       -1.01526485      -1.38699603      -1.76564842
H       -0.88315176      -1.08597888       1.29098741
H       -2.49773948      -0.31811074       0.86800873
H       -1.35016844       1.69596537       0.02527274
13
Frame=10 idx=008515 GeodesicLength=0.47765947172314255 rxn_smarts="[O:1]=[C:2]1[C:3]([H:8])([H:9])[O:4][C@@:5]2([H:10])[C:6]([H:11])([H:12])[C@@:7]12[H:13]>>[O:1]=[C:2]([C:3]([O+:4]=[C-:5][H:10])([H:8])[H:9])[C:7](=[C:6]([H:11])[H:12])[H:13]"
O        1.20260900       2.02680988       0.69648329
C        0.68855102       0.99257493       0.36761439
C        1.51342559      -0.17982279      -0.15747745
O        0.69357580      -1.14279780      -0.81248376
C       -0.43180431      -0.59908910      -1.27744719
C       -1.41584227      -0.34010439       0.72254522
C       -0.78629303       0.80211570       0.24144609
H        2.01810215      -0.67580707       0.67464421
H        2.24160997       0.20465062      -0.87165394
H       -1.01218291      -1.38000234      -1.78836406
H       -0.86945973      -1.08222071       1.29300880
H       -2.48808948      -0.32811975       0.87046715
H       -1.35420181       1.70181281       0.04121725
13
Frame=11 idx=008515 GeodesicLength=0.5257388617746328 rxn_smarts="[O:1]=[C:2]1[C:3]([H:8])([H:9])[O:4][C@@:5]2([H:10])[C:6]([H:11])([H:12])[C@@:7]12[H:13]>>[O:1]=[C:2]([C:3]([O+:4]=[C-:5][H:10])([H:8])[H:9])[C:7](=[C:6]([H:11])[H:12])[H:13]"
O        1.20484272       2.03683185       0.67339099
C        0.68818069       0.99759665       0.36402434
C        1.50827689      -0.18217970      -0.15200674
O        0.69204582      -1.14159467      -0.81740136
C       -0.44563807      -0.60382728      -1.26400528
C       -1.40748942      -0.34743763       0.71544270
C       -0.78535950       0.80635273       0.23753683
H        1.99908173      -0.68011217       0.68751932
H        2.24722199       0.19492851      -0.85882500
H       -1.00862238      -1.37073307      -1.81145943
H       -0.85580728      -1.07847635       1.29518074
H       -2.47841312      -0.33832954       0.87341304
H       -1.35832007       1.70698068       0.05718985
13
Frame=12 idx=008515 GeodesicLength=0.573667211623092 rxn_smarts="[O:1]=[C:2]1[C:3]([H:8])([H:9])[O:4][C@@:5]2([H:10])[C:6]([H:11])([H:12])[C@@:7]12[H:13]>>[O:1]=[C:2]([C:3]([O+:4]=[C-:5][H:10])([H:8])[H:9])[C:7](=[C:6]([H:11])[H:12])[H:13]"
O        1.20664197       2.04646269       0.64932610
C        0.68760512       1.00246632       0.36010288
C        1.50309187      -0.18460187      -0.14645798
O        0.69055109      -1.14050407      -0.82214505
C       -0.45921644      -0.60920055      -1.25032429
C       -1.39902227      -0.35457872       0.70891569
C       -0.78461052       0.81021411       0.23340603
H        1.97979676      -0.68416124       0.70048481
H        2.25283581       0.18501211      -0.84564157
H       -1.00459767      -1.35960855      -1.83523107
H       -0.84216775      -1.07469111       1.29753083
H       -2.46851930      -0.34837017       0.87674324
H       -1.36238867       1.71156105       0.07329038
13
Frame=13 idx=008515 GeodesicLength=0.6217378692069685 rxn_smarts="[O:1]=[C:2]1[C:3]([H:8])([H:9])[O:4][C@@:5]2([H:10])[C:6]([H:11])([H:12])[C@@:7]12[H:13]>>[O:1]=[C:2]([C:3]([O+:4]=[C-:5][H:10])([H:8])[H:9])[C:7](=[C:6]([H:11])[H:12])[H:13]"
O        1.20814367       2.05589262       0.62412916
C        0.68689343       1.00721759       0.35588274
C        1.49787521      -0.18713176      -0.14079851
O        0.68908072      -1.13957836      -0.82663925
C       -0.47260354      -0.61530054      -1.23647276
C       -1.39054196      -0.36173528       0.70299598
C       -0.78400914       0.81375913       0.22897665
H        1.96027239      -0.68797174       0.71358942
H        2.25841025       0.17478904      -0.83211764
H       -1.00000089      -1.34606686      -1.85958508
H       -0.82854907      -1.07090717       1.30015546
H       -2.45852365      -0.35847065       0.88056316
H       -1.36644740       1.71550398       0.08932069
13
Frame=14 idx=008515 GeodesicLength=0.6698515116752176 rxn_smarts="[O:1]=[C:2]1[C:3]([H:8])([H:9])[O:4][C@@:5]2([H:10])[C:6]([H:11])([H:12])[C@@:7]12[H:13]>>[O:1]=[C:2]([C:3]([O+:4]=[C-:5][H:10])([H:8])[H:9])[C:7](=[C:6]([H:11])[H:12])[H:13]"
O        1.20931117       2.06502650       0.59785985
C        0.68602859       1.01182288       0.35134781
C        1.49264098      -0.18976699      -0.13505189
O        0.68764945      -1.13887303      -0.83082927
C       -0.48577208      -0.62221683      -1.22241020
C       -1.38208470      -0.36890580       0.69768828
C       -0.78356771       0.81694911       0.22422568
H        1.94058695      -0.69150024       0.72677433
H        2.26390833       0.16429394      -0.81831623
H       -0.99477590      -1.32990811      -1.88446393
H       -0.81497421      -1.06709110       1.30309865
H       -2.44847847      -0.36859351       0.88488871
H       -1.37047239       1.71876318       0.10518821
13
Frame=15 idx=008515 GeodesicLength=0.7180028829617484 rxn_smarts="[O:1]=[C:2]1[C:3]([H:8])([H:9])[O:4][C@@:5]2([H:10])[C:6]([H:11])([H:12])[C@@:7]12[H:13]>>[O:1]=[C:2]([C:3]([O+:4]=[C-:5][H:10])([H:8])[H:9])[C:7](=[C:6]([H:11])[H:12])[H:13]"
O        1.21010097       2.07377894       0.57056429
C        0.68498791       1.01625164       0.34647300
C        1.48738293      -0.19251928      -0.12923133
O        0.68624280      -1.13845655      -0.83464421
C       -0.49874107      -0.63004013      -1.20809393
C       -1.37365337      -0.37610677       0.69299908
C       -0.78330374       0.81975177       0.21912161
H        1.92081306      -0.69471189       0.74000920
H        2.26925738       0.15353845      -0.80429997
H       -0.98881252      -1.31084548      -1.90980155
H       -0.80144244      -1.06322667       1.30640938
H       -2.43838120      -0.37872215       0.88974380
H       -1.37445069       1.72130810       0.12075063
13
Frame=16 idx=008515 GeodesicLength=0.7661766345542117 rxn_smarts="[O:1]=[C:2]1[C:3]([H:8])([H:9])[O:4][C@@:5]2([H:10])[C:6]([H:11])([H:12])[C@@:7]12[H:13]>>[O:1]=[C:2]([C:3]([O+:4]=[C-:5][H:10])([H:8])[H:9])[C:7](=[C:6]([H:11])[H:12])[H:13]"
O        1.21047156       2.08206206       0.54228628
C        0.68374632       1.02046940       0.34121637
C        1.48209906      -0.19540468      -0.12335268
O        0.68484943      -1.13841400      -0.83800769
C       -0.51152657      -0.63888286      -1.19347443
C       -1.36525845      -0.38336249       0.68894405
C       -0.78323851       0.82211938       0.21363087
H        1.90102759      -0.69756791       0.75326733
H        2.27439201       0.14252997      -0.79014161
H       -0.98198612      -1.28850951      -1.93551648
H       -0.78794986      -1.05928979       1.31014795
H       -2.42824196      -0.38884402       0.89516504
H       -1.37838449       1.72309445       0.13583501
