16
Frame=0 idx=004285 GeodesicLength=0.0 rxn_smarts="[C:1]([C@@:2]1([H:10])[C:3]([H:11])([H:12])[O:4][C@:5]1([C:6]([H:14])([H:15])[H:16])[H:13])([H:7])([H:8])[H:9]>>[C:1]([C@@:2]1([H:10])[C-:3]=[O+:4][C@:5]1([C:6]([H:14])([H:15])[H:16])[H:13])([H:7])([H:8])[H:9].[H:11][H:12]"
C       -1.56536340       0.63240479      -0.11258139
C       -0.58666170      -0.09666866       0.77680474
C       -0.23986078      -1.57259549       0.59851605
O        1.08638435      -1.34580906       0.72238757
C        0.94298192       0.10561474       0.67325902
C        1.49686214       0.65657014      -0.61272264
H       -1.69072336       1.66986937       0.20507307
H       -2.54349618       0.15042430      -0.06400395
H       -1.24613013       0.62276594      -1.15586760
H       -0.89364408       0.01203382       1.82167330
H       -0.48078290      -1.59851709      -1.14622582
H       -0.62115895      -2.18689303      -0.43734006
H        1.42417627       0.55591303       1.54424329
H        2.57917807       0.52802804      -0.64168661
H        1.27204208       1.72179690      -0.69464114
H        1.06619666       0.14506229      -1.47688786
16
Frame=1 idx=004285 GeodesicLength=0.06639967048102993 rxn_smarts="[C:1]([C@@:2]1([H:10])[C:3]([H:11])([H:12])[O:4][C@:5]1([C:6]([H:14])([H:15])[H:16])[H:13])([H:7])([H:8])[H:9]>>[C:1]([C@@:2]1([H:10])[C-:3]=[O+:4][C@:5]1([C:6]([H:14])([H:15])[H:16])[H:13])([H:7])([H:8])[H:9].[H:11][H:12]"
C       -1.56028925       0.63245321      -0.11672768
C       -0.58377187      -0.09527925       0.77646260
C       -0.23787624      -1.57004849       0.59070439
O        1.09035012      -1.34407209       0.70643478
C        0.94546949       0.10710577       0.67063587
C        1.50085442       0.67353122      -0.60802180
H       -1.67678788       1.67410105       0.19039953
H       -2.54197360       0.15869719      -0.05919154
H       -1.24639569       0.60975969      -1.16139563
H       -0.89318154       0.01481247       1.82038287
H       -0.50208089      -1.64116065      -1.14108670
H       -0.65163059      -2.22522186      -0.42284789
H        1.42642634       0.54805418       1.54675231
H        2.58283979       0.54227533      -0.63870756
H        1.27950049       1.74052258      -0.67532733
H        1.06854690       0.17446966      -1.47846624
16
Frame=2 idx=004285 GeodesicLength=0.13281326711513894 rxn_smarts="[C:1]([C@@:2]1([H:10])[C:3]([H:11])([H:12])[O:4][C@:5]1([C:6]([H:14])([H:15])[H:16])[H:13])([H:7])([H:8])[H:9]>>[C:1]([C@@:2]1([H:10])[C-:3]=[O+:4][C@:5]1([C:6]([H:14])([H:15])[H:16])[H:13])([H:7])([H:8])[H:9].[H:11][H:12]"
C       -1.55497267       0.63245696      -0.12132483
C       -0.58070646      -0.09396303       0.77573394
C       -0.23578764      -1.56753560       0.58199001
O        1.09440108      -1.34230055       0.68905675
C        0.94813332       0.10853209       0.66771248
C        1.50501086       0.69124618      -0.60301881
H       -1.66262866       1.67810073       0.17524101
H       -2.54013542       0.16708827      -0.05502705
H       -1.24629435       0.59670236      -1.16715746
H       -0.89263301       0.01724126       1.81869774
H       -0.52528842      -1.68547489      -1.13468016
H       -0.68292271      -2.26402642      -0.40591763
H        1.42891176       0.53940673       1.54915959
H        2.58666007       0.55734070      -0.63558883
H        1.28713298       1.75983068      -0.65493047
H        1.07111928       0.20535450      -1.47994628
16
Frame=3 idx=004285 GeodesicLength=0.19920861097248205 rxn_smarts="[C:1]([C@@:2]1([H:10])[C:3]([H:11])([H:12])[O:4][C@:5]1([C:6]([H:14])([H:15])[H:16])[H:13])([H:7])([H:8])[H:9]>>[C:1]([C@@:2]1([H:10])[C-:3]=[O+:4][C@:5]1([C:6]([H:14])([H:15])[H:16])[H:13])([H:7])([H:8])[H:9].[H:11][H:12]"
C       -1.54940630       0.63241357      -0.12641202
C       -0.57746548      -0.09274378       0.77456949
C       -0.23360708      -1.56506793       0.57229362
O        1.09851655      -1.34048954       0.67010733
C        0.95097571       0.10986578       0.66445179
C        1.50932924       0.70974777      -0.59768125
H       -1.64823639       1.68185813       0.15958645
H       -2.53797358       0.17558382      -0.05157757
H       -1.24580001       0.58362193      -1.17319045
H       -0.89199627       0.01929723       1.81656850
H       -0.55050791      -1.73150450      -1.12685192
H       -0.71495446      -2.30326569      -0.38632924
H        1.43164205       0.52987096       1.55142947
H        2.59063561       0.57325702      -0.63231872
H        1.29494507       1.77972558      -0.63334668
H        1.07390324       0.23782964      -1.48129881
16
Frame=4 idx=004285 GeodesicLength=0.265546912486253 rxn_smarts="[C:1]([C@@:2]1([H:10])[C:3]([H:11])([H:12])[O:4][C@:5]1([C:6]([H:14])([H:15])[H:16])[H:13])([H:7])([H:8])[H:9]>>[C:1]([C@@:2]1([H:10])[C-:3]=[O+:4][C@:5]1([C:6]([H:14])([H:15])[H:16])[H:13])([H:7])([H:8])[H:9].[H:11][H:12]"
C       -1.54358220       0.63232413      -0.13203464
C       -0.57405286      -0.09164711       0.77291268
C       -0.23134314      -1.56265821       0.56150450
O        1.10267399      -1.33863234       0.64942151
C        0.95399849       0.11107714       0.66081141
C        1.51380753       0.72907154      -0.59197291
H       -1.63360208       1.68536437       0.14342355
H       -2.53548090       0.18417468      -0.04891530
H       -1.24488292       0.57055758      -1.17953938
H       -0.89127727       0.02093972       1.81393979
H       -0.57784415      -1.77930138      -1.11739654
H       -0.74763433      -2.34289136      -0.36384090
H        1.43462593       0.51933514       1.55351586
H        2.59476350       0.59005978      -0.62888426
H        1.30294372       1.80020588      -0.61046008
H        1.07688668       0.27202045      -1.48248531
16
Frame=5 idx=004285 GeodesicLength=0.3316442304594077 rxn_smarts="[C:1]([C@@:2]1([H:10])[C:3]([H:11])([H:12])[O:4][C@:5]1([C:6]([H:14])([H:15])[H:16])[H:13])([H:7])([H:8])[H:9]>>[C:1]([C@@:2]1([H:10])[C-:3]=[O+:4][C@:5]1([C:6]([H:14])([H:15])[H:16])[H:13])([H:7])([H:8])[H:9].[H:11][H:12]"
C       -1.53749743       0.63219299      -0.13824235
C       -0.57046944      -0.09070993       0.77069329
C       -0.22902179      -1.56032679       0.54947981
O        1.10683922      -1.33671900       0.62684142
C        0.95719699       0.11212565       0.65673703
C        1.51843816       0.74923607      -0.58585896
H       -1.61872872       1.68861697       0.12676534
H       -2.53265293       0.19284988      -0.04713898
H       -1.24351862       0.55756561      -1.18624794
H       -0.89047461       0.02209765       1.81074324
H       -0.60738257      -1.82889868      -1.10607170
H       -0.78080953      -2.38277872      -0.33817783
H        1.43786759       0.50768569       1.55536550
H        2.59903272       0.60776318      -0.62527324
H        1.31113168       1.82125762      -0.58615248
H        1.08004927       0.30804182      -1.48346215
16
Frame=6 idx=004285 GeodesicLength=0.3975700908661152 rxn_smarts="[C:1]([C@@:2]1([H:10])[C:3]([H:11])([H:12])[O:4][C@:5]1([C:6]([H:14])([H:15])[H:16])[H:13])([H:7])([H:8])[H:9]>>[C:1]([C@@:2]1([H:10])[C-:3]=[O+:4][C@:5]1([C:6]([H:14])([H:15])[H:16])[H:13])([H:7])([H:8])[H:9].[H:11][H:12]"
C       -1.53115294       0.63203417      -0.14507594
C       -0.56673569      -0.08995968       0.76785072
C       -0.22666919      -1.55808268       0.53609557
O        1.11096254      -1.33473524       0.60218734
C        0.96056159       0.11297380       0.65217987
C        1.52320788       0.77025768      -0.57929848
H       -1.60360572       1.69161926       0.10960875
H       -2.52949585       0.20161521      -0.04631058
H       -1.24168710       0.54471032      -1.19336820
H       -0.88960792       0.02273787       1.80691822
H       -0.63915544      -1.88029706      -1.09265148
H       -0.81429384      -2.42288936      -0.30909635
H        1.44136771       0.49478579       1.55691341
H        2.60342834       0.62637767      -0.62147769
H        1.31951752       1.84284176      -0.56030305
H        1.08335811       0.34601048      -1.48417210
16
Frame=7 idx=004285 GeodesicLength=0.46324717925586306 rxn_smarts="[C:1]([C@@:2]1([H:10])[C:3]([H:11])([H:12])[O:4][C@:5]1([C:6]([H:14])([H:15])[H:16])[H:13])([H:7])([H:8])[H:9]>>[C:1]([C@@:2]1([H:10])[C-:3]=[O+:4][C@:5]1([C:6]([H:14])([H:15])[H:16])[H:13])([H:7])([H:8])[H:9].[H:11][H:12]"
C       -1.52455702       0.63187588      -0.15257978
C       -0.56286885      -0.08943726       0.76430345
C       -0.22433547      -1.55594170       0.52117196
O        1.11497800      -1.33266425       0.57529331
C        0.96407205       0.11357215       0.64707620
C        1.52809579       0.79213239      -0.57225408
H       -1.58823347       1.69438846       0.09199221
H       -2.52601794       0.21048561      -0.04651667
H       -1.23937822       0.53209517      -1.20095371
H       -0.88869037       0.02278376       1.80237908
H       -0.67313388      -1.93348578      -1.07686681
H       -0.84783434      -2.46311222      -0.27629458
H        1.44510824       0.48049700       1.55808300
H        2.60792410       0.64588227      -0.61749185
H        1.32810306       1.86489917      -0.53278568
H        1.08676831       0.38602936      -1.48455606
16
Frame=8 idx=004285 GeodesicLength=0.5286827607049637 rxn_smarts="[C:1]([C@@:2]1([H:10])[C:3]([H:11])([H:12])[O:4][C@:5]1([C:6]([H:14])([H:15])[H:16])[H:13])([H:7])([H:8])[H:9]>>[C:1]([C@@:2]1([H:10])[C-:3]=[O+:4][C@:5]1([C:6]([H:14])([H:15])[H:16])[H:13])([H:7])([H:8])[H:9].[H:11][H:12]"
C       -1.51771598       0.63175562      -0.16081312
C       -0.55888581      -0.08919026       0.75994711
C       -0.22206180      -1.55392259       0.50446312
O        1.11882869      -1.33049269       0.54596098
C        0.96770859       0.11386406       0.64134892
C        1.53308148       0.81485997      -0.56467751
H       -1.57261445       1.69695076       0.07396220
H       -2.52222002       0.21948223      -0.04786863
H       -1.23657299       0.51985304      -1.20908346
H       -0.88774471       0.02211922       1.79702165
H       -0.70931580      -1.98843955      -1.05836490
H       -0.88117290      -2.50335656      -0.23938974
H        1.44906317       0.46466146       1.55877664
H        2.61249786       0.66626834      -0.61329974
H        1.33687926       1.88736258      -0.50344173
H        1.09024544       0.42822438      -1.48454179
16
Frame=9 idx=004285 GeodesicLength=0.5940318034825178 rxn_smarts="[C:1]([C@@:2]1([H:10])[C:3]([H:11])([H:12])[O:4][C@:5]1([C:6]([H:14])([H:15])[H:16])[H:13])([H:7])([H:8])[H:9]>>[C:1]([C@@:2]1([H:10])[C-:3]=[O+:4][C@:5]1([C:6]([H:14])([H:15])[H:16])[H:13])([H:7])([H:8])[H:9].[H:11][H:12]"
C       -1.51064494       0.63164690      -0.16984580
C       -0.55482960      -0.08920586       0.75472319
C       -0.21985995      -1.55201798       0.48590591
O        1.12245020      -1.32815905       0.51389897
C        0.97147817       0.11379477       0.63491998
C        1.53817415       0.83845230      -0.55649499
H       -1.55680011       1.69927846       0.05545216
H       -2.51813331       0.22851877      -0.05048407
H       -1.23323406       0.50802429      -1.21781365
H       -0.88681336       0.02068886       1.79081170
H       -0.74775445      -2.04507584      -1.03645564
H       -0.91415596      -2.54343264      -0.19847590
H        1.45330688       0.44706195       1.55880944
H        2.61714710       0.68758380      -0.60887529
H        1.34588030       1.91010131      -0.47214064
H        1.09378895       0.47273999      -1.48393536
16
Frame=10 idx=004285 GeodesicLength=0.6590168885228371 rxn_smarts="[C:1]([C@@:2]1([H:10])[C:3]([H:11])([H:12])[O:4][C@:5]1([C:6]([H:14])([H:15])[H:16])[H:13])([H:7])([H:8])[H:9]>>[C:1]([C@@:2]1([H:10])[C-:3]=[O+:4][C@:5]1([C:6]([H:14])([H:15])[H:16])[H:13])([H:7])([H:8])[H:9].[H:11][H:12]"
C       -1.50338452       0.63166598      -0.17969354
C       -0.55075419      -0.08957864       0.74851424
C       -0.21788023      -1.55025337       0.46516929
O        1.12569872      -1.32565479       0.47905465
C        0.97529415       0.11328149       0.62771268
C        1.54330104       0.86278788      -0.54768432
H       -1.54076161       1.70147195       0.03663164
H       -2.51379498       0.23772842      -0.05442315
H       -1.22941417       0.49686054      -1.22721775
H       -0.88593825       0.01837278       1.78362045
H       -0.78817576      -2.10327504      -1.01108600
H       -0.94605070      -2.58313644      -0.15300455
H        1.45771207       0.42757133       1.55811811
H        2.62179581       0.70964323      -0.60423187
H        1.35507804       1.93295796      -0.43877347
H        1.09727457       0.51955672      -1.48270640
16
Frame=11 idx=004285 GeodesicLength=0.7236104755002916 rxn_smarts="[C:1]([C@@:2]1([H:10])[C:3]([H:11])([H:12])[O:4][C@:5]1([C:6]([H:14])([H:15])[H:16])[H:13])([H:7])([H:8])[H:9]>>[C:1]([C@@:2]1([H:10])[C-:3]=[O+:4][C@:5]1([C:6]([H:14])([H:15])[H:16])[H:13])([H:7])([H:8])[H:9].[H:11][H:12]"
C       -1.49598229       0.63189133      -0.19037709
C       -0.54673987      -0.09035010       0.74123240
C       -0.21625666      -1.54863033       0.44204804
O        1.12841696      -1.32294187       0.44130563
C        0.97908386       0.11224499       0.61964457
C        1.54841427       0.88775155      -0.53820594
H       -1.52451899       1.70359853       0.01760067
H       -2.50926224       0.24717497      -0.05975928
H       -1.22514889       0.48656558      -1.23734451
H       -0.88518585       0.01509086       1.77535557
H       -0.83030322      -2.16285171      -0.98189983
H       -0.97621412      -2.62224138      -0.10279978
H        1.46221475       0.40601581       1.55655398
H        2.62638016       0.73230210      -0.59937687
H        1.36448475       1.95571756      -0.40325903
H        1.10061737       0.56866212      -1.48071854
16
Frame=12 idx=004285 GeodesicLength=0.7878418119890467 rxn_smarts="[C:1]([C@@:2]1([H:10])[C:3]([H:11])([H:12])[O:4][C@:5]1([C:6]([H:14])([H:15])[H:16])[H:13])([H:7])([H:8])[H:9]>>[C:1]([C@@:2]1([H:10])[C-:3]=[O+:4][C@:5]1([C:6]([H:14])([H:15])[H:16])[H:13])([H:7])([H:8])[H:9].[H:11][H:12]"
C       -1.48848777       0.63242194      -0.20192234
C       -0.54287105      -0.09156516       0.73276444
C       -0.21513431      -1.54714727       0.41627528
O        1.13044322      -1.31998379       0.40051980
C        0.98276225       0.11059389       0.61061845
C        1.55345892       0.91320802      -0.52801163
H       -1.50808953       1.70574233      -0.00151436
H       -2.50458404       0.25693746      -0.06657513
H       -1.22047355       0.47738789      -1.24826631
H       -0.88463645       0.01073186       1.76590978
H       -0.87380938      -2.22359362      -0.94846575
H       -1.00395422      -2.66050312      -0.04765272
H        1.46671353       0.38222562       1.55393660
H        2.63082903       0.75539614      -0.59430645
H        1.37409454       1.97811470      -0.36549071
H        1.10373881       0.62003311      -1.47781897
16
Frame=13 idx=004285 GeodesicLength=0.8516828570428104 rxn_smarts="[C:1]([C@@:2]1([H:10])[C:3]([H:11])([H:12])[O:4][C@:5]1([C:6]([H:14])([H:15])[H:16])[H:13])([H:7])([H:8])[H:9]>>[C:1]([C@@:2]1([H:10])[C-:3]=[O+:4][C@:5]1([C:6]([H:14])([H:15])[H:16])[H:13])([H:7])([H:8])[H:9].[H:11][H:12]"
C       -1.48098246       0.63331796      -0.21437780
C       -0.53925822      -0.09324997       0.72302677
C       -0.21464428      -1.54578423       0.38765318
O        1.13164969      -1.31672298       0.35653863
C        0.98627576       0.10822322       0.60055631
C        1.55842089       0.93901718      -0.51703570
H       -1.49154163       1.70796106      -0.02067263
H       -2.49987839       0.26704070      -0.07498387
H       -1.21545302       0.46951418      -1.26004060
H       -0.88438427       0.00518446       1.75522462
H       -0.91847368      -2.28527443      -0.91016680
H       -1.02858806      -2.69754997       0.01238070
H        1.47120333       0.35599531       1.55007361
H        2.63512912       0.77879264      -0.58898803
H        1.38393176       1.99988156      -0.32540400
H        1.10659347       0.67365330      -1.47378437
16
Frame=14 idx=004285 GeodesicLength=0.9150845303633239 rxn_smarts="[C:1]([C@@:2]1([H:10])[C:3]([H:11])([H:12])[O:4][C@:5]1([C:6]([H:14])([H:15])[H:16])[H:13])([H:7])([H:8])[H:9]>>[C:1]([C@@:2]1([H:10])[C-:3]=[O+:4][C@:5]1([C:6]([H:14])([H:15])[H:16])[H:13])([H:7])([H:8])[H:9].[H:11][H:12]"
C       -1.47355824       0.63479681      -0.22771835
C       -0.53605642      -0.09546422       0.71190064
C       -0.21510224      -1.54451947       0.35588217
O        1.13172829      -1.31314972       0.30938480
C        0.98943835       0.10501529       0.58935556
C        1.56319691       0.96489542      -0.50526580
H       -1.47487254       1.71045340      -0.03961730
H       -2.49523198       0.27772406      -0.08499988
H       -1.21020429       0.46334375      -1.27274733
H       -0.88456693      -0.00163332       1.74317375
H       -0.96353320      -2.34754310      -0.86677003
H       -1.04886631      -2.73310635       0.07753463
H        1.47543550       0.32714701       1.54479885
H        2.63914433       0.80211534      -0.58345491
H        1.39400451       2.02062255      -0.28296230
H        1.10904424       0.72930254      -1.46849451
16
Frame=15 idx=004285 GeodesicLength=0.9780778570055255 rxn_smarts="[C:1]([C@@:2]1([H:10])[C:3]([H:11])([H:12])[O:4][C@:5]1([C:6]([H:14])([H:15])[H:16])[H:13])([H:7])([H:8])[H:9]>>[C:1]([C@@:2]1([H:10])[C-:3]=[O+:4][C@:5]1([C:6]([H:14])([H:15])[H:16])[H:13])([H:7])([H:8])[H:9].[H:11][H:12]"
C       -1.46633491       0.63702400      -0.24190400
C       -0.53344104      -0.09821657       0.69933040
C       -0.21681783      -1.54330006       0.32085470
O        1.13038541      -1.30923679       0.25913894
C        0.99207712       0.10085727       0.57695022
C        1.56771167       0.99051743      -0.49268753
H       -1.45812803       1.71337677      -0.05816848
H       -2.49077857       0.28915955      -0.09662020
H       -1.20487786       0.45917315      -1.28639935
H       -0.88532197      -0.00973966       1.72970315
H       -1.00815486      -2.40996022      -0.81796993
H       -1.06365738      -2.76676975       0.14756782
H        1.47923151       0.29555791       1.53791266
H        2.64276725       0.82498384      -0.57772348
H        1.40434035       2.03989992      -0.23823700
H        1.11099913       0.78667322      -1.46174791
16
Frame=16 idx=004285 GeodesicLength=1.0407237086996173 rxn_smarts="[C:1]([C@@:2]1([H:10])[C:3]([H:11])([H:12])[O:4][C@:5]1([C:6]([H:14])([H:15])[H:16])[H:13])([H:7])([H:8])[H:9]>>[C:1]([C@@:2]1([H:10])[C-:3]=[O+:4][C@:5]1([C:6]([H:14])([H:15])[H:16])[H:13])([H:7])([H:8])[H:9].[H:11][H:12]"
C       -1.45944203       0.64017338      -0.25690550
C       -0.53162219      -0.10150373       0.68526515
C       -0.22013277      -1.54207031       0.28246544
O        1.12731903      -1.30497080       0.20583628
C        0.99401592       0.09562020       0.56327680
C        1.57190061       1.01554717      -0.47927821
H       -1.44135913       1.71689025      -0.07616915
H       -2.48667535       0.30153490      -0.10985625
H       -1.19962192       0.45729703      -1.30101522
H       -0.88683580      -0.01911715       1.71478136
H       -1.05145971      -2.47208502      -0.76340163
H       -1.07176793      -2.79809568       0.22219541
H        1.48240156       0.26107205       1.52922130
H        2.64591220       0.84700836      -0.57179670
H        1.41497562       2.05724450      -0.19128574
H        1.11239190       0.84545483      -1.45333335
