11
Frame=0 idx=010783 GeodesicLength=0.0 rxn_smarts="[O:1]=[C:2]([C:3]1([C:6](=[O:7])[H:11])[C:4]([H:9])([H:10])[O:5]1)[H:8]>>[O:1]([C:2][C@@:3]1([C:6](=[O:7])[H:11])[C:4]([H:9])([H:10])[O:5]1)[H:8]"
O       -2.00886648       1.11474072       0.19779584
C       -0.72416023       1.24653462       0.18496826
C        0.06355073       0.04267028      -0.19358889
C       -0.17892756      -1.17571971       0.61155755
O       -0.65876234      -1.07364235      -0.69561778
C        1.43480191       0.20497264      -0.78032114
O        2.07952439       1.20952534      -0.73348608
H       -1.52760110       2.13980973       0.51167902
H        0.64251102      -1.87060929       0.76914449
H       -0.92767132      -1.11821340       1.39679345
H        1.80560102      -0.72006862      -1.26892472
11
Frame=1 idx=010783 GeodesicLength=0.03252153223016535 rxn_smarts="[O:1]=[C:2]([C:3]1([C:6](=[O:7])[H:11])[C:4]([H:9])([H:10])[O:5]1)[H:8]>>[O:1]([C:2][C@@:3]1([C:6](=[O:7])[H:11])[C:4]([H:9])([H:10])[O:5]1)[H:8]"
O       -2.00274262       1.11435221       0.21313372
C       -0.72024954       1.24098905       0.21165015
C        0.06264242       0.03998611      -0.18553792
C       -0.17828630      -1.18462505       0.61047524
O       -0.66005226      -1.07291678      -0.69535689
C        1.43235045       0.20740627      -0.77433634
O        2.06907256       1.21767655      -0.73752133
H       -1.52409700       2.16606837       0.46621727
H        0.64395002      -1.87998234       0.76201486
H       -0.92687318      -1.13403029       1.39654213
H        1.80428543      -0.71492410      -1.26728088
11
Frame=2 idx=010783 GeodesicLength=0.0649016698800641 rxn_smarts="[O:1]=[C:2]([C:3]1([C:6](=[O:7])[H:11])[C:4]([H:9])([H:10])[O:5]1)[H:8]>>[O:1]([C:2][C@@:3]1([C:6](=[O:7])[H:11])[C:4]([H:9])([H:10])[O:5]1)[H:8]"
O       -1.99634513       1.11467091       0.22849293
C       -0.71642698       1.23573063       0.23814289
C        0.06152175       0.03767718      -0.17739297
C       -0.17773392      -1.19306931       0.60931111
O       -0.66138891      -1.07165213      -0.69481263
C        1.42939385       0.21007475      -0.76811729
O        2.05789540       1.22583550      -0.74113033
H       -1.51846280       2.18828676       0.42005440
H        0.64517669      -1.88888711       0.75480897
H       -0.92592899      -1.14917942       1.39602559
H        1.80229906      -0.70948776      -1.26538267
11
Frame=3 idx=010783 GeodesicLength=0.09719390906396126 rxn_smarts="[O:1]=[C:2]([C:3]1([C:6](=[O:7])[H:11])[C:4]([H:9])([H:10])[O:5]1)[H:8]>>[O:1]([C:2][C@@:3]1([C:6](=[O:7])[H:11])[C:4]([H:9])([H:10])[O:5]1)[H:8]"
O       -1.99032094       1.11555594       0.24297836
C       -0.71292431       1.23092464       0.26317523
C        0.06025723       0.03569581      -0.16968793
C       -0.17751117      -1.20078259       0.60825217
O       -0.66287783      -1.07033868      -0.69437169
C        1.42659614       0.21285718      -0.76215189
O        2.04696483       1.23397223      -0.74481056
H       -1.51132306       2.20622194       0.37633663
H        0.64613926      -1.89689574       0.74819551
H       -0.92548820      -1.16308705       1.39554872
H        1.80048806      -0.70412367      -1.26346456
11
Frame=4 idx=010783 GeodesicLength=0.12951653037838956 rxn_smarts="[O:1]=[C:2]([C:3]1([C:6](=[O:7])[H:11])[C:4]([H:9])([H:10])[O:5]1)[H:8]>>[O:1]([C:2][C@@:3]1([C:6](=[O:7])[H:11])[C:4]([H:9])([H:10])[O:5]1)[H:8]"
O       -1.98444508       1.11686037       0.25635743
C       -0.70970308       1.22649867       0.28660465
C        0.05887281       0.03398738      -0.16244277
C       -0.17751058      -1.20781687       0.60726796
O       -0.66431140      -1.06899423      -0.69396143
C        1.42377485       0.21570783      -0.75642401
O        2.03605068       1.24196648      -0.74848590
H       -1.50291261       2.22055756       0.33534208
H        0.64686133      -1.90407435       0.74216078
H       -0.92536506      -1.17584468       1.39498772
H        1.79868814      -0.69884816      -1.26140652
11
Frame=5 idx=010783 GeodesicLength=0.16173693868203598 rxn_smarts="[O:1]=[C:2]([C:3]1([C:6](=[O:7])[H:11])[C:4]([H:9])([H:10])[O:5]1)[H:8]>>[O:1]([C:2][C@@:3]1([C:6](=[O:7])[H:11])[C:4]([H:9])([H:10])[O:5]1)[H:8]"
O       -1.97878280       1.11848687       0.26852878
C       -0.70676781       1.22236333       0.30842527
C        0.05740300       0.03247266      -0.15566230
C       -0.17767517      -1.21419674       0.60631627
O       -0.66568316      -1.06769011      -0.69360074
C        1.42100717       0.21853090      -0.75086144
O        2.02514563       1.24975169      -0.75231719
H       -1.49355376       2.23194389       0.29736602
H        0.64743803      -1.91043865       0.73667297
H       -0.92552341      -1.18747287       1.39425312
H        1.79699227      -0.69375097      -1.25912076
11
Frame=6 idx=010783 GeodesicLength=0.19408168472574883 rxn_smarts="[O:1]=[C:2]([C:3]1([C:6](=[O:7])[H:11])[C:4]([H:9])([H:10])[O:5]1)[H:8]>>[O:1]([C:2][C@@:3]1([C:6](=[O:7])[H:11])[C:4]([H:9])([H:10])[O:5]1)[H:8]"
O       -1.97333758       1.12035418       0.27961185
C       -0.70411662       1.21851100       0.32878447
C        0.05586684       0.03110219      -0.14932116
C       -0.17798061      -1.22008584       0.60543226
O       -0.66695562      -1.06653455      -0.69330218
C        1.41831382       0.22134435      -0.74551856
O        2.01432128       1.25739723      -0.75625348
H       -1.48349925       2.24113231       0.26213573
H        0.64790109      -1.91618742       0.73171640
H       -0.92595185      -1.19820387       1.39344627
H        1.79543849      -0.68882959      -1.25673160
11
Frame=7 idx=010783 GeodesicLength=0.22650464969448247 rxn_smarts="[O:1]=[C:2]([C:3]1([C:6](=[O:7])[H:11])[C:4]([H:9])([H:10])[O:5]1)[H:8]>>[O:1]([C:2][C@@:3]1([C:6](=[O:7])[H:11])[C:4]([H:9])([H:10])[O:5]1)[H:8]"
O       -1.96800967       1.12238000       0.28996801
C       -0.70168118       1.21487432       0.34800289
C        0.05428285       0.02986196      -0.14329897
C       -0.17838988      -1.22557394       0.60459508
O       -0.66812247      -1.06543018      -0.69307431
C        1.41565556       0.22416797      -0.74030056
O        2.00349725       1.26487573      -0.76020645
H       -1.47285336       2.24852365       0.22887566
H        0.64824831      -1.92145630       0.72714408
H       -0.92655928      -1.20823029       1.39259065
H        1.79393187      -0.68399293      -1.25429608
11
Frame=8 idx=010783 GeodesicLength=0.2591801791582754 rxn_smarts="[O:1]=[C:2]([C:3]1([C:6](=[O:7])[H:11])[C:4]([H:9])([H:10])[O:5]1)[H:8]>>[O:1]([C:2][C@@:3]1([C:6](=[O:7])[H:11])[C:4]([H:9])([H:10])[O:5]1)[H:8]"
O       -1.96298434       1.12450863       0.29819835
C       -0.69962999       1.21141790       0.36538636
C        0.05264416       0.02860351      -0.13799196
C       -0.17885856      -1.23062896       0.60386677
O       -0.66901044      -1.06487398      -0.69301561
C        1.41307088       0.22685642      -0.73557973
O        1.99271023       1.27216205      -0.76461354
H       -1.46202147       2.25500675       0.20016340
H        0.64863970      -1.92606812       0.72342220
H       -0.92745523      -1.21732890       1.39163437
H        1.79289506      -0.67965530      -1.25147061
11
Frame=9 idx=010783 GeodesicLength=0.2913052847544719 rxn_smarts="[O:1]=[C:2]([C:3]1([C:6](=[O:7])[H:11])[C:4]([H:9])([H:10])[O:5]1)[H:8]>>[O:1]([C:2][C@@:3]1([C:6](=[O:7])[H:11])[C:4]([H:9])([H:10])[O:5]1)[H:8]"
O       -1.95801834       1.12656483       0.30643167
C       -0.69768328       1.20795932       0.38206967
C        0.05094464       0.02745949      -0.13281330
C       -0.17937175      -1.23526897       0.60309250
O       -0.66998561      -1.06414554      -0.69282762
C        1.41043899       0.22955204      -0.73088427
O        1.98211609       1.27906621      -0.76854620
H       -1.45071006       2.25996318       0.17199776
H        0.64897726      -1.93014198       0.71971314
H       -0.92830782      -1.22583370       1.39057742
H        1.79159988      -0.67517488      -1.24881078
11
Frame=10 idx=010783 GeodesicLength=0.32349897855149673 rxn_smarts="[O:1]=[C:2]([C:3]1([C:6](=[O:7])[H:11])[C:4]([H:9])([H:10])[O:5]1)[H:8]>>[O:1]([C:2][C@@:3]1([C:6](=[O:7])[H:11])[C:4]([H:9])([H:10])[O:5]1)[H:8]"
O       -1.95326705       1.12864849       0.31359982
C       -0.69602016       1.20463534       0.39761014
C        0.04917989       0.02633207      -0.12807898
C       -0.17988563      -1.23963886       0.60239013
O       -0.67082555      -1.06373720      -0.69273124
C        1.40778309       0.23219668      -0.72656979
O        1.97170691       1.28571829      -0.77235571
H       -1.43929636       2.26435541       0.14624666
H        0.64939583      -1.93380844       0.71648355
H       -0.92922395      -1.23376146       1.38954624
H        1.79045299      -0.67094034      -1.24614081
11
Frame=11 idx=010783 GeodesicLength=0.35577892413488943 rxn_smarts="[O:1]=[C:2]([C:3]1([C:6](=[O:7])[H:11])[C:4]([H:9])([H:10])[O:5]1)[H:8]>>[O:1]([C:2][C@@:3]1([C:6](=[O:7])[H:11])[C:4]([H:9])([H:10])[O:5]1)[H:8]"
O       -1.94869010       1.13071348       0.31991118
C       -0.69459752       1.20138839       0.41221242
C        0.04735533       0.02520842      -0.12370924
C       -0.18039734      -1.24378354       0.60174142
O       -0.67155780      -1.06359566      -0.69269998
C        1.40509547       0.23480077      -0.72256417
O        1.96143059       1.29214779      -0.77606034
H       -1.42776012       2.26834548       0.12245298
H        0.64988393      -1.93711926       0.71363847
H       -0.93018250      -1.24122007       1.38852790
H        1.78942008      -0.66688581      -1.24345063
11
Frame=12 idx=010783 GeodesicLength=0.3880123559395896 rxn_smarts="[O:1]=[C:2]([C:3]1([C:6](=[O:7])[H:11])[C:4]([H:9])([H:10])[O:5]1)[H:8]>>[O:1]([C:2][C@@:3]1([C:6](=[O:7])[H:11])[C:4]([H:9])([H:10])[O:5]1)[H:8]"
O       -1.94425472       1.13273308       0.32560725
C       -0.69337488       1.19818308       0.42603936
C        0.04547312       0.02409385      -0.11963253
C       -0.18090421      -1.24771851       0.60112581
O       -0.67222182      -1.06364481      -0.69269869
C        1.40236554       0.23737547      -0.71881388
O        1.95128911       1.29835776      -0.77960233
H       -1.41609144       2.27194969       0.10015657
H        0.65043515      -1.94010017       0.71108068
H       -0.93115830      -1.24827458       1.38750852
H        1.78844243      -0.66295485      -1.24077076
11
Frame=13 idx=010783 GeodesicLength=0.42024743861099223 rxn_smarts="[O:1]=[C:2]([C:3]1([C:6](=[O:7])[H:11])[C:4]([H:9])([H:10])[O:5]1)[H:8]>>[O:1]([C:2][C@@:3]1([C:6](=[O:7])[H:11])[C:4]([H:9])([H:10])[O:5]1)[H:8]"
O       -1.93993926       1.13471133       0.33079112
C       -0.69232681       1.19500344       0.43922341
C        0.04354294       0.02298242      -0.11579417
C       -0.18140760      -1.25148852       0.60053600
O       -0.67282233      -1.06385663      -0.69273063
C        1.39960567       0.23992650      -0.71525066
O        1.94121023       1.30440014      -0.78306417
H       -1.40427252       2.27526890       0.07911312
H        0.65103647      -1.94281780       0.70876307
H       -0.93215275      -1.25500804       1.38648128
H        1.78752596      -0.65912173      -1.23806836
11
Frame=14 idx=010783 GeodesicLength=0.4524744991259426 rxn_smarts="[O:1]=[C:2]([C:3]1([C:6](=[O:7])[H:11])[C:4]([H:9])([H:10])[O:5]1)[H:8]>>[O:1]([C:2][C@@:3]1([C:6](=[O:7])[H:11])[C:4]([H:9])([H:10])[O:5]1)[H:8]"
O       -1.93572659       1.13664984       0.33556321
C       -0.69143334       1.19184142       0.45186235
C        0.04156987       0.02187445      -0.11215309
C       -0.18190877      -1.25512065       0.59996726
O       -0.67336784      -1.06420422      -0.69279204
C        1.39682002       0.24246211      -0.71183531
O        1.93116258       1.31030667      -0.78647346
H       -1.39229323       2.27834914       0.05910980
H        0.65168017      -1.94531444       0.70664625
H       -0.93316685      -1.26147844       1.38544329
H        1.78666398      -0.65536588      -1.23533827
11
Frame=15 idx=010783 GeodesicLength=0.4847053570348896 rxn_smarts="[O:1]=[C:2]([C:3]1([C:6](=[O:7])[H:11])[C:4]([H:9])([H:10])[O:5]1)[H:8]>>[O:1]([C:2][C@@:3]1([C:6](=[O:7])[H:11])[C:4]([H:9])([H:10])[O:5]1)[H:8]"
O       -1.93160103       1.13855114       0.33998788
C       -0.69067821       1.18868688       0.46403887
C        0.03956055       0.02076799      -0.10867404
C       -0.18241127      -1.25863929       0.59941434
O       -0.67386059      -1.06466536      -0.69288367
C        1.39401756       0.24498861      -0.70852475
O        1.92109786       1.31610997      -0.78988657
H       -1.38013613       2.28123356       0.03999610
H        0.65235381      -1.94762918       0.70469785
H       -0.93420391      -1.26773313       1.38439034
H        1.78586137      -0.65167117      -1.23255638
11
Frame=16 idx=010783 GeodesicLength=0.5169481074207648 rxn_smarts="[O:1]=[C:2]([C:3]1([C:6](=[O:7])[H:11])[C:4]([H:9])([H:10])[O:5]1)[H:8]>>[O:1]([C:2][C@@:3]1([C:6](=[O:7])[H:11])[C:4]([H:9])([H:10])[O:5]1)[H:8]"
O       -1.92755097       1.14041683       0.34411935
C       -0.69004801       1.18553294       0.47581549
C        0.03752048       0.01966188      -0.10533074
C       -0.18291751      -1.26206311       0.59887261
O       -0.67430081      -1.06522317      -0.69300713
C        1.39120592       0.24751062      -0.70528678
O        1.91097891       1.32183252      -0.79334979
H       -1.36778984       2.28395641       0.02165880
H        0.65304971      -1.94978934       0.70289899
H       -0.93527135      -1.27380995       1.38331387
H        1.78512346      -0.64802563      -1.22970466
