13
Frame=0 idx=007854 GeodesicLength=0.0 rxn_smarts="[O:1]([C@@:2]1([H:9])[C@:3]2([H:10])[O:4][C@@:5]1([H:11])[C@:6]2([O:7][H:13])[H:12])[H:8]>>[O:1]([C@@:2]1([H:9])[C@@:3]2([H:10])[O:4][C@:5]1([H:11])[C:6]2)[H:8].[O:7]([H:12])[H:13]"
O       -2.25985087      -0.43117805       0.31708019
C       -0.90413026      -0.17323553       0.42363954
C        0.05544271      -0.80360279      -0.60692678
O       -0.45312469       0.15327092      -1.62906391
C       -0.29560504       0.98123333      -0.39466680
C        1.04748392       0.31420171      -0.44517342
O        1.92102248       0.36868588       1.28455334
H       -2.50212504      -0.36229388      -0.61255562
H       -0.60522168      -0.22883094       1.46689206
H        0.20656775      -1.83369066      -0.91746645
H       -0.55202992       2.03402746      -0.45930892
H        2.15401778       0.52161831       0.11258836
H        2.18755290      -0.54020574       1.46040845
13
Frame=1 idx=007854 GeodesicLength=0.05755270139663723 rxn_smarts="[O:1]([C@@:2]1([H:9])[C@:3]2([H:10])[O:4][C@@:5]1([H:11])[C@:6]2([O:7][H:13])[H:12])[H:8]>>[O:1]([C@@:2]1([H:9])[C@@:3]2([H:10])[O:4][C@:5]1([H:11])[C:6]2)[H:8].[O:7]([H:12])[H:13]"
O       -2.27634034      -0.42692832       0.30209176
C       -0.91922667      -0.18089632       0.42105368
C        0.04312337      -0.81384942      -0.60426691
O       -0.44122412       0.15626137      -1.62539937
C       -0.29556726       0.97424621      -0.38364693
C        1.04235678       0.29574979      -0.43194099
O        1.93246302       0.38411429       1.28208007
H       -2.51091105      -0.34808192      -0.62870820
H       -0.62804361      -0.24585897       1.46602813
H        0.18713701      -1.84284406      -0.92166340
H       -0.54184020       2.02970541      -0.44379472
H        2.16418767       0.52638949       0.10052809
H        2.24388539      -0.50800753       1.46763880
13
Frame=2 idx=007854 GeodesicLength=0.11501579237836992 rxn_smarts="[O:1]([C@@:2]1([H:9])[C@:3]2([H:10])[O:4][C@@:5]1([H:11])[C@:6]2([O:7][H:13])[H:12])[H:8]>>[O:1]([C@@:2]1([H:9])[C@@:3]2([H:10])[O:4][C@:5]1([H:11])[C:6]2)[H:8].[O:7]([H:12])[H:13]"
O       -2.29329585      -0.42222644       0.28624796
C       -0.93498495      -0.18869155       0.41836156
C        0.03043008      -0.82441921      -0.60129893
O       -0.42860999       0.15900013      -1.62109217
C       -0.29539787       0.96682248      -0.37202774
C        1.03708250       0.27643144      -0.41732955
O        1.94446742       0.39887512       1.27958266
H       -2.51950285      -0.33319440      -0.64568354
H       -0.65222315      -0.26321557       1.46509159
H        0.16726192      -1.85219581      -0.92567255
H       -0.53118956       2.02490268      -0.42761501
H        2.17361706       0.53139436       0.08828020
H        2.30234523      -0.47348323       1.47315550
13
Frame=3 idx=007854 GeodesicLength=0.17227192270368533 rxn_smarts="[O:1]([C@@:2]1([H:9])[C@:3]2([H:10])[O:4][C@@:5]1([H:11])[C@:6]2([O:7][H:13])[H:12])[H:8]>>[O:1]([C@@:2]1([H:9])[C@@:3]2([H:10])[O:4][C@:5]1([H:11])[C:6]2)[H:8].[O:7]([H:12])[H:13]"
O       -2.31055176      -0.41711056       0.26966967
C       -0.95124888      -0.19674269       0.41555430
C        0.01736628      -0.83528448      -0.59823525
O       -0.41535459       0.16166684      -1.61607922
C       -0.29502146       0.95892095      -0.35966596
C        1.03169236       0.25617505      -0.40146417
O        1.95732242       0.41371688       1.27659811
H       -2.52779182      -0.31771257      -0.66331890
H       -0.67752377      -0.28119896       1.46400675
H        0.14686040      -1.86160846      -0.93003909
H       -0.51996838       2.01958116      -0.41026316
H        2.18265974       0.53547061       0.07522934
H        2.36155947      -0.43587377       1.47800759
13
Frame=4 idx=007854 GeodesicLength=0.22936286471713546 rxn_smarts="[O:1]([C@@:2]1([H:9])[C@:3]2([H:10])[O:4][C@@:5]1([H:11])[C@:6]2([O:7][H:13])[H:12])[H:8]>>[O:1]([C@@:2]1([H:9])[C@@:3]2([H:10])[O:4][C@:5]1([H:11])[C:6]2)[H:8].[O:7]([H:12])[H:13]"
O       -2.32817500      -0.41152255       0.25219834
C       -0.96814467      -0.20497443       0.41264067
C        0.00395556      -0.84646461      -0.59490588
O       -0.40129022       0.16414671      -1.61028781
C       -0.29448375       0.95054674      -0.34653179
C        1.02613778       0.23497335      -0.38408952
O        1.97096502       0.42819267       1.27336284
H       -2.53572148      -0.30153067      -0.68179012
H       -0.70423709      -0.29964619       1.46282626
H        0.12605675      -1.87114964      -0.93443374
H       -0.50826136       2.01373660      -0.39191026
H        2.19102785       0.53904058       0.06163985
H        2.42217061      -0.39534856       1.48128114
13
Frame=5 idx=007854 GeodesicLength=0.286234849646575 rxn_smarts="[O:1]([C@@:2]1([H:9])[C@:3]2([H:10])[O:4][C@@:5]1([H:11])[C@:6]2([O:7][H:13])[H:12])[H:8]>>[O:1]([C@@:2]1([H:9])[C@@:3]2([H:10])[O:4][C@:5]1([H:11])[C:6]2)[H:8].[O:7]([H:12])[H:13]"
O       -2.34619603      -0.40541158       0.23363584
C       -0.98577314      -0.21332234       0.40959755
C       -0.00978859      -0.85793915      -0.59113213
O       -0.38625749       0.16633360      -1.60355860
C       -0.29380393       0.94166561      -0.33255425
C        1.02036878       0.21282070      -0.36492806
O        1.98540073       0.44186758       1.27003513
H       -2.54319357      -0.28459624      -0.70127035
H       -0.73262984      -0.31840278       1.46152222
H        0.10493292      -1.88080148      -0.93854525
H       -0.49610548       2.00728757      -0.37263491
H        2.19844955       0.54242140       0.04774108
H        2.48459608      -0.35192290       1.48209172
13
Frame=6 idx=007854 GeodesicLength=0.34286948403349105 rxn_smarts="[O:1]([C@@:2]1([H:9])[C@:3]2([H:10])[O:4][C@@:5]1([H:11])[C@:6]2([O:7][H:13])[H:12])[H:8]>>[O:1]([C@@:2]1([H:9])[C@@:3]2([H:10])[O:4][C@:5]1([H:11])[C:6]2)[H:8].[O:7]([H:12])[H:13]"
O       -2.36449335      -0.39877557       0.21404623
C       -1.00405018      -0.22184642       0.40644321
C       -0.02382355      -0.86969994      -0.58702038
O       -0.37025226       0.16833688      -1.59583131
C       -0.29296128       0.93227917      -0.31760616
C        1.01438506       0.18967888      -0.34398512
O        2.00086210       0.45529248       1.26630319
H       -2.55009065      -0.26693360      -0.72168708
H       -0.76260443      -0.33765714       1.46008837
H        0.08352580      -1.89051057      -0.94268467
H       -0.48346229       2.00026430      -0.35208681
H        2.20512871       0.54474472       0.03308964
H        2.54783631      -0.30517320       1.48093091
13
Frame=7 idx=007854 GeodesicLength=0.39920950601819344 rxn_smarts="[O:1]([C@@:2]1([H:9])[C@:3]2([H:10])[O:4][C@@:5]1([H:11])[C@:6]2([O:7][H:13])[H:12])[H:8]>>[O:1]([C@@:2]1([H:9])[C@@:3]2([H:10])[O:4][C@:5]1([H:11])[C:6]2)[H:8].[O:7]([H:12])[H:13]"
O       -2.38293593      -0.39159704       0.19346185
C       -1.02288245      -0.23062581       0.40314847
C       -0.03815468      -0.88170533      -0.58268286
O       -0.35327606       0.17025878      -1.58695671
C       -0.29189149       0.92230738      -0.30153404
C        1.00818253       0.16546532      -0.32126202
O        2.01743316       0.46909050       1.26170610
H       -2.55629007      -0.24850198      -0.74293285
H       -0.79405720      -0.35765073       1.45839663
H        0.06174134      -1.90011759      -0.94719255
H       -0.47019130       1.99255498      -0.32981591
H        2.21129313       0.54494343       0.01730388
H        2.61102903      -0.25442190       1.47836000
13
Frame=8 idx=007854 GeodesicLength=0.4552297336378791 rxn_smarts="[O:1]([C@@:2]1([H:9])[C@:3]2([H:10])[O:4][C@@:5]1([H:11])[C@:6]2([O:7][H:13])[H:12])[H:8]>>[O:1]([C@@:2]1([H:9])[C@@:3]2([H:10])[O:4][C@:5]1([H:11])[C:6]2)[H:8].[O:7]([H:12])[H:13]"
O       -2.40154030      -0.38384196       0.17165396
C       -1.04239526      -0.23952214       0.39972410
C       -0.05267092      -0.89392321      -0.57785561
O       -0.33511342       0.17195741      -1.57680349
C       -0.29069293       0.91181329      -0.28429626
C        1.00169133       0.14029495      -0.29641192
O        2.03507475       0.48255852       1.25658761
H       -2.56164013      -0.22928489      -0.76525392
H       -0.82734900      -0.37806821       1.45651163
H        0.03991342      -1.90967046      -0.95155598
H       -0.45652155       1.98420446      -0.30607699
H        2.21653253       0.54360237       0.00077896
H        2.67471148      -0.20012014       1.47299790
13
Frame=9 idx=007854 GeodesicLength=0.51088918355272 rxn_smarts="[O:1]([C@@:2]1([H:9])[C@:3]2([H:10])[O:4][C@@:5]1([H:11])[C@:6]2([O:7][H:13])[H:12])[H:8]>>[O:1]([C@@:2]1([H:9])[C@@:3]2([H:10])[O:4][C@:5]1([H:11])[C:6]2)[H:8].[O:7]([H:12])[H:13]"
O       -2.42021857      -0.37548953       0.14851532
C       -1.06258657      -0.24850399       0.39615235
C       -0.06730468      -0.90631103      -0.57245852
O       -0.31566547       0.17341045      -1.56520456
C       -0.28938371       0.90078581      -0.26578554
C        0.99487092       0.11419003      -0.26925876
O        2.05379238       0.49562532       1.25087585
H       -2.56597786      -0.20924182      -0.78871038
H       -0.86259356      -0.39887680       1.45437652
H        0.01816728      -1.91910255      -0.95570421
H       -0.44247872       1.97517915      -0.28073979
H        2.22074030       0.54042362      -0.01645533
H        2.73863825      -0.14208866       1.46439704
13
Frame=10 idx=007854 GeodesicLength=0.5661048284387586 rxn_smarts="[O:1]([C@@:2]1([H:9])[C@:3]2([H:10])[O:4][C@@:5]1([H:11])[C@:6]2([O:7][H:13])[H:12])[H:8]>>[O:1]([C@@:2]1([H:9])[C@@:3]2([H:10])[O:4][C@:5]1([H:11])[C:6]2)[H:8].[O:7]([H:12])[H:13]"
O       -2.43885952      -0.36654133       0.12391276
C       -1.08345865      -0.25746655       0.39243886
C       -0.08191096      -0.91878273      -0.56632240
O       -0.29481196       0.17458032      -1.55199521
C       -0.28804352       0.88931064      -0.24592031
C        0.98766532       0.08732586      -0.23957272
O        2.07365915       0.50800523       1.24464830
H       -2.56909177      -0.18846389      -0.81342307
H       -0.89993750      -0.41988814       1.45198834
H       -0.00313726      -1.92837326      -0.95933142
H       -0.42826032       1.96555176      -0.25385506
H        2.22370596       0.53543529      -0.03425367
H        2.80248102      -0.08069321       1.45168560
13
Frame=11 idx=007854 GeodesicLength=0.6208651181546548 rxn_smarts="[O:1]([C@@:2]1([H:9])[C@:3]2([H:10])[O:4][C@@:5]1([H:11])[C@:6]2([O:7][H:13])[H:12])[H:8]>>[O:1]([C@@:2]1([H:9])[C@@:3]2([H:10])[O:4][C@:5]1([H:11])[C:6]2)[H:8].[O:7]([H:12])[H:13]"
O       -2.45713547      -0.35690827       0.09822758
C       -1.10467809      -0.26659678       0.38854029
C       -0.09655381      -0.93130713      -0.55988082
O       -0.27276619       0.17569220      -1.53708178
C       -0.28648176       0.87721366      -0.22458303
C        0.98012421       0.05946465      -0.20778312
O        2.09431103       0.52106994       1.23683318
H       -2.57086367      -0.16673387      -0.83883800
H       -0.93883943      -0.44169312       1.44906197
H       -0.02443934      -1.93718771      -0.96346027
H       -0.41337737       1.95511671      -0.22453384
H        2.22612112       0.52606941      -0.05329273
H        2.86457878      -0.01419969       1.43679057
13
Frame=12 idx=007854 GeodesicLength=0.674852954581547 rxn_smarts="[O:1]([C@@:2]1([H:9])[C@:3]2([H:10])[O:4][C@@:5]1([H:11])[C@:6]2([O:7][H:13])[H:12])[H:8]>>[O:1]([C@@:2]1([H:9])[C@@:3]2([H:10])[O:4][C@:5]1([H:11])[C:6]2)[H:8].[O:7]([H:12])[H:13]"
O       -2.47495919      -0.34677799       0.07105856
C       -1.12635641      -0.27546875       0.38449136
C       -0.11079333      -0.94361056      -0.55247790
O       -0.24926536       0.17649969      -1.52027571
C       -0.28502135       0.86487754      -0.20187834
C        0.97216368       0.03139805      -0.17338412
O        2.11590716       0.53285094       1.22852411
H       -2.57097669      -0.14460715      -0.86543137
H       -0.97975425      -0.46326189       1.44575012
H       -0.04455433      -1.94556117      -0.96660930
H       -0.39874507       1.94419932      -0.19381432
H        2.22704237       0.51472365      -0.07246572
H        2.92531277       0.05473833       1.41651262
13
Frame=13 idx=007854 GeodesicLength=0.7280359361505211 rxn_smarts="[O:1]([C@@:2]1([H:9])[C@:3]2([H:10])[O:4][C@@:5]1([H:11])[C@:6]2([O:7][H:13])[H:12])[H:8]>>[O:1]([C@@:2]1([H:9])[C@@:3]2([H:10])[O:4][C@:5]1([H:11])[C:6]2)[H:8].[O:7]([H:12])[H:13]"
O       -2.49193675      -0.33604931       0.04301227
C       -1.14803505      -0.28418393       0.38029939
C       -0.12463171      -0.95569038      -0.54461861
O       -0.22469095       0.17717017      -1.50173986
C       -0.28350339       0.85224497      -0.17791952
C        0.96389264       0.00299833      -0.13713290
O        2.13776210       0.54411636       1.21900547
H       -2.56940614      -0.12185516      -0.89247932
H       -1.02187780      -0.48501076       1.44187665
H       -0.06381911      -1.95335027      -0.96972989
H       -0.38398005       1.93277032      -0.16121075
H        2.22710758       0.49926142      -0.09208097
H        2.98311864       0.12757824       1.39271803
13
Frame=14 idx=007854 GeodesicLength=0.7803984212532165 rxn_smarts="[O:1]([C@@:2]1([H:9])[C@:3]2([H:10])[O:4][C@@:5]1([H:11])[C@:6]2([O:7][H:13])[H:12])[H:8]>>[O:1]([C@@:2]1([H:9])[C@@:3]2([H:10])[O:4][C@:5]1([H:11])[C:6]2)[H:8].[O:7]([H:12])[H:13]"
O       -2.50791814      -0.32479766       0.01400250
C       -1.16964468      -0.29256393       0.37595578
C       -0.13785796      -0.96741671      -0.53609874
O       -0.19905134       0.17761380      -1.48140860
C       -0.28202698       0.83946941      -0.15279567
C        0.95531023      -0.02538538      -0.09901618
O        2.15978494       0.55377669       1.20880486
H       -2.56599413      -0.09864230      -0.92003969
H       -1.06520258      -0.50656080       1.43740148
H       -0.08176166      -1.96052634      -0.97231742
H       -0.36938794       1.92095225      -0.12708438
H        2.22599786       0.48049938      -0.11150392
H        3.03775237       0.20358158       1.36409997
13
Frame=15 idx=007854 GeodesicLength=0.8318847122164816 rxn_smarts="[O:1]([C@@:2]1([H:9])[C@:3]2([H:10])[O:4][C@@:5]1([H:11])[C@:6]2([O:7][H:13])[H:12])[H:8]>>[O:1]([C@@:2]1([H:9])[C@@:3]2([H:10])[O:4][C@:5]1([H:11])[C:6]2)[H:8].[O:7]([H:12])[H:13]"
O       -2.52261935      -0.31301691      -0.01565349
C       -1.19088929      -0.30050837       0.37148516
C       -0.15033297      -0.97868024      -0.52700989
O       -0.17257578       0.17785901      -1.45938539
C       -0.28056690       0.82666665      -0.12669620
C        0.94649936      -0.05351564      -0.05947241
O        2.18170251       0.56148400       1.19800701
H       -2.56066103      -0.07517132      -0.94778168
H       -1.10923097      -0.52777465       1.43225011
H       -0.09824461      -1.96698772      -0.97444204
H       -0.35497940       1.90884963      -0.09157638
H        2.22386721       0.45827420      -0.13046030
H        3.08803122       0.28252137       1.33073552
13
Frame=16 idx=007854 GeodesicLength=0.8823861434349876 rxn_smarts="[O:1]([C@@:2]1([H:9])[C@:3]2([H:10])[O:4][C@@:5]1([H:11])[C@:6]2([O:7][H:13])[H:12])[H:8]>>[O:1]([C@@:2]1([H:9])[C@@:3]2([H:10])[O:4][C@:5]1([H:11])[C:6]2)[H:8].[O:7]([H:12])[H:13]"
O       -2.53575560      -0.30079857      -0.04548507
C       -1.21139105      -0.30791358       0.36691992
C       -0.16194637      -0.98941011      -0.51755634
O       -0.14560480       0.17786922      -1.43597054
C       -0.27903677       0.81394320      -0.09998518
C        0.93762846      -0.08116723      -0.01925151
O        2.20314973       0.56623237       1.18706533
H       -2.55347183      -0.05140700      -0.97515377
H       -1.15326188      -0.54845844       1.42637670
H       -0.11318645      -1.97274758      -0.97612046
H       -0.34076932       1.89656010      -0.05519811
H        2.22087027       0.43300757      -0.14848260
H        3.13277560       0.36429004       1.29284162
