16
Frame=0 idx=011370 GeodesicLength=0.0 rxn_smarts="[C:1]([C:2]([C:3]([H:11])([H:12])[H:13])([C:4]([O:5][H:16])([H:14])[H:15])[C:6]#[N:7])([H:8])([H:9])[H:10]>>[C:1]([C:2](=[C:3]([H:11])[H:13])[C:6]#[N:7])([H:8])([H:9])[H:10].[C:4](=[O:5])([H:14])[H:15].[H:12][H:16]"
C       -1.28806490      -0.76708924       0.79618425
C       -0.59581863       0.27708825      -0.05419175
C       -0.38383777       0.04226760      -1.40262482
C        1.55937565       0.12232417       0.79795067
O        2.20754185      -0.65887334       0.08122132
C       -0.68875641       1.63826416       0.37939728
N       -0.75916674       2.72363772       0.75612074
H       -0.83290156      -1.74576151       0.63254331
H       -1.21530661      -0.53144124       1.85749664
H       -2.34921629      -0.83805184       0.54608384
H       -0.81598381      -0.84718475      -1.84801279
H        0.97469638      -0.55802398      -1.70637550
H       -0.23702695       0.87718494      -2.07712456
H        1.71521564       1.20486107       0.72790425
H        1.06199112      -0.25560193       1.69595211
H        1.64725899      -0.68360004      -1.18252498
16
Frame=1 idx=011370 GeodesicLength=0.08522492206469637 rxn_smarts="[C:1]([C:2]([C:3]([H:11])([H:12])[H:13])([C:4]([O:5][H:16])([H:14])[H:15])[C:6]#[N:7])([H:8])([H:9])[H:10]>>[C:1]([C:2](=[C:3]([H:11])[H:13])[C:6]#[N:7])([H:8])([H:9])[H:10].[C:4](=[O:5])([H:14])[H:15].[H:12][H:16]"
C       -1.28529087      -0.77461963       0.78758352
C       -0.59301684       0.27396069      -0.05724184
C       -0.38721372       0.04586130      -1.41071397
C        1.55853052       0.13479529       0.80553238
O        2.19229967      -0.68107267       0.10865967
C       -0.70120606       1.63424088       0.37867488
N       -0.76562132       2.71687227       0.76367454
H       -0.84274241      -1.75558864       0.60521028
H       -1.19363697      -0.55840103       1.85155047
H       -2.35109195      -0.82827294       0.55419191
H       -0.84674556      -0.82625809      -1.86307618
H        0.97637185      -0.57109798      -1.70629105
H       -0.23830053       0.88591413      -2.07877555
H        1.73370924       1.21180135       0.70113075
H        1.08295103      -0.20697823       1.72980692
H        1.66100393      -0.70115672      -1.16991674
16
Frame=2 idx=011370 GeodesicLength=0.17033128127647076 rxn_smarts="[C:1]([C:2]([C:3]([H:11])([H:12])[H:13])([C:4]([O:5][H:16])([H:14])[H:15])[C:6]#[N:7])([H:8])([H:9])[H:10]>>[C:1]([C:2](=[C:3]([H:11])[H:13])[C:6]#[N:7])([H:8])([H:9])[H:10].[C:4](=[O:5])([H:14])[H:15].[H:12][H:16]"
C       -1.28250526      -0.78234168       0.77877212
C       -0.59036949       0.27073125      -0.06048558
C       -0.39054613       0.04927278      -1.41891706
C        1.55750717       0.14778220       0.81315031
O        2.17648622      -0.70162523       0.13690959
C       -0.71387857       1.62992165       0.37790387
N       -0.77155550       2.70974084       0.77122326
H       -0.85393607      -1.76550325       0.57675743
H       -1.17075865      -0.58633345       1.84473833
H       -2.35266729      -0.81832767       0.56334476
H       -0.87793521      -0.80420467      -1.87783729
H        0.97805170      -0.58468336      -1.70575843
H       -0.23934617       0.89451894      -2.08033868
H        1.75196419       1.21784708       0.67470155
H        1.10459096      -0.15703029       1.76179795
H        1.67489811      -0.71976514      -1.15596212
16
Frame=3 idx=011370 GeodesicLength=0.25532438777402156 rxn_smarts="[C:1]([C:2]([C:3]([H:11])([H:12])[H:13])([C:4]([O:5][H:16])([H:14])[H:15])[C:6]#[N:7])([H:8])([H:9])[H:10]>>[C:1]([C:2](=[C:3]([H:11])[H:13])[C:6]#[N:7])([H:8])([H:9])[H:10].[C:4](=[O:5])([H:14])[H:15].[H:12][H:16]"
C       -1.27973998      -0.79023994       0.76975701
C       -0.58786502       0.26739085      -0.06391448
C       -0.39386164       0.05246970      -1.42723424
C        1.55629102       0.16124662       0.82079130
O        2.16018167      -0.72054123       0.16593746
C       -0.72673036       1.62529604       0.37708415
N       -0.77699477       2.70224225       0.77869167
H       -0.86652571      -1.77541185       0.54730294
H       -1.14678840      -0.61518762       1.83696098
H       -2.35389835      -0.80826694       0.57353542
H       -0.90948710      -0.78103798      -1.89221839
H        0.97975493      -0.59866994      -1.70482008
H       -0.24028478       0.90296793      -2.08182630
H        1.77001671       1.22297660       0.64872978
H        1.12694822      -0.10593139       1.79187758
H        1.68898355      -0.73930311      -1.14065478
16
Frame=4 idx=011370 GeodesicLength=0.34022301875764926 rxn_smarts="[C:1]([C:2]([C:3]([H:11])([H:12])[H:13])([C:4]([O:5][H:16])([H:14])[H:15])[C:6]#[N:7])([H:8])([H:9])[H:10]>>[C:1]([C:2](=[C:3]([H:11])[H:13])[C:6]#[N:7])([H:8])([H:9])[H:10].[C:4](=[O:5])([H:14])[H:15].[H:12][H:16]"
C       -1.27702590      -0.79829855       0.76054432
C       -0.58549089       0.26393002      -0.06752320
C       -0.39719253       0.05541990      -1.43566964
C        1.55486950       0.17513992       0.82844040
O        2.14345993      -0.73782369       0.19569847
C       -0.73971380       1.62035625       0.37621475
N       -0.78197735       2.69438005       0.78600275
H       -0.88053431      -1.78521039       0.51698623
H       -1.12186562      -0.64489407       1.82812577
H       -2.35473005      -0.79816037       0.58475160
H       -0.94135401      -0.75676192      -1.90614795
H        0.98148590      -0.61297913      -1.70352418
H       -0.24121502       0.91123093      -2.08324921
H        1.78790239       1.22716679       0.62334402
H        1.15005923      -0.05386603       1.82000291
H        1.70332253      -0.75962970      -1.12399704
16
Frame=5 idx=011370 GeodesicLength=0.4250373534526724 rxn_smarts="[C:1]([C:2]([C:3]([H:11])([H:12])[H:13])([C:4]([O:5][H:16])([H:14])[H:15])[C:6]#[N:7])([H:8])([H:9])[H:10]>>[C:1]([C:2](=[C:3]([H:11])[H:13])[C:6]#[N:7])([H:8])([H:9])[H:10].[C:4](=[O:5])([H:14])[H:15].[H:12][H:16]"
C       -1.27438013      -0.80650786       0.75114347
C       -0.58324240       0.26034345      -0.07130503
C       -0.40057373       0.05810353      -1.44422600
C        1.55323766       0.18943713       0.83608194
O        2.12637122      -0.75348655       0.22615249
C       -0.75279517       1.61510193       0.37530410
N       -0.78654449       2.68616253       0.79310375
H       -0.89597175      -1.79479620       0.48593224
H       -1.09613700      -0.67541247       1.81812644
H       -2.35509427      -0.78808760       0.59697404
H       -0.97347472      -0.73137675      -1.91955738
H        0.98325646      -0.62751717      -1.70191607
H       -0.24221492       0.91929290      -2.08460790
H        1.80566964       1.23041463       0.59860680
H        1.17395243      -0.00098709       1.84614452
H        1.71794118      -0.78068443      -1.10595741
16
Frame=6 idx=011370 GeodesicLength=0.5098016305059907 rxn_smarts="[C:1]([C:2]([C:3]([H:11])([H:12])[H:13])([C:4]([O:5][H:16])([H:14])[H:15])[C:6]#[N:7])([H:8])([H:9])[H:10]>>[C:1]([C:2](=[C:3]([H:11])[H:13])[C:6]#[N:7])([H:8])([H:9])[H:10].[C:4](=[O:5])([H:14])[H:15].[H:12][H:16]"
C       -1.27183975      -0.81484875       0.74156500
C       -0.58110862       0.25662051      -0.07525401
C       -0.40405269       0.06048962      -1.45290754
C        1.55136931       0.20407908       0.84371908
O        2.10898676      -0.76755727       0.25723075
C       -0.76592840       1.60952885       0.37434958
N       -0.79072681       2.67760298       0.79992485
H       -0.91280272      -1.80406672       0.45433436
H       -1.06981028      -0.70662456       1.80690566
H       -2.35494946      -0.77814287       0.61013951
H       -1.00580061      -0.70490354      -1.93237016
H        0.98505915      -0.64221484      -1.70005568
H       -0.24337674       0.92712234      -2.08591426
H        1.82335665       1.23267933       0.57463672
H        1.19867696       0.05250068       1.87025926
H        1.73294725      -0.80226483      -1.08656314
16
Frame=7 idx=011370 GeodesicLength=0.5945310542948987 rxn_smarts="[C:1]([C:2]([C:3]([H:11])([H:12])[H:13])([C:4]([O:5][H:16])([H:14])[H:15])[C:6]#[N:7])([H:8])([H:9])[H:10]>>[C:1]([C:2](=[C:3]([H:11])[H:13])[C:6]#[N:7])([H:8])([H:9])[H:10].[C:4](=[O:5])([H:14])[H:15].[H:12][H:16]"
C       -1.26942378      -0.82330966       0.73181877
C       -0.57908417       0.25275444      -0.07936563
C       -0.40768079       0.06256160      -1.46172040
C        1.54924701       0.21902599       0.85135251
O        2.09135474      -0.78005931       0.28886900
C       -0.77908181       1.60364036       0.37335646
N       -0.79456295       2.66871933       0.80642202
H       -0.93098413      -1.81293089       0.42235362
H       -1.04308408      -0.73843212       1.79440252
H       -2.35424813      -0.76841681       0.62418739
H       -1.03826100      -0.67736991      -1.94451638
H        0.98689364      -0.65698299      -1.69800511
H       -0.24477373       0.93470464      -2.08717400
H        1.84099721       1.23392915       0.55150923
H        1.22428570       0.10643119       1.89231419
H        1.74840627      -0.82426502      -1.06580419
16
Frame=8 idx=011370 GeodesicLength=0.679241634370532 rxn_smarts="[C:1]([C:2]([C:3]([H:11])([H:12])[H:13])([C:4]([O:5][H:16])([H:14])[H:15])[C:6]#[N:7])([H:8])([H:9])[H:10]>>[C:1]([C:2](=[C:3]([H:11])[H:13])[C:6]#[N:7])([H:8])([H:9])[H:10].[C:4](=[O:5])([H:14])[H:15].[H:12][H:16]"
C       -1.26715386      -0.83188192       0.72190901
C       -0.57716887       0.24874325      -0.08363382
C       -0.41151088       0.06431638      -1.47067008
C        1.54684985       0.23425181       0.85897910
O        2.07350369      -0.79103489       0.32102434
C       -0.79223658       1.59743863       0.37233481
N       -0.79809360       2.65952440       0.81257000
H       -0.95045682      -1.82130691       0.39014158
H       -1.01615241      -0.77074438       1.78057350
H       -2.35294496      -0.75901524       0.63904365
H       -1.07078330      -0.64878935      -1.95593515
H        0.98875102      -0.67174784      -1.69582082
H       -0.24644787       0.94203711      -2.08838379
H        1.85862483       1.23413644       0.52924623
H        1.25084212       0.16066994       1.91227561
H        1.76437762      -0.84659745      -1.04365417
16
Frame=9 idx=011370 GeodesicLength=0.7642359338935446 rxn_smarts="[C:1]([C:2]([C:3]([H:11])([H:12])[H:13])([C:4]([O:5][H:16])([H:14])[H:15])[C:6]#[N:7])([H:8])([H:9])[H:10]>>[C:1]([C:2](=[C:3]([H:11])[H:13])[C:6]#[N:7])([H:8])([H:9])[H:10].[C:4](=[O:5])([H:14])[H:15].[H:12][H:16]"
C       -1.26505199      -0.84058394       0.71182653
C       -0.57532557       0.24456650      -0.08802727
C       -0.41558353       0.06580007      -1.47974062
C        1.54417587       0.24969340       0.86661950
O        2.05539927      -0.80067439       0.35364848
C       -0.80537309       1.59090935       0.37134458
N       -0.80128095       2.64998603       0.81845674
H       -0.97096509      -1.82913912       0.35786876
H       -0.98920871      -0.80337935       1.76548318
H       -2.35101607      -0.75008279       0.65450259
H       -1.10336361      -0.61919079      -1.96659533
H        0.99053342      -0.68648554      -1.69365430
H       -0.24842154       0.94917563      -2.08950565
H        1.87631497       1.23324542       0.50761655
H        1.27810731       0.21530743       1.93030716
H        1.78105931      -0.86914790      -1.02015091
16
Frame=10 idx=011370 GeodesicLength=0.849253462574705 rxn_smarts="[C:1]([C:2]([C:3]([H:11])([H:12])[H:13])([C:4]([O:5][H:16])([H:14])[H:15])[C:6]#[N:7])([H:8])([H:9])[H:10]>>[C:1]([C:2](=[C:3]([H:11])[H:13])[C:6]#[N:7])([H:8])([H:9])[H:10].[C:4](=[O:5])([H:14])[H:15].[H:12][H:16]"
C       -1.26310961      -0.84938389       0.70158068
C       -0.57358576       0.24025738      -0.09256539
C       -0.41996209       0.06700766      -1.48895451
C        1.54120625       0.26536979       0.87423450
O        2.03707217      -0.80890925       0.38671314
C       -0.81848544       1.58408001       0.37036611
N       -0.80426331       2.64016108       0.82399509
H       -0.99253400      -1.83636192       0.32563992
H       -0.96241390      -0.83633237       1.74905758
H       -2.34841979      -0.74165633       0.67056079
H       -1.13586024      -0.58859793      -1.97643290
H        0.99228583      -0.70109624      -1.69149330
H       -0.25072909       0.95609714      -2.09056578
H        1.89401805       1.23125894       0.48683356
H        1.30640198       0.27005651       1.94620557
H        1.79837894      -0.89195059      -0.99517507
16
Frame=11 idx=011370 GeodesicLength=0.9342814737359466 rxn_smarts="[C:1]([C:2]([C:3]([H:11])([H:12])[H:13])([C:4]([O:5][H:16])([H:14])[H:15])[C:6]#[N:7])([H:8])([H:9])[H:10]>>[C:1]([C:2](=[C:3]([H:11])[H:13])[C:6]#[N:7])([H:8])([H:9])[H:10].[C:4](=[O:5])([H:14])[H:15].[H:12][H:16]"
C       -1.26133376      -0.85827252       0.69116886
C       -0.57195086       0.23582762      -0.09724396
C       -0.42469951       0.06797005      -1.49831508
C        1.53792835       0.28128182       0.88181120
O        2.01850701      -0.81579653       0.42018847
C       -0.83157189       1.57696202       0.36942010
N       -0.80709394       2.63006873       0.82919569
H       -1.01504742      -1.84293539       0.29356953
H       -0.93592202      -0.86951194       1.73130648
H       -2.34513454      -0.73381252       0.68711683
H       -1.16817973      -0.55706601      -1.98541241
H        0.99398356      -0.71551358      -1.68940043
H       -0.25339072       0.96282520      -2.09156026
H        1.91173513       1.22815485       0.46688124
H        1.33579097       0.32480377       1.95994319
H        1.81637937      -0.91498557      -0.96866946
16
Frame=12 idx=011370 GeodesicLength=1.0193213738187688 rxn_smarts="[C:1]([C:2]([C:3]([H:11])([H:12])[H:13])([C:4]([O:5][H:16])([H:14])[H:15])[C:6]#[N:7])([H:8])([H:9])[H:10]>>[C:1]([C:2](=[C:3]([H:11])[H:13])[C:6]#[N:7])([H:8])([H:9])[H:10].[C:4](=[O:5])([H:14])[H:15].[H:12][H:16]"
C       -1.25973010      -0.86724239       0.68058505
C       -0.57042249       0.23129132      -0.10205617
C       -0.42984492       0.06873326      -1.50782130
C        1.53433618       0.29742723       0.88933854
O        1.99968448      -0.82137885       0.45405138
C       -0.84463566       1.56956514       0.36853493
N       -0.80982598       2.61972477       0.83408363
H       -1.03839249      -1.84882304       0.26174709
H       -0.90985889      -0.90285448       1.71223917
H       -2.34114867      -0.72662368       0.70406889
H       -1.20022949      -0.52464778      -1.99350456
H        0.99559164      -0.72968809      -1.68743855
H       -0.25641533       0.96939700      -2.09247900
H        1.92945457       1.22389672       0.44771482
H        1.36633341       0.37948143       1.97147138
H        1.83510374      -0.93825854      -0.94053529
16
Frame=13 idx=011370 GeodesicLength=1.104448973852561 rxn_smarts="[C:1]([C:2]([C:3]([H:11])([H:12])[H:13])([C:4]([O:5][H:16])([H:14])[H:15])[C:6]#[N:7])([H:8])([H:9])[H:10]>>[C:1]([C:2](=[C:3]([H:11])[H:13])[C:6]#[N:7])([H:8])([H:9])[H:10].[C:4](=[O:5])([H:14])[H:15].[H:12][H:16]"
C       -1.25829993      -0.87629463       0.66981844
C       -0.56898288       0.22665758      -0.10698483
C       -0.43543814       0.06936589      -1.51746225
C        1.53043149       0.31378735       0.89683426
O        1.98054772      -0.82576068       0.48829892
C       -0.85767271       1.56189296       0.36775642
N       -0.81246504       2.60912643       0.83873089
H       -1.06235852      -1.85402984       0.23026474
H       -0.88435381      -0.93620846       1.69194361
H       -2.33647196      -0.72017955       0.72124056
H       -1.23195856      -0.49141157      -2.00069436
H        0.99704415      -0.74357130      -1.68571163
H       -0.25983047       0.97587467      -2.09330561
H        1.94717622       1.21841246       0.42918876
H        1.39796986       0.43408685       1.98078716
H        1.85466258      -0.96174815      -0.91070508
16
Frame=14 idx=011370 GeodesicLength=1.1895066797930742 rxn_smarts="[C:1]([C:2]([C:3]([H:11])([H:12])[H:13])([C:4]([O:5][H:16])([H:14])[H:15])[C:6]#[N:7])([H:8])([H:9])[H:10]>>[C:1]([C:2](=[C:3]([H:11])[H:13])[C:6]#[N:7])([H:8])([H:9])[H:10].[C:4](=[O:5])([H:14])[H:15].[H:12][H:16]"
C       -1.25703568      -0.88540708       0.65886488
C       -0.56765287       0.22195747      -0.11204004
C       -0.44152788       0.06990460      -1.52724839
C        1.52620533       0.33040570       0.90425895
O        1.96110368      -0.82889659       0.52291367
C       -0.87070278       1.55396916       0.36708788
N       -0.81513011       2.59831433       0.84312044
H       -1.08694498      -1.85851896       0.19916906
H       -0.85947993      -0.96957565       1.67039115
H       -2.33108409      -0.71449355       0.73861837
H       -1.26322343      -0.45744266      -2.00696563
H        0.99834936      -0.75710029      -1.68424147
H       -0.26364955       0.98227654      -2.09405185
H        1.96484099       1.21170552       0.41139369
H        1.43090907       0.48840166       1.98774533
H        1.87502286      -0.98550020      -0.87901602
16
Frame=15 idx=011370 GeodesicLength=1.2744474940413397 rxn_smarts="[C:1]([C:2]([C:3]([H:11])([H:12])[H:13])([C:4]([O:5][H:16])([H:14])[H:15])[C:6]#[N:7])([H:8])([H:9])[H:10]>>[C:1]([C:2](=[C:3]([H:11])[H:13])[C:6]#[N:7])([H:8])([H:9])[H:10].[C:4](=[O:5])([H:14])[H:15].[H:12][H:16]"
C       -1.25592821      -0.89456710       0.64771657
C       -0.56642717       0.21721483      -0.11721542
C       -0.44814755       0.07041677      -1.53717363
C        1.52166782       0.34729906       0.91160269
O        1.94131070      -0.83082561       0.55789421
C       -0.88373253       1.54580798       0.36655881
N       -0.81787496       2.58730596       0.84729533
H       -1.11202234      -1.86228822       0.16850620
H       -0.83529736      -1.00288227       1.64762477
H       -2.32498660      -0.70960928       0.75610014
H       -1.29393979      -0.42283488      -2.01231892
H        0.99947890      -0.77021446      -1.68309716
H       -0.26790175       0.98865921      -2.09471346
H        1.98240757       1.20373192       0.39426727
H        1.46518142       0.54233203       1.99227762
H        1.89621185      -1.00954595      -0.84532503
16
Frame=16 idx=011370 GeodesicLength=1.3592555603651115 rxn_smarts="[C:1]([C:2]([C:3]([H:11])([H:12])[H:13])([C:4]([O:5][H:16])([H:14])[H:15])[C:6]#[N:7])([H:8])([H:9])[H:10]>>[C:1]([C:2](=[C:3]([H:11])[H:13])[C:6]#[N:7])([H:8])([H:9])[H:10].[C:4](=[O:5])([H:14])[H:15].[H:12][H:16]"
C       -1.25496256      -0.90376402       0.63636143
C       -0.56529643       0.21245333      -0.12250640
C       -0.45532717       0.07097677      -1.54723317
C        1.51683601       0.36448898       0.91885498
O        1.92112504      -0.83157321       0.59325287
C       -0.89676952       1.53742135       0.36619733
N       -0.82075623       2.57611566       0.85130151
H       -1.13746699      -1.86534146       0.13831000
H       -0.81185023      -1.03605060       1.62369396
H       -2.31817761      -0.70555999       0.77359619
H       -1.32404765      -0.38767865      -2.01676080
H        1.00039413      -0.78286929      -1.68236051
H       -0.27261618       0.99508619      -2.09528717
H        1.99982695       1.19444229       0.37774685
H        1.50079928       0.59576489       1.99429623
H        1.91828915      -1.03391224      -0.80946330
