15
Frame=0 idx=007512 GeodesicLength=0.0 rxn_smarts="[O:1]([C:2]([C:3]([C:4](=[O:5])[C:6]([O:7][H:15])([H:13])[H:14])([H:11])[H:12])([H:9])[H:10])[H:8]>>[O:1]([C:2]([C:3](/[C:4]([O:5][H:15])=[C:6](/[O:7][H:13])[H:14])([H:11])[H:12])([H:9])[H:10])[H:8]"
O       -1.55455537       1.62159287      -0.25968787
C       -1.68434939       0.30930876      -0.77438123
C       -0.89069904      -0.62106239       0.12064048
C        0.59402749      -0.39833750      -0.00999313
O        1.14144709      -0.31612838      -1.12150494
C        1.38592784      -0.26231587       1.15557456
O        2.86706716      -0.22276809       0.65045558
H       -1.80586170       2.24874310      -0.93789055
H       -1.29050424       0.24269403      -1.79344223
H       -2.73605794      -0.00196810      -0.78479304
H       -1.08980295      -1.65656068      -0.17149157
H       -1.20448008      -0.49676921       1.15938109
H        2.33543071       0.67517758       1.05493222
H        1.29794883      -0.87045448       2.04278120
H        2.63446154      -0.25115164      -0.33058053
15
Frame=1 idx=007512 GeodesicLength=0.09020333237341295 rxn_smarts="[O:1]([C:2]([C:3]([C:4](=[O:5])[C:6]([O:7][H:15])([H:13])[H:14])([H:11])[H:12])([H:9])[H:10])[H:8]>>[O:1]([C:2]([C:3](/[C:4]([O:5][H:15])=[C:6](/[O:7][H:13])[H:14])([H:11])[H:12])([H:9])[H:10])[H:8]"
O       -1.53637410       1.62095082      -0.25748391
C       -1.67874453       0.31018383      -0.77278623
C       -0.89164963      -0.62773459       0.12045276
C        0.59364617      -0.41601958      -0.00996453
O        1.14552779      -0.34081244      -1.12311256
C        1.38775827      -0.26526193       1.15263501
O        2.85686105      -0.20708996       0.64815463
H       -1.79069472       2.25057910      -0.93228481
H       -1.28759673       0.24102826      -1.79277604
H       -2.73309643       0.00794488      -0.78142464
H       -1.09828472      -1.66101802      -0.17421549
H       -1.20343800      -0.50204952       1.15961394
H        2.32169915       0.69375177       1.07050117
H        1.29584172      -0.86911393       2.04272006
H        2.61854471      -0.23533869      -0.35002938
15
Frame=2 idx=007512 GeodesicLength=0.18059829223154014 rxn_smarts="[O:1]([C:2]([C:3]([C:4](=[O:5])[C:6]([O:7][H:15])([H:13])[H:14])([H:11])[H:12])([H:9])[H:10])[H:8]>>[O:1]([C:2]([C:3](/[C:4]([O:5][H:15])=[C:6](/[O:7][H:13])[H:14])([H:11])[H:12])([H:9])[H:10])[H:8]"
O       -1.51829470       1.62011906      -0.25510371
C       -1.67303686       0.31102964      -0.77117007
C       -0.89243469      -0.63438326       0.12017440
C        0.59335800      -0.43342420      -0.00986486
O        1.14953621      -0.36501116      -1.12466924
C        1.38962621      -0.26773912       1.14956968
O        2.84662756      -0.19138594       0.64597618
H       -1.77564170       2.25234380      -0.92634863
H       -1.28457459       0.23955541      -1.79208565
H       -2.72990682       0.01769451      -0.77808087
H       -1.10639699      -1.66538485      -0.17718414
H       -1.20231606      -0.50753161       1.15975346
H        2.30760812       0.71214869       1.08621214
H        1.29356173      -0.86697136       2.04270374
H        2.60228457      -0.22105964      -0.36988242
15
Frame=3 idx=007512 GeodesicLength=0.2711055601962149 rxn_smarts="[O:1]([C:2]([C:3]([C:4](=[O:5])[C:6]([O:7][H:15])([H:13])[H:14])([H:11])[H:12])([H:9])[H:10])[H:8]>>[O:1]([C:2]([C:3](/[C:4]([O:5][H:15])=[C:6](/[O:7][H:13])[H:14])([H:11])[H:12])([H:9])[H:10])[H:8]"
O       -1.50031816       1.61911788      -0.25257271
C       -1.66723701       0.31185096      -0.76952876
C       -0.89305682      -0.64099004       0.11981807
C        0.59316520      -0.45053243      -0.00969903
O        1.15345401      -0.38876051      -1.12619699
C        1.39153857      -0.26980265       1.14637015
O        2.83636788      -0.17555455       0.64392732
H       -1.76069263       2.25404048      -0.92012384
H       -1.28145792       0.23825552      -1.79137006
H       -2.72650526       0.02728750      -0.77473924
H       -1.11415306      -1.66965005      -0.18036000
H       -1.20111079      -0.51317292       1.15981221
H        2.29310062       0.73040052       1.10214815
H        1.29113655      -0.86415328       2.04266557
H        2.58576881      -0.20833643      -0.39015084
15
Frame=4 idx=007512 GeodesicLength=0.36167278651492235 rxn_smarts="[O:1]([C:2]([C:3]([C:4](=[O:5])[C:6]([O:7][H:15])([H:13])[H:14])([H:11])[H:12])([H:9])[H:10])[H:8]>>[O:1]([C:2]([C:3](/[C:4]([O:5][H:15])=[C:6](/[O:7][H:13])[H:14])([H:11])[H:12])([H:9])[H:10])[H:8]"
O       -1.48246969       1.61796775      -0.24991623
C       -1.66135879       0.31265224      -0.76786231
C       -0.89351371      -0.64752924       0.11939438
C        0.59307223      -0.46730069      -0.00947084
O        1.15727260      -0.41206730      -1.12771165
C        1.39350663      -0.27148427       1.14303184
O        2.82609234      -0.15952026       0.64201130
H       -1.74586966       2.25567056      -0.91364935
H       -1.27826449       0.23711705      -1.79063073
H       -2.72290640       0.03671495      -0.77138959
H       -1.12154671      -1.67379724      -0.18371109
H       -1.19981545      -0.51892916       1.15980057
H        2.27814640       0.74851445       1.11839346
H        1.28860116      -0.86076777       2.04254552
H        2.56905352      -0.19724107      -0.41083530
15
Frame=5 idx=007512 GeodesicLength=0.45226810343302204 rxn_smarts="[O:1]([C:2]([C:3]([C:4](=[O:5])[C:6]([O:7][H:15])([H:13])[H:14])([H:11])[H:12])([H:9])[H:10])[H:8]>>[O:1]([C:2]([C:3](/[C:4]([O:5][H:15])=[C:6](/[O:7][H:13])[H:14])([H:11])[H:12])([H:9])[H:10])[H:8]"
O       -1.46475663       1.61669095      -0.24715614
C       -1.65541479       0.31344073      -0.76616594
C       -0.89380521      -0.65398154       0.11891399
C        0.59308348      -0.48370598      -0.00919246
O        1.16097226      -0.43496919      -1.12924101
C        1.39554033      -0.27282427       1.13954383
O        2.81579219      -0.14316409       0.64024095
H       -1.73117546       2.25724141      -0.90696236
H       -1.27501814       0.23612736      -1.78986675
H       -2.71912728       0.04598411      -0.76800727
H       -1.12858726      -1.67781496      -0.18720190
H       -1.19842030      -0.52475981       1.15973048
H        2.26265503       0.76651780       1.13504133
H        1.28599173      -0.85693513       2.04227941
H        2.55227004      -0.18784738      -0.43195617
15
Frame=6 idx=007512 GeodesicLength=0.5428811725066212 rxn_smarts="[O:1]([C:2]([C:3]([C:4](=[O:5])[C:6]([O:7][H:15])([H:13])[H:14])([H:11])[H:12])([H:9])[H:10])[H:8]>>[O:1]([C:2]([C:3](/[C:4]([O:5][H:15])=[C:6](/[O:7][H:13])[H:14])([H:11])[H:12])([H:9])[H:10])[H:8]"
O       -1.44720566       1.61530807      -0.24431323
C       -1.64941850       0.31422228      -0.76444074
C       -0.89392750      -0.66032225       0.11838505
C        0.59320474      -0.49970468      -0.00887208
O        1.16454776      -0.45746911      -1.13080128
C        1.39765486      -0.27384447       1.13590030
O        2.80546703      -0.12639420       0.63861264
H       -1.71663497       2.25875626      -0.90009633
H       -1.27173672       0.23527995      -1.78908028
H       -2.71518261       0.05508660      -0.76458504
H       -1.13526550      -1.68168781      -0.19080519
H       -1.19691413      -0.53062456       1.15961078
H        2.24658464       0.78441287       1.15218303
H        1.28335503      -0.85275283       2.04181242
H        2.53547154      -0.18026612      -0.45351006
15
Frame=7 idx=007512 GeodesicLength=0.6334949916804482 rxn_smarts="[O:1]([C:2]([C:3]([C:4](=[O:5])[C:6]([O:7][H:15])([H:13])[H:14])([H:11])[H:12])([H:9])[H:10])[H:8]>>[O:1]([C:2]([C:3](/[C:4]([O:5][H:15])=[C:6](/[O:7][H:13])[H:14])([H:11])[H:12])([H:9])[H:10])[H:8]"
O       -1.42984037       1.61384182      -0.24140720
C       -1.64338437       0.31500422      -0.76268519
C       -0.89387571      -0.66652796       0.11781525
C        0.59344198      -0.51525684      -0.00852264
O        1.16798993      -0.47957334      -1.13241373
C        1.39986347      -0.27456114       1.13209430
O        2.79510514      -0.10910019       0.63712082
H       -1.70227254       2.26022167      -0.89308373
H       -1.26844264       0.23456940      -1.78827274
H       -2.71108846       0.06401874      -0.76110734
H       -1.14157419      -1.68540117      -0.19449330
H       -1.19528287      -0.53648461       1.15945067
H        2.22986128       0.80220318       1.16991272
H        1.28073894      -0.84832286       2.04108828
H        2.51876042      -0.17463093      -0.47549617
15
Frame=8 idx=007512 GeodesicLength=0.7239881089280812 rxn_smarts="[O:1]([C:2]([C:3]([C:4](=[O:5])[C:6]([O:7][H:15])([H:13])[H:14])([H:11])[H:12])([H:9])[H:10])[H:8]>>[O:1]([C:2]([C:3](/[C:4]([O:5][H:15])=[C:6](/[O:7][H:13])[H:14])([H:11])[H:12])([H:9])[H:10])[H:8]"
O       -1.41270021       1.61231865      -0.23845933
C       -1.63733532       0.31579532      -0.76089779
C       -0.89364483      -0.67256725       0.11721205
C        0.59380145      -0.53030464      -0.00816448
O        1.17128848      -0.50126305      -1.13410562
C        1.40218226      -0.27497411       1.12811521
O        2.78467578      -0.09114091       0.63574272
H       -1.68813542       2.26164587      -0.88596039
H       -1.26516873       0.23399412      -1.78744502
H       -2.70686776       0.07277168      -0.75755620
H       -1.14750189      -1.68893627      -0.19823637
H       -1.19350787      -0.54229371       1.15925945
H        2.21239036       0.81988634       1.18834493
H        1.27821167      -0.84376295       2.04003691
H        2.50231203      -0.17116910      -0.49788607
15
Frame=9 idx=007512 GeodesicLength=0.8144107871485069 rxn_smarts="[O:1]([C:2]([C:3]([C:4](=[O:5])[C:6]([O:7][H:15])([H:13])[H:14])([H:11])[H:12])([H:9])[H:10])[H:8]>>[O:1]([C:2]([C:3](/[C:4]([O:5][H:15])=[C:6](/[O:7][H:13])[H:14])([H:11])[H:12])([H:9])[H:10])[H:8]"
O       -1.39584331       1.61076443      -0.23548028
C       -1.63129531       0.31660442      -0.75907963
C       -0.89321837      -0.67841041       0.11657039
C        0.59429854      -0.54477140      -0.00782086
O        1.17443149      -0.52250755      -1.13591103
C        1.40462772      -0.27506916       1.12395039
O        2.77418648      -0.07243942       0.63448665
H       -1.67430331       2.26303911      -0.87873870
H       -1.26194533       0.23356814      -1.78660193
H       -2.70254088       0.08131973      -0.75392404
H       -1.15300907      -1.69227461      -0.20202883
H       -1.19156911      -0.54802471       1.15903504
H        2.19415440       0.83744398       1.20755736
H        1.27581032      -0.83911660       2.03861545
H        2.48621573      -0.17012594      -0.52063001
15
Frame=10 idx=007512 GeodesicLength=0.904620892380465 rxn_smarts="[O:1]([C:2]([C:3]([C:4](=[O:5])[C:6]([O:7][H:15])([H:13])[H:14])([H:11])[H:12])([H:9])[H:10])[H:8]>>[O:1]([C:2]([C:3](/[C:4]([O:5][H:15])=[C:6](/[O:7][H:13])[H:14])([H:11])[H:12])([H:9])[H:10])[H:8]"
O       -1.37932848       1.60920415      -0.23247120
C       -1.62529553       0.31744447      -0.75722762
C       -0.89259226      -0.68402868       0.11588879
C        0.59493825      -0.55858971      -0.00751913
O        1.17742955      -0.54321366      -1.13785294
C        1.40721158      -0.27480755       1.11959070
O        2.76356341      -0.05279349       0.63329115
H       -1.66084615       2.26441470      -0.87142771
H       -1.25881143       0.23331003      -1.78574321
H       -2.69813939       0.08965002      -0.75019569
H       -1.15807611      -1.69539820      -0.20586536
H       -1.18944644      -0.55364890       1.15877941
H        2.17503757       0.85489687       1.22764750
H        1.27362854      -0.83448407       2.03674926
H        2.47072690      -0.17195598      -0.54364395
15
Frame=11 idx=007512 GeodesicLength=0.9946246714613511 rxn_smarts="[O:1]([C:2]([C:3]([C:4](=[O:5])[C:6]([O:7][H:15])([H:13])[H:14])([H:11])[H:12])([H:9])[H:10])[H:8]>>[O:1]([C:2]([C:3](/[C:4]([O:5][H:15])=[C:6](/[O:7][H:13])[H:14])([H:11])[H:12])([H:9])[H:10])[H:8]"
O       -1.36325606       1.60766544      -0.22941912
C       -1.61937644       0.31832976      -0.75534170
C       -0.89174945      -0.68938766       0.11515069
C        0.59573573      -0.57165168      -0.00729233
O        1.18029486      -0.56324364      -1.13996324
C        1.40994174      -0.27410654       1.11502418
O        2.75277079      -0.03205585       0.63210560
H       -1.64789482       2.26578924      -0.86401007
H       -1.25581011       0.23326201      -1.78487225
H       -2.69369727       0.09772405      -0.74636708
H       -1.16264396      -1.69828464      -0.20977058
H       -1.18711776      -0.55915598       1.15848032
H        2.15499771       0.87224418       1.24869027
H        1.27173949      -0.82989505       2.03437965
H        2.45606556      -0.17723365      -0.56679434
15
Frame=12 idx=007512 GeodesicLength=1.084402406118512 rxn_smarts="[O:1]([C:2]([C:3]([C:4](=[O:5])[C:6]([O:7][H:15])([H:13])[H:14])([H:11])[H:12])([H:9])[H:10])[H:8]>>[O:1]([C:2]([C:3](/[C:4]([O:5][H:15])=[C:6](/[O:7][H:13])[H:14])([H:11])[H:12])([H:9])[H:10])[H:8]"
O       -1.34774067       1.60617881      -0.22629679
C       -1.61358994       0.31927898      -0.75341806
C       -0.89067138      -0.69445213       0.11432912
C        0.59670789      -0.58383838      -0.00719013
O        1.18303478      -0.58243013      -1.14229475
C        1.41282407      -0.27286416       1.11022740
O        2.74174711      -0.01004011       0.63086517
H       -1.63560739       2.26718578      -0.85644456
H       -1.25300071       0.23348293      -1.78399091
H       -2.68926079       0.10550010      -0.74242498
H       -1.16664774      -1.70091129      -0.21378675
H       -1.18455626      -0.56454665       1.15811770
H        2.13398111       0.88950119       1.27075005
H        1.27022065      -0.82535906       2.03143751
H        2.44255926      -0.18668588      -0.58988002
15
Frame=13 idx=007512 GeodesicLength=1.1740891549527515 rxn_smarts="[O:1]([C:2]([C:3]([C:4](=[O:5])[C:6]([O:7][H:15])([H:13])[H:14])([H:11])[H:12])([H:9])[H:10])[H:8]>>[O:1]([C:2]([C:3](/[C:4]([O:5][H:15])=[C:6](/[O:7][H:13])[H:14])([H:11])[H:12])([H:9])[H:10])[H:8]"
O       -1.33291998       1.60477409      -0.22306456
C       -1.60799028       0.32031136      -0.75145762
C       -0.88933906      -0.69918774       0.11338866
C        0.59787022      -0.59501747      -0.00725769
O        1.18568314      -0.60054967      -1.14488469
C        1.41585736      -0.27093478       1.10517904
O        2.73042671       0.01342509       0.62945769
H       -1.62417192       2.26862791      -0.84866755
H       -1.25043278       0.23404839      -1.78310317
H       -2.68487635       0.11292306      -0.73837456
H       -1.17000587      -1.70325539      -0.21798047
H       -1.18174108      -0.56983670       1.15766237
H        2.11199571       0.90666790       1.29387905
H        1.26916376      -0.82085145       2.02785792
H        2.43048041      -0.20114457      -0.61263443
15
Frame=14 idx=007512 GeodesicLength=1.2637135967031774 rxn_smarts="[O:1]([C:2]([C:3]([C:4](=[O:5])[C:6]([O:7][H:15])([H:13])[H:14])([H:11])[H:12])([H:9])[H:10])[H:8]>>[O:1]([C:2]([C:3](/[C:4]([O:5][H:15])=[C:6](/[O:7][H:13])[H:14])([H:11])[H:12])([H:9])[H:10])[H:8]"
O       -1.31895355       1.60348456      -0.21966577
C       -1.60265121       0.32145225      -0.74945441
C       -0.88773566      -0.70355979       0.11228282
C        0.59923729      -0.60504596      -0.00756355
O        1.18825672      -0.61736183      -1.14780382
C        1.41902966      -0.26815453       1.09984535
O        2.71871642       0.03852883       0.62775546
H       -1.61381607       2.27015001      -0.84058993
H       -1.24818392       0.23505195      -1.78220940
H       -2.68061109       0.11993672      -0.73420504
H       -1.17263975      -1.70529480      -0.22243317
H       -1.17864986      -0.57505425       1.15707684
H        2.08904981       0.92375392       1.31810441
H        1.26864593      -0.81632210       2.02356535
H        2.42030528      -0.22156498      -0.63470514
15
Frame=15 idx=007512 GeodesicLength=1.3534967360146286 rxn_smarts="[O:1]([C:2]([C:3]([C:4](=[O:5])[C:6]([O:7][H:15])([H:13])[H:14])([H:11])[H:12])([H:9])[H:10])[H:8]>>[O:1]([C:2]([C:3](/[C:4]([O:5][H:15])=[C:6](/[O:7][H:13])[H:14])([H:11])[H:12])([H:9])[H:10])[H:8]"
O       -1.30600015       1.60234253      -0.21604694
C       -1.59764113       0.32272428      -0.74741023
C       -0.88584870      -0.70753742       0.11096386
C        0.60081922      -0.61379100      -0.00816569
O        1.19079457      -0.63261928      -1.15110351
C        1.42232319      -0.26434175       1.09419495
O        2.70652691       0.06541231       0.62559246
H       -1.60477104       2.27178311      -0.83211817
H       -1.24631410       0.23658680      -1.78131447
H       -2.67652681       0.12648118      -0.72992525
H       -1.17447140      -1.70701019      -0.22723309
H       -1.17526821      -0.58023067       1.15632099
H        2.06523848       0.94072700       1.34344684
H        1.26875622      -0.81170248       2.01848955
H        2.41238294      -0.24882442      -0.65569130
15
Frame=16 idx=007512 GeodesicLength=1.4435112062384607 rxn_smarts="[O:1]([C:2]([C:3]([C:4](=[O:5])[C:6]([O:7][H:15])([H:13])[H:14])([H:11])[H:12])([H:9])[H:10])[H:8]>>[O:1]([C:2]([C:3](/[C:4]([O:5][H:15])=[C:6](/[O:7][H:13])[H:14])([H:11])[H:12])([H:9])[H:10])[H:8]"
O       -1.29420505       1.60137865      -0.21215778
C       -1.59303001       0.32414923      -0.74532696
C       -0.88367487      -0.71109655       0.10938407
C        0.60261817      -0.62114615      -0.00912678
O        1.19332900      -0.64610874      -1.15484382
C        1.42571044      -0.25931910       1.08819037
O        2.69374881       0.09417997       0.62277312
H       -1.59725757       2.27355889      -0.82315909
H       -1.24488688       0.23873925      -1.78042374
H       -2.67269129       0.13250671      -0.72554042
H       -1.17544565      -1.70838733      -0.23246324
H       -1.17158685      -0.58539784       1.15535501
H        2.04070586       0.95752104       1.36990202
H        1.26957733      -0.80691586       2.01255931
H        2.40708855      -0.28366217      -0.67512207
