14
Frame=0 idx=000775 GeodesicLength=0.0 rxn_smarts="[C:1]([C:2]12[C:3]([H:10])([H:11])[C:4]([H:12])([C:5]1([H:13])[H:14])[O:6]2)([H:7])([H:8])[H:9]>>[C:1]([C:2]([C:3]([C:4](=[C:5]([H:13])[H:14])[H:12])([H:10])[H:11])=[O:6])([H:7])([H:8])[H:9]"
C        1.64929127      -0.22525123      -0.43721580
C        0.37285213       0.28990658       0.17901188
C       -0.79124580       0.86975642      -0.65413526
C       -1.34221822       0.26467963       0.58905378
C       -0.81744334      -1.04879728       0.55997296
O        0.39500288       0.98840738       1.30243406
H        2.24584482       0.65200427      -0.70242426
H        1.47288435      -0.82285164      -1.33151769
H        2.20078257      -0.81028989       0.29718741
H       -0.79429327       1.95135095      -0.71783030
H       -1.06481197       0.35777403      -1.57486298
H       -1.89880691       0.75694216       1.37617791
H       -0.71976022      -1.61548646       1.47706077
H       -0.90807833      -1.60814488      -0.36291251
14
Frame=1 idx=000775 GeodesicLength=0.05760009225460569 rxn_smarts="[C:1]([C:2]12[C:3]([H:10])([H:11])[C:4]([H:12])([C:5]1([H:13])[H:14])[O:6]2)([H:7])([H:8])[H:9]>>[C:1]([C:2]([C:3]([C:4](=[C:5]([H:13])[H:14])[H:12])([H:10])[H:11])=[O:6])([H:7])([H:8])[H:9]"
C        1.65855975      -0.22046956      -0.43920969
C        0.38255344       0.29084063       0.17768884
C       -0.78571502       0.86955365      -0.64916831
C       -1.34365560       0.26421224       0.59303506
C       -0.82977535      -1.05400564       0.55866150
O        0.39769117       0.98867932       1.30208719
H        2.24388757       0.65653332      -0.72877443
H        1.47803306      -0.83611692      -1.32044735
H        2.22326223      -0.78641471       0.30010532
H       -0.79112070       1.95156432      -0.71026642
H       -1.05600570       0.36000541      -1.57224689
H       -1.90631651       0.75441548       1.37708574
H       -0.74012873      -1.62458869       1.47442835
H       -0.93126960      -1.61420885      -0.36297892
14
Frame=2 idx=000775 GeodesicLength=0.11512328108627148 rxn_smarts="[C:1]([C:2]12[C:3]([H:10])([H:11])[C:4]([H:12])([C:5]1([H:13])[H:14])[O:6]2)([H:7])([H:8])[H:9]>>[C:1]([C:2]([C:3]([C:4](=[C:5]([H:13])[H:14])[H:12])([H:10])[H:11])=[O:6])([H:7])([H:8])[H:9]"
C        1.66801428      -0.21552556      -0.44125495
C        0.39245091       0.29185420       0.17639287
C       -0.78010653       0.86922118      -0.64409505
C       -1.34502299       0.26367984       0.59712675
C       -0.84228376      -1.05924687       0.55725408
O        0.40047881       0.98881717       1.30185216
H        2.24168649       0.66061142      -0.75537383
H        1.48357142      -0.84935812      -1.30878331
H        2.24592509      -0.76185349       0.30260174
H       -0.78792546       1.95163472      -0.70266559
H       -1.04711586       0.36210292      -1.56950136
H       -1.91387561       0.75187066       1.37792702
H       -0.76073727      -1.63372430       1.47161881
H       -0.95505953      -1.62008377      -0.36309934
14
Frame=3 idx=000775 GeodesicLength=0.1725334503420259 rxn_smarts="[C:1]([C:2]12[C:3]([H:10])([H:11])[C:4]([H:12])([C:5]1([H:13])[H:14])[O:6]2)([H:7])([H:8])[H:9]>>[C:1]([C:2]([C:3]([C:4](=[C:5]([H:13])[H:14])[H:12])([H:10])[H:11])=[O:6])([H:7])([H:8])[H:9]"
C        1.67765027      -0.21041847      -0.44335657
C        0.40254664       0.29297297       0.17510934
C       -0.77443353       0.86874810      -0.63892146
C       -1.34631692       0.26307760       0.60133010
C       -0.85495476      -1.06451335       0.55575709
O        0.40336276       0.98884406       1.30171275
H        2.23929642       0.66420174      -0.78210941
H        1.48951336      -0.86247668      -1.29656697
H        2.26867431      -0.73670873       0.30463325
H       -0.78473813       1.95154737      -0.69504811
H       -1.03816234       0.36404334      -1.56662056
H       -1.92148319       0.74930596       1.37869250
H       -0.78152617      -1.64286572       1.46864250
H       -0.97942873      -1.62575819      -0.36325447
14
Frame=4 idx=000775 GeodesicLength=0.22982151049753888 rxn_smarts="[C:1]([C:2]12[C:3]([H:10])([H:11])[C:4]([H:12])([C:5]1([H:13])[H:14])[O:6]2)([H:7])([H:8])[H:9]>>[C:1]([C:2]([C:3]([C:4](=[C:5]([H:13])[H:14])[H:12])([H:10])[H:11])=[O:6])([H:7])([H:8])[H:9]"
C        1.68746263      -0.20514533      -0.44551940
C        0.41284318       0.29423168       0.17382515
C       -0.76870958       0.86812807      -0.63366182
C       -1.34753404       0.26239907       0.60564717
C       -0.86777531      -1.06980488       0.55418143
O        0.40634128       0.98879403       1.30165892
H        2.23678944       0.66728126      -0.80886037
H        1.49586684      -0.87536688      -1.28386383
H        2.29139815      -0.71110974       0.30616755
H       -0.78159141       1.95129963      -0.68744341
H       -1.02916723       0.36580266      -1.56361337
H       -1.92913898       0.74672091       1.37938089
H       -0.80242897      -1.65199470       1.46552373
H       -1.00435600      -1.63123578      -0.36342264
14
Frame=5 idx=000775 GeodesicLength=0.2870933164266314 rxn_smarts="[C:1]([C:2]12[C:3]([H:10])([H:11])[C:4]([H:12])([C:5]1([H:13])[H:14])[O:6]2)([H:7])([H:8])[H:9]>>[C:1]([C:2]([C:3]([C:4](=[C:5]([H:13])[H:14])[H:12])([H:10])[H:11])=[O:6])([H:7])([H:8])[H:9]"
C        1.69744777      -0.19970865      -0.44775539
C        0.42334960       0.29567310       0.17251997
C       -0.76294112       0.86736939      -0.62835192
C       -1.34866305       0.26163961       0.61008818
C       -0.88074859      -1.07515956       0.55254877
O        0.40944414       0.98871810       1.30170565
H        2.23425007       0.66992808      -0.83550795
H        1.50258517      -0.88794494      -1.27077305
H        2.31399563      -0.68520202       0.30724095
H       -0.77849542       1.95092422      -0.67991247
H       -1.02016220       0.36736211      -1.56053103
H       -1.93682168       0.74412186       1.37999533
H       -0.82338423      -1.66114901       1.46231786
H       -1.02985609      -1.63657228      -0.36358491
14
Frame=6 idx=000775 GeodesicLength=0.34396615084622856 rxn_smarts="[C:1]([C:2]12[C:3]([H:10])([H:11])[C:4]([H:12])([C:5]1([H:13])[H:14])[O:6]2)([H:7])([H:8])[H:9]>>[C:1]([C:2]([C:3]([C:4](=[C:5]([H:13])[H:14])[H:12])([H:10])[H:11])=[O:6])([H:7])([H:8])[H:9]"
C        1.70760419      -0.19412162      -0.45004490
C        0.43405641       0.29723930       0.17122392
C       -0.75712319       0.86642074      -0.62289310
C       -1.34971648       0.26078524       0.61463004
C       -0.89386283      -1.08045571       0.55077661
O        0.41259635       0.98847018       1.30177672
H        2.23153065       0.67195089      -0.86223510
H        1.50975760      -0.90031346      -1.25707301
H        2.33659766      -0.65875393       0.30777735
H       -0.77546626       1.95029180      -0.67230616
H       -1.01108956       0.36874179      -1.55721489
H       -1.94456643       0.74148018       1.38048035
H       -0.84442373      -1.67018217       1.45884834
H       -1.05589440      -1.64155323      -0.36374617
14
Frame=7 idx=000775 GeodesicLength=0.4008215912355397 rxn_smarts="[C:1]([C:2]12[C:3]([H:10])([H:11])[C:4]([H:12])([C:5]1([H:13])[H:14])[O:6]2)([H:7])([H:8])[H:9]>>[C:1]([C:2]([C:3]([C:4](=[C:5]([H:13])[H:14])[H:12])([H:10])[H:11])=[O:6])([H:7])([H:8])[H:9]"
C        1.71793787      -0.18836508      -0.45240787
C        0.44498421       0.29899054       0.16991887
C       -0.75125185       0.86533077      -0.61736450
C       -1.35068013       0.25983502       0.61930234
C       -0.90715300      -1.08581300       0.54892142
O        0.41586917       0.98816559       1.30196637
H        2.22872957       0.67347144      -0.88894914
H        1.51734990      -0.91241390      -1.24290113
H        2.35914257      -0.63188215       0.30783393
H       -0.77248318       1.94952785      -0.66473808
H       -1.00198769       0.36993254      -1.55381075
H       -1.95234782       0.73881091       1.38088628
H       -0.86555566      -1.67924964       1.45526039
H       -1.08255396      -1.64634089      -0.36391814
14
Frame=8 idx=000775 GeodesicLength=0.4575763429380859 rxn_smarts="[C:1]([C:2]12[C:3]([H:10])([H:11])[C:4]([H:12])([C:5]1([H:13])[H:14])[O:6]2)([H:7])([H:8])[H:9]>>[C:1]([C:2]([C:3]([C:4](=[C:5]([H:13])[H:14])[H:12])([H:10])[H:11])=[O:6])([H:7])([H:8])[H:9]"
C        1.72844841      -0.18244300      -0.45484329
C        0.45613543       0.30092841       0.16860461
C       -0.74532745       0.86408379      -0.61174445
C       -1.35155118       0.25878000       0.62410202
C       -0.92061957      -1.09120641       0.54696096
O        0.41925381       0.98777189       1.30225351
H        2.22583101       0.67444849      -0.91566590
H        1.52537834      -0.92424562      -1.22821187
H        2.38164000      -0.60455574       0.30739519
H       -0.76955877       1.94859793      -0.65717934
H       -0.99284938       0.37093350      -1.55028141
H       -1.96016901       0.73610382       1.38119056
H       -0.88676921      -1.68832000       1.45151118
H       -1.10984242      -1.65087707      -0.36409176
14
Frame=9 idx=000775 GeodesicLength=0.5143112826485366 rxn_smarts="[C:1]([C:2]12[C:3]([H:10])([H:11])[C:4]([H:12])([C:5]1([H:13])[H:14])[O:6]2)([H:7])([H:8])[H:9]>>[C:1]([C:2]([C:3]([C:4](=[C:5]([H:13])[H:14])[H:12])([H:10])[H:11])=[O:6])([H:7])([H:8])[H:9]"
C        1.73913574      -0.17635100      -0.45735105
C        0.46751951       0.30307414       0.16729338
C       -0.73934444       0.86269603      -0.60604768
C       -1.35232307       0.25760980       0.62903958
C       -0.93427845      -1.09666671       0.54488841
O        0.42276523       0.98730100       1.30267796
H        2.22282946       0.67488611      -0.94242968
H        1.53384538      -0.93583992      -1.21299152
H        2.40410128      -0.57674183       0.30649058
H       -0.76668632       1.94754548      -0.64964176
H       -0.98367460       0.37175458      -1.54667012
H       -1.96802075       0.73336223       1.38140923
H       -0.90807009      -1.69744556       1.44761416
H       -1.13779888      -1.65518433      -0.36428148
14
Frame=10 idx=000775 GeodesicLength=0.5706918526485586 rxn_smarts="[C:1]([C:2]12[C:3]([H:10])([H:11])[C:4]([H:12])([C:5]1([H:13])[H:14])[O:6]2)([H:7])([H:8])[H:9]>>[C:1]([C:2]([C:3]([C:4](=[C:5]([H:13])[H:14])[H:12])([H:10])[H:11])=[O:6])([H:7])([H:8])[H:9]"
C        1.74999446      -0.17010664      -0.45995723
C        0.47911730       0.30541876       0.16590909
C       -0.73331233       0.86107628      -0.60019757
C       -1.35299279       0.25633234       0.63409943
C       -0.94808987      -1.10207468       0.54269987
O        0.42634055       0.98670144       1.30308565
H        2.21978337       0.67467939      -0.96899924
H        1.54279853      -0.94697040      -1.19727522
H        2.42639915      -0.54859034       0.30495041
H       -0.76392956       1.94616054      -0.64206194
H       -0.97443672       0.37232408      -1.54278729
H       -1.97593908       0.73055168       1.38144595
H       -0.92938982      -1.70642070       1.44348534
H       -1.16634319      -1.65908174      -0.36439725
14
Frame=11 idx=000775 GeodesicLength=0.6270897882915245 rxn_smarts="[C:1]([C:2]12[C:3]([H:10])([H:11])[C:4]([H:12])([C:5]1([H:13])[H:14])[O:6]2)([H:7])([H:8])[H:9]>>[C:1]([C:2]([C:3]([C:4](=[C:5]([H:13])[H:14])[H:12])([H:10])[H:11])=[O:6])([H:7])([H:8])[H:9]"
C        1.76103415      -0.16368670      -0.46263092
C        0.49096132       0.30798901       0.16455117
C       -0.72721160       0.85932068      -0.59425871
C       -1.35355882       0.25491780       0.63930930
C       -0.96212518      -1.10756397       0.54036137
O        0.43005611       0.98599539       1.30366665
H        2.21659612       0.67386297      -0.99573279
H        1.55221263      -0.95792365      -1.18091337
H        2.44874314      -0.51979932       0.30294476
H       -0.76121182       1.94466679      -0.63447829
H       -0.96515070       0.37273244      -1.53883040
H       -1.98388420       0.72769147       1.38139540
H       -0.95082379      -1.71548847       1.43917373
H       -1.19563736      -1.66271444      -0.36455789
14
Frame=12 idx=000775 GeodesicLength=0.6833353863744711 rxn_smarts="[C:1]([C:2]12[C:3]([H:10])([H:11])[C:4]([H:12])([C:5]1([H:13])[H:14])[O:6]2)([H:7])([H:8])[H:9]>>[C:1]([C:2]([C:3]([C:4](=[C:5]([H:13])[H:14])[H:12])([H:10])[H:11])=[O:6])([H:7])([H:8])[H:9]"
C        1.77224132      -0.15710650      -0.46539183
C        0.50305073       0.31079933       0.16315559
C       -0.72105284       0.85738090      -0.58821697
C       -1.35400502       0.25336050       0.64465623
C       -0.97636478      -1.11307728       0.53789273
O        0.43388794       0.98517531       1.30432966
H        2.21330989       0.67244920      -1.02239166
H        1.56211444      -0.96851119      -1.16401576
H        2.47096082      -0.49060311       0.30040820
H       -0.75858845       1.94297007      -0.62689819
H       -0.95581997       0.37292844      -1.53472804
H       -1.99184946       0.72477154       1.38119676
H       -0.97228280      -1.72455631       1.43467061
H       -1.22560181      -1.66598092      -0.36466733
14
Frame=13 idx=000775 GeodesicLength=0.739601482837926 rxn_smarts="[C:1]([C:2]12[C:3]([H:10])([H:11])[C:4]([H:12])([C:5]1([H:13])[H:14])[O:6]2)([H:7])([H:8])[H:9]>>[C:1]([C:2]([C:3]([C:4](=[C:5]([H:13])[H:14])[H:12])([H:10])[H:11])=[O:6])([H:7])([H:8])[H:9]"
C        1.78364022      -0.15034957      -0.46824092
C        0.51539899       0.31385753       0.16175769
C       -0.71481552       0.85527864      -0.58206084
C       -1.35433952       0.25164950       0.65016810
C       -0.99085820      -1.11866223       0.53526034
O        0.43786527       0.98422789       1.30515265
H        2.20988148       0.67036571      -1.04918214
H        1.57253007      -0.97886865      -1.14642831
H        2.49321389      -0.46072872       0.29733869
H       -0.75601195       1.94111433      -0.61928848
H       -0.94642179       0.37294233      -1.53051284
H       -1.99984959       0.72178514       1.38088083
H       -0.99387062      -1.73370540       1.42995397
H       -1.25636274      -1.66890651      -0.36479875
14
Frame=14 idx=000775 GeodesicLength=0.7956348128942929 rxn_smarts="[C:1]([C:2]12[C:3]([H:10])([H:11])[C:4]([H:12])([C:5]1([H:13])[H:14])[O:6]2)([H:7])([H:8])[H:9]>>[C:1]([C:2]([C:3]([C:4](=[C:5]([H:13])[H:14])[H:12])([H:10])[H:11])=[O:6])([H:7])([H:8])[H:9]"
C        1.79522227      -0.14343621      -0.47116706
C        0.52800315       0.31712330       0.16036735
C       -0.70848191       0.85298350      -0.57570735
C       -1.35454904       0.24977437       0.65582556
C       -1.00560012      -1.12423929       0.53238236
O        0.44194392       0.98302488       1.30609195
H        2.20610007       0.66739792      -1.07625756
H        1.58356302      -0.98908544      -1.12786339
H        2.51559589      -0.42989384       0.29362301
H       -0.75349039       1.93900877      -0.61152143
H       -0.93689183       0.37280583      -1.52605870
H       -2.00788324       0.71870148       1.38038898
H       -1.01561006      -1.74286145       1.42485481
H       -1.28792174      -1.67130384      -0.36495853
14
Frame=15 idx=000775 GeodesicLength=0.8518324054149539 rxn_smarts="[C:1]([C:2]12[C:3]([H:10])([H:11])[C:4]([H:12])([C:5]1([H:13])[H:14])[O:6]2)([H:7])([H:8])[H:9]>>[C:1]([C:2]([C:3]([C:4](=[C:5]([H:13])[H:14])[H:12])([H:10])[H:11])=[O:6])([H:7])([H:8])[H:9]"
C        1.80700631      -0.13633316      -0.47418247
C        0.54089618       0.32066967       0.15898725
C       -0.70204355       0.85054383      -0.56924453
C       -1.35462872       0.24770965       0.66166849
C       -1.02065773      -1.12993231       0.52930579
O        0.44621183       0.98167341       1.30725914
H        2.20208622       0.66365410      -1.10358957
H        1.59517553      -0.99912420      -1.10843684
H        2.53806977      -0.39816607       0.28934008
H       -0.75098227       1.93679259      -0.60371625
H       -0.92727381       0.37251294      -1.52153872
H       -2.01592013       0.71552789       1.37979353
H       -1.03754321      -1.75220218       1.41951876
H       -1.32039642      -1.67332615      -0.36516465
14
Frame=16 idx=000775 GeodesicLength=0.9076740644263397 rxn_smarts="[C:1]([C:2]12[C:3]([H:10])([H:11])[C:4]([H:12])([C:5]1([H:13])[H:14])[O:6]2)([H:7])([H:8])[H:9]>>[C:1]([C:2]([C:3]([C:4](=[C:5]([H:13])[H:14])[H:12])([H:10])[H:11])=[O:6])([H:7])([H:8])[H:9]"
C        1.81895852      -0.12908150      -0.47729284
C        0.55404134       0.32448332       0.15756659
C       -0.69553294       0.84786368      -0.56257762
C       -1.35456573       0.24545983       0.66766294
C       -1.03594109      -1.13557745       0.52598442
O        0.45056495       0.98008601       1.30847118
H        2.19784563       0.65897445      -1.13094161
H        1.60742498      -1.00879394      -1.08814400
H        2.56047950      -0.36570930       0.28433220
H       -0.74860952       1.93424733      -0.59577417
H       -0.91754757       0.37200303      -1.51673050
H       -2.02397581       0.71224692       1.37898395
H       -1.05951702      -1.76147854       1.41378458
H       -1.35362523      -1.67472384      -0.36532512
