18
Frame=0 idx=003409 GeodesicLength=0.0 rxn_smarts="[C:1]([C@@:2]1([H:10])[C:3]([H:11])([H:12])[C:4]([H:13])([H:14])[C@:5]1([C:6]([H:16])([H:17])[H:18])[H:15])([H:7])([H:8])[H:9]>>[C:1]([C@@:2]([C:3][H:12])([C:5]([C:4]([H:11])([H:13])[H:14])([C:6]([H:16])([H:17])[H:18])[H:15])[H:10])([H:7])([H:8])[H:9]"
C       -1.61110386       0.76085292       0.14665388
C       -0.62048231      -0.16767763       0.84420081
C       -0.84772499      -1.65972932       0.62258481
C        0.74995599      -1.15705690      -0.78299105
C        0.82147808      -0.08907289       0.30311819
C        1.34415612       1.26130403      -0.14632507
H       -1.41310816       1.81197212       0.37158126
H       -1.58587181       0.63779920      -0.93979211
H       -2.62953562       0.54158621       0.47494877
H       -0.64002216       0.04245761       1.91859737
H        0.24954614      -2.07001542      -0.22059581
H       -1.62986268      -1.79784786      -0.14463892
H        0.18007889      -0.86137285      -1.66130333
H        1.70011011      -1.60155412      -1.08684224
H        1.47183627      -0.48042531       1.08982270
H        0.73664851       1.68560486      -0.94829082
H        1.35715037       1.97522164       0.67998727
H        2.36675111       1.16795370      -0.52071578
18
Frame=1 idx=003409 GeodesicLength=0.057003253648228294 rxn_smarts="[C:1]([C@@:2]1([H:10])[C:3]([H:11])([H:12])[C:4]([H:13])([H:14])[C@:5]1([C:6]([H:16])([H:17])[H:18])[H:15])([H:7])([H:8])[H:9]>>[C:1]([C@@:2]([C:3][H:12])([C:5]([C:4]([H:11])([H:13])[H:14])([C:6]([H:16])([H:17])[H:18])[H:15])[H:10])([H:7])([H:8])[H:9]"
C       -1.61205637       0.76257956       0.14668939
C       -0.62193485      -0.16602880       0.84430062
C       -0.84586006      -1.65492062       0.61582225
C        0.74630290      -1.15829053      -0.78241071
C        0.82181063      -0.08979736       0.30326482
C        1.34381474       1.26103925      -0.14565237
H       -1.41221785       1.81379501       0.36949979
H       -1.58833117       0.63755498      -0.93952931
H       -2.63041259       0.54598747       0.47726911
H       -0.63847679       0.04411628       1.91866699
H        0.25738502      -2.09196265      -0.21035871
H       -1.63184838      -1.79921459      -0.14604720
H        0.18133983      -0.85737455      -1.66225469
H        1.69935930      -1.59405138      -1.09220787
H        1.47215291      -0.48066235       1.09011878
H        0.73722070       1.68448253      -0.94882468
H        1.35510043       1.97475139       0.68093130
H        2.36665162       1.16799636      -0.51927750
18
Frame=2 idx=003409 GeodesicLength=0.11348699904261086 rxn_smarts="[C:1]([C@@:2]1([H:10])[C:3]([H:11])([H:12])[C:4]([H:13])([H:14])[C@:5]1([C:6]([H:16])([H:17])[H:18])[H:15])([H:7])([H:8])[H:9]>>[C:1]([C@@:2]([C:3][H:12])([C:5]([C:4]([H:11])([H:13])[H:14])([C:6]([H:16])([H:17])[H:18])[H:15])[H:10])([H:7])([H:8])[H:9]"
C       -1.61303611       0.76431361       0.14675900
C       -0.62340482      -0.16438548       0.84438471
C       -0.84377793      -1.65020854       0.60870919
C        0.74261602      -1.15955391      -0.78186078
C        0.82214364      -0.09047223       0.30338352
C        1.34347771       1.26080496      -0.14497562
H       -1.41132818       1.81561670       0.36741149
H       -1.59082553       0.63738083      -0.93923785
H       -2.63125117       0.55038568       0.47964987
H       -0.63694688       0.04567681       1.91870840
H        0.26527973      -2.11368940      -0.19989476
H       -1.63370477      -1.80063057      -0.14748921
H        0.18264736      -0.85326393      -1.66325936
H        1.69826039      -1.58682127      -1.09728555
H        1.47246307      -0.48088140       1.09038625
H        0.73778610       1.68341374      -0.94934740
H        1.35305873       1.97429494       0.68184028
H        2.36654264       1.16801946      -0.51788218
18
Frame=3 idx=003409 GeodesicLength=0.169564622509907 rxn_smarts="[C:1]([C@@:2]1([H:10])[C:3]([H:11])([H:12])[C:4]([H:13])([H:14])[C@:5]1([C:6]([H:16])([H:17])[H:18])[H:15])([H:7])([H:8])[H:9]>>[C:1]([C@@:2]([C:3][H:12])([C:5]([C:4]([H:11])([H:13])[H:14])([C:6]([H:16])([H:17])[H:18])[H:15])[H:10])([H:7])([H:8])[H:9]"
C       -1.61402181       0.76606854       0.14683071
C       -0.62487306      -0.16278101       0.84443783
C       -0.84150458      -1.64553791       0.60128183
C        0.73886145      -1.16085081      -0.78140160
C        0.82247698      -0.09111826       0.30344778
C        1.34313882       1.26060239      -0.14435235
H       -1.41046971       1.81739513       0.36541890
H       -1.59335049       0.63727266      -0.93895343
H       -2.63206937       0.55475831       0.48205394
H       -0.63542947       0.04713552       1.91871896
H        0.27323338      -2.13515336      -0.18903941
H       -1.63546364      -1.80208672      -0.14896116
H        0.18401323      -0.84899491      -1.66437664
H        1.69685707      -1.57986261      -1.10209253
H        1.47277828      -0.48108653       1.09060465
H        0.73836709       1.68238064      -0.94983371
H        1.35101820       1.97383740       0.68274453
H        2.36643762       1.16802154      -0.51652830
18
Frame=4 idx=003409 GeodesicLength=0.22498647437947783 rxn_smarts="[C:1]([C@@:2]1([H:10])[C:3]([H:11])([H:12])[C:4]([H:13])([H:14])[C@:5]1([C:6]([H:16])([H:17])[H:18])[H:15])([H:7])([H:8])[H:9]>>[C:1]([C@@:2]([C:3][H:12])([C:5]([C:4]([H:11])([H:13])[H:14])([C:6]([H:16])([H:17])[H:18])[H:15])[H:10])([H:7])([H:8])[H:9]"
C       -1.61501251       0.76785720       0.14692528
C       -0.62640054      -0.16117650       0.84448821
C       -0.83895855      -1.64096504       0.59348477
C        0.73503262      -1.16220895      -0.78093587
C        0.82282304      -0.09170429       0.30348199
C        1.34280571       1.26042323      -0.14373654
H       -1.40961357       1.81917529       0.36342954
H       -1.59591755       0.63724356      -0.93859858
H       -2.63286349       0.55914067       0.48446953
H       -0.63394236       0.04848832       1.91868551
H        0.28123176      -2.15637776      -0.17798631
H       -1.63708756      -1.80360446      -0.15040794
H        0.18543171      -0.84460698      -1.66555380
H        1.69517194      -1.57318052      -1.10662645
H        1.47306640      -0.48129068       1.09079056
H        0.73894089       1.68140665      -0.95030166
H        1.34899590       1.97337892       0.68364174
H        2.36629617       1.16800134      -0.51524997
18
Frame=5 idx=003409 GeodesicLength=0.28013636396057034 rxn_smarts="[C:1]([C@@:2]1([H:10])[C:3]([H:11])([H:12])[C:4]([H:13])([H:14])[C@:5]1([C:6]([H:16])([H:17])[H:18])[H:15])([H:7])([H:8])[H:9]>>[C:1]([C@@:2]([C:3][H:12])([C:5]([C:4]([H:11])([H:13])[H:14])([C:6]([H:16])([H:17])[H:18])[H:15])[H:10])([H:7])([H:8])[H:9]"
C       -1.61601816       0.76967884       0.14704407
C       -0.62791391      -0.15959687       0.84451550
C       -0.83629326      -1.63646148       0.58538316
C        0.73114151      -1.16356203      -0.78057151
C        0.82315038      -0.09227145       0.30346368
C        1.34248379       1.26027885      -0.14314212
H       -1.40875268       1.82100906       0.36159047
H       -1.59850706       0.63730664      -0.93825283
H       -2.63368898       0.56340608       0.48683913
H       -0.63244766       0.04977666       1.91864583
H        0.28936473      -2.17738830      -0.16650684
H       -1.63862922      -1.80517043      -0.15194005
H        0.18687581      -0.84011567      -1.66680871
H        1.69321820      -1.56675631      -1.11092974
H        1.47334103      -0.48148879       1.09095536
H        0.73946427       1.68051064      -0.95077784
H        1.34703968       1.97289601       0.68454086
H        2.36617151       1.16794853      -0.51404843
18
Frame=6 idx=003409 GeodesicLength=0.3347503813322042 rxn_smarts="[C:1]([C@@:2]1([H:10])[C:3]([H:11])([H:12])[C:4]([H:13])([H:14])[C@:5]1([C:6]([H:16])([H:17])[H:18])[H:15])([H:7])([H:8])[H:9]>>[C:1]([C@@:2]([C:3][H:12])([C:5]([C:4]([H:11])([H:13])[H:14])([C:6]([H:16])([H:17])[H:18])[H:15])[H:10])([H:7])([H:8])[H:9]"
C       -1.61703087       0.77149993       0.14717713
C       -0.62947178      -0.15806261       0.84451494
C       -0.83340488      -1.63201978       0.57699347
C        0.72720893      -1.16496833      -0.78025855
C        0.82348501      -0.09281126       0.30341551
C        1.34216232       1.26014388      -0.14257402
H       -1.40789895       1.82281685       0.35977795
H       -1.60112660       0.63742054      -0.93788151
H       -2.63446860       0.56770405       0.48925138
H       -0.63097306       0.05096821       1.91856293
H        0.29745877      -2.19812703      -0.15477376
H       -1.64006184      -1.80677259      -0.15346033
H        0.18839928      -0.83551478      -1.66810839
H        1.69101288      -1.56054954      -1.11501501
H        1.47362787      -0.48168068       1.09104271
H        0.74000527       1.67964382      -0.95123258
H        1.34504097       1.97242410       0.68542590
H        2.36603528       1.16788522      -0.51285777
18
Frame=7 idx=003409 GeodesicLength=0.3890964635437427 rxn_smarts="[C:1]([C@@:2]1([H:10])[C:3]([H:11])([H:12])[C:4]([H:13])([H:14])[C@:5]1([C:6]([H:16])([H:17])[H:18])[H:15])([H:7])([H:8])[H:9]>>[C:1]([C@@:2]([C:3][H:12])([C:5]([C:4]([H:11])([H:13])[H:14])([C:6]([H:16])([H:17])[H:18])[H:15])[H:10])([H:7])([H:8])[H:9]"
C       -1.61807748       0.77334390       0.14734364
C       -0.63103898      -0.15653186       0.84448585
C       -0.83030963      -1.62765974       0.56822042
C        0.72314198      -1.16639221      -0.78005045
C        0.82380640      -0.09328544       0.30331108
C        1.34186156       1.26002369      -0.14202313
H       -1.40706656       1.82462498       0.35795291
H       -1.60380305       0.63761918      -0.93748199
H       -2.63523447       0.57197533       0.49176169
H       -0.62951040       0.05205321       1.91843027
H        0.30569237      -2.21865486      -0.14261745
H       -1.64139206      -1.80843152      -0.15501840
H        0.18999040      -0.83073499      -1.66948814
H        1.68853252      -1.55466123      -1.11886664
H        1.47388058      -0.48188155       1.09109508
H        0.74056004       1.67884418      -0.95167821
H        1.34306219       1.97195593       0.68631809
H        2.36590458       1.16779301      -0.51169461
18
Frame=8 idx=003409 GeodesicLength=0.44316568471337137 rxn_smarts="[C:1]([C@@:2]1([H:10])[C:3]([H:11])([H:12])[C:4]([H:13])([H:14])[C@:5]1([C:6]([H:16])([H:17])[H:18])[H:15])([H:7])([H:8])[H:9]>>[C:1]([C@@:2]([C:3][H:12])([C:5]([C:4]([H:11])([H:13])[H:14])([C:6]([H:16])([H:17])[H:18])[H:15])[H:10])([H:7])([H:8])[H:9]"
C       -1.61912806       0.77519310       0.14753539
C       -0.63261888      -0.15505487       0.84441230
C       -0.82699738      -1.62337712       0.55911582
C        0.71905737      -1.16777166      -0.77997366
C        0.82413712      -0.09373833       0.30315529
C        1.34157214       1.25992090      -0.14148782
H       -1.40623719       1.82640542       0.35621504
H       -1.60648898       0.63789413      -0.93706641
H       -2.63598543       0.57614829       0.49421756
H       -0.62806642       0.05304965       1.91825566
H        0.31381044      -2.23886138      -0.13009733
H       -1.64261237      -1.81013492      -0.15646574
H        0.19163326      -0.82578056      -1.67099499
H        1.68582940      -1.54907584      -1.12244296
H        1.47412594      -0.48208540       1.09109490
H        0.74110067       1.67812607      -0.95208309
H        1.34109987       1.97147950       0.68720826
H        2.36576851       1.16766303      -0.51059821
18
Frame=9 idx=003409 GeodesicLength=0.49619019862924174 rxn_smarts="[C:1]([C@@:2]1([H:10])[C:3]([H:11])([H:12])[C:4]([H:13])([H:14])[C@:5]1([C:6]([H:16])([H:17])[H:18])[H:15])([H:7])([H:8])[H:9]>>[C:1]([C@@:2]([C:3][H:12])([C:5]([C:4]([H:11])([H:13])[H:14])([C:6]([H:16])([H:17])[H:18])[H:15])[H:10])([H:7])([H:8])[H:9]"
C       -1.62019904       0.77696588       0.14766685
C       -0.63419468      -0.15363632       0.84429504
C       -0.82357088      -1.61933497       0.55050837
C        0.71509108      -1.16887958      -0.78016815
C        0.82445477      -0.09419973       0.30296432
C        1.34129044       1.25983376      -0.14094534
H       -1.40544384       1.82814776       0.35447458
H       -1.60916302       0.63810094      -0.93669134
H       -2.63672032       0.58029896       0.49655887
H       -0.62660382       0.05407800       1.91804809
H        0.32143503      -2.25863877      -0.11804637
H       -1.64381757      -1.81185250      -0.15760803
H        0.19330140      -0.82072783      -1.67256875
H        1.68334721      -1.54376137      -1.12570298
H        1.47435742      -0.48239715       1.09104863
H        0.74163714       1.67747656      -0.95244825
H        1.33914615       1.97098557       0.68812193
H        2.36565253       1.16754081      -0.50950745
18
Frame=10 idx=003409 GeodesicLength=0.5490234451394979 rxn_smarts="[C:1]([C@@:2]1([H:10])[C:3]([H:11])([H:12])[C:4]([H:13])([H:14])[C@:5]1([C:6]([H:16])([H:17])[H:18])[H:15])([H:7])([H:8])[H:9]>>[C:1]([C@@:2]([C:3][H:12])([C:5]([C:4]([H:11])([H:13])[H:14])([C:6]([H:16])([H:17])[H:18])[H:15])[H:10])([H:7])([H:8])[H:9]"
C       -1.62126249       0.77875703       0.14782003
C       -0.63577820      -0.15224786       0.84413540
C       -0.81990779      -1.61540655       0.54160710
C        0.71107393      -1.16995321      -0.78047580
C        0.82478953      -0.09461638       0.30269822
C        1.34100872       1.25977843      -0.14041572
H       -1.40467933       1.82986020       0.35274842
H       -1.61185778       0.63835821      -0.93630870
H       -2.63740783       0.58440297       0.49893789
H       -0.62514250       0.05502858       1.91779918
H        0.32890546      -2.27820399      -0.10561111
H       -1.64491500      -1.81360217      -0.15874039
H        0.19505808      -0.81551408      -1.67421636
H        1.68064019      -1.53871952      -1.12873617
H        1.47458798      -0.48271256       1.09092953
H        0.74217851       1.67688968      -0.95278430
H        1.33718983       1.97047138       0.68906916
H        2.36551869       1.16742983      -0.50845638
18
Frame=11 idx=003409 GeodesicLength=0.6013322879989895 rxn_smarts="[C:1]([C@@:2]1([H:10])[C:3]([H:11])([H:12])[C:4]([H:13])([H:14])[C@:5]1([C:6]([H:16])([H:17])[H:18])[H:15])([H:7])([H:8])[H:9]>>[C:1]([C@@:2]([C:3][H:12])([C:5]([C:4]([H:11])([H:13])[H:14])([C:6]([H:16])([H:17])[H:18])[H:15])[H:10])([H:7])([H:8])[H:9]"
C       -1.62235332       0.78055606       0.14800490
C       -0.63737720      -0.15089656       0.84394230
C       -0.81603091      -1.61158820       0.53243536
C        0.70702792      -1.17101075      -0.78085919
C        0.82511759      -0.09500135       0.30239513
C        1.34073239       1.25974822      -0.13990967
H       -1.40392295       1.83157366       0.35111210
H       -1.61460107       0.63869152      -0.93590890
H       -2.63810424       0.58847340       0.50133898
H       -0.62368884       0.05587901       1.91751126
H        0.33635707      -2.29745214      -0.09282839
H       -1.64590322      -1.81539481      -0.15993911
H        0.19684541      -0.81015629      -1.67599325
H        1.67772320      -1.53396267      -1.13150342
H        1.47481158      -0.48303878       1.09079269
H        0.74270610       1.67636185      -0.95310806
H        1.33525877       1.96995318       0.68998497
H        2.36540170       1.16726466      -0.50746770
18
Frame=12 idx=003409 GeodesicLength=0.65351552626285 rxn_smarts="[C:1]([C@@:2]1([H:10])[C:3]([H:11])([H:12])[C:4]([H:13])([H:14])[C@:5]1([C:6]([H:16])([H:17])[H:18])[H:15])([H:7])([H:8])[H:9]>>[C:1]([C@@:2]([C:3][H:12])([C:5]([C:4]([H:11])([H:13])[H:14])([C:6]([H:16])([H:17])[H:18])[H:15])[H:10])([H:7])([H:8])[H:9]"
C       -1.62343955       0.78233903       0.14816661
C       -0.63901627      -0.14961303       0.84371484
C       -0.81201086      -1.60777633       0.52293557
C        0.70292847      -1.17201758      -0.78139296
C        0.82545617      -0.09536422       0.30205186
C        1.34046964       1.25973636      -0.13940114
H       -1.40316615       1.83325262       0.34947475
H       -1.61735237       0.63906045      -0.93548168
H       -2.63878058       0.59251759       0.50373750
H       -0.62224555       0.05666146       1.91716012
H        0.34370928      -2.31649047      -0.07970051
H       -1.64678861      -1.81724217      -0.16094226
H        0.19870388      -0.80468651      -1.67780864
H        1.67464229      -1.52940917      -1.13414965
H        1.47504121      -0.48338641       1.09054607
H        0.74324880       1.67589740      -0.95339048
H        1.33332677       1.96940927       0.69094969
H        2.36527343       1.16711172      -0.50646970
18
Frame=13 idx=003409 GeodesicLength=0.7051187663758591 rxn_smarts="[C:1]([C@@:2]1([H:10])[C:3]([H:11])([H:12])[C:4]([H:13])([H:14])[C@:5]1([C:6]([H:16])([H:17])[H:18])[H:15])([H:7])([H:8])[H:9]>>[C:1]([C@@:2]([C:3][H:12])([C:5]([C:4]([H:11])([H:13])[H:14])([C:6]([H:16])([H:17])[H:18])[H:15])[H:10])([H:7])([H:8])[H:9]"
C       -1.62454313       0.78410392       0.14835048
C       -0.64065106      -0.14838661       0.84343696
C       -0.80783331      -1.60408044       0.51340329
C        0.69887739      -1.17293185      -0.78209006
C        0.82578639      -0.09571482       0.30164355
C        1.34018967       1.25974752      -0.13891224
H       -1.40242876       1.83490694       0.34789324
H       -1.62012767       0.63946304      -0.93508883
H       -2.63943459       0.59652159       0.50612377
H       -0.62079246       0.05737838       1.91678851
H        0.35082614      -2.33522066      -0.06644694
H       -1.64758286      -1.81911686      -0.16184692
H        0.20061925      -0.79906165      -1.67975014
H        1.67151069      -1.52511491      -1.13651967
H        1.47523927      -0.48378244       1.09026870
H        0.74377133       1.67548893      -0.95367683
H        1.33142452       1.96884561       0.69192746
H        2.36514919       1.16695430      -0.50550431
18
Frame=14 idx=003409 GeodesicLength=0.756115998174315 rxn_smarts="[C:1]([C@@:2]1([H:10])[C:3]([H:11])([H:12])[C:4]([H:13])([H:14])[C@:5]1([C:6]([H:16])([H:17])[H:18])[H:15])([H:7])([H:8])[H:9]>>[C:1]([C@@:2]([C:3][H:12])([C:5]([C:4]([H:11])([H:13])[H:14])([C:6]([H:16])([H:17])[H:18])[H:15])[H:10])([H:7])([H:8])[H:9]"
C       -1.62565056       0.78587183       0.14851116
C       -0.64229510      -0.14719758       0.84313435
C       -0.80350241      -1.60047193       0.50368345
C        0.69474924      -1.17381693      -0.78290847
C        0.82611932      -0.09605588       0.30119928
C        1.33994147       1.25976518      -0.13840130
H       -1.40170082       1.83653307       0.34635748
H       -1.62292041       0.63988134      -0.93468846
H       -2.64007236       0.60047804       0.50850509
H       -0.61935890       0.05802463       1.91636327
H        0.35791088      -2.35361289      -0.05294780
H       -1.64832159      -1.82101264      -0.16268341
H        0.20260945      -0.79329192      -1.68173084
H        1.66822628      -1.52104982      -1.13871336
H        1.47542821      -0.48421430       1.08993791
H        0.74430512       1.67512902      -0.95391522
H        1.32952744       1.96826549       0.69290365
H        2.36500475       1.16677530      -0.50460678
18
Frame=15 idx=003409 GeodesicLength=0.8068683212619555 rxn_smarts="[C:1]([C@@:2]1([H:10])[C:3]([H:11])([H:12])[C:4]([H:13])([H:14])[C@:5]1([C:6]([H:16])([H:17])[H:18])[H:15])([H:7])([H:8])[H:9]>>[C:1]([C@@:2]([C:3][H:12])([C:5]([C:4]([H:11])([H:13])[H:14])([C:6]([H:16])([H:17])[H:18])[H:15])[H:10])([H:7])([H:8])[H:9]"
C       -1.62675597       0.78763516       0.14870897
C       -0.64394997      -0.14605906       0.84279914
C       -0.79899797      -1.59696279       0.49380200
C        0.69064156      -1.17461341      -0.78387215
C        0.82646748      -0.09636942       0.30071901
C        1.33970015       1.25980043      -0.13793176
H       -1.40099939       1.83813360       0.34487543
H       -1.62571765       0.64035106      -0.93426856
H       -2.64070398       0.60437311       0.51086321
H       -0.61793729       0.05859499       1.91590622
H        0.36476443      -2.37177093      -0.03913280
H       -1.64895067      -1.82295193      -0.16348311
H        0.20464801      -0.78738026      -1.68382199
H        1.66483515      -1.51723870      -1.14073280
H        1.47560630      -0.48465786       1.08954751
H        0.74481547       1.67485309      -0.95412199
H        1.32764546       1.96767865       0.69386850
H        2.36488886       1.16658428      -0.50372483
18
Frame=16 idx=003409 GeodesicLength=0.8573120113801906 rxn_smarts="[C:1]([C@@:2]1([H:10])[C:3]([H:11])([H:12])[C:4]([H:13])([H:14])[C@:5]1([C:6]([H:16])([H:17])[H:18])[H:15])([H:7])([H:8])[H:9]>>[C:1]([C@@:2]([C:3][H:12])([C:5]([C:4]([H:11])([H:13])[H:14])([C:6]([H:16])([H:17])[H:18])[H:15])[H:10])([H:7])([H:8])[H:9]"
C       -1.62785715       0.78938076       0.14891622
C       -0.64560518      -0.14497611       0.84243046
C       -0.79436561      -1.59354194       0.48372624
C        0.68651794      -1.17532897      -0.78498119
C        0.82681118      -0.09665574       0.30016994
C        1.33946651       1.25985995      -0.13746925
H       -1.40032543       1.83970853       0.34340982
H       -1.62852395       0.64084847      -0.93384697
H       -2.64130756       0.60823374       0.51322335
H       -0.61652951       0.05909326       1.91540336
H        0.37142967      -2.38967438      -0.02500362
H       -1.64948168      -1.82492241      -0.16418139
H        0.20675044      -0.78137999      -1.68596212
H        1.66134977      -1.51359566      -1.14263192
H        1.47578089      -0.48514342       1.08909053
H        0.74532599       1.67463728      -0.95430488
H        1.32578794       1.96706190       0.69486746
H        2.36477573       1.16639474      -0.50285604
