15
Frame=0 idx=006402 GeodesicLength=0.0 rxn_smarts="[C:1]([C@@:2]1([H:11])[O:3]/[C:4](=[N:5]\[H:12])[C@:6]1([N:7]([H:14])[H:15])[H:13])([H:8])([H:9])[H:10]>>[C:1]([C:2](=[O:3])[C:6]([N:7]([H:14])[H:15])([H:11])[H:13])([H:8])([H:9])[H:10].[C:4]=[N:5][H:12]"
C        1.57057233       0.03285333       0.60285666
C        0.67670267      -0.28806521      -0.60766221
O        0.31015322      -1.53222381      -0.74021560
C       -1.80835517      -1.10868684       0.50495390
N       -2.19732102      -2.15661203       0.84382760
C       -0.41640046       0.71611171      -0.79690854
N       -0.47566297       1.90574550      -0.26823968
H        0.99709791      -0.11627923       1.52221586
H        2.00751243       1.03946576       0.59626666
H        2.38939091      -0.68414735       0.60129502
H        1.23544397       0.13626993      -1.52854593
H       -2.11583684      -3.15059775       0.88945817
H       -1.14138347       0.47865522      -1.56813136
H       -1.16595016       2.58149510      -0.54838093
H        0.13403669       2.14601570       0.49721034
15
Frame=1 idx=006402 GeodesicLength=0.11124925207808066 rxn_smarts="[C:1]([C@@:2]1([H:11])[O:3]/[C:4](=[N:5]\[H:12])[C@:6]1([N:7]([H:14])[H:15])[H:13])([H:8])([H:9])[H:10]>>[C:1]([C:2](=[O:3])[C:6]([N:7]([H:14])[H:15])([H:11])[H:13])([H:8])([H:9])[H:10].[C:4]=[N:5][H:12]"
C        1.58539393       0.02208046       0.60050504
C        0.67387068      -0.30181950      -0.59161300
O        0.28058194      -1.54118459      -0.70603167
C       -1.85289032      -1.07710854       0.44293024
N       -2.18721397      -2.11942750       0.85785771
C       -0.41173521       0.70704859      -0.80457152
N       -0.47385480       1.90177886      -0.26896626
H        1.01821490      -0.09428801       1.52832524
H        2.03814253       1.02118617       0.56934630
H        2.39080741      -0.71048822       0.60666876
H        1.20794995       0.14151999      -1.53579939
H       -2.03573805      -3.10877224       0.88471389
H       -1.11857106       0.48258258      -1.59693799
H       -1.17329311       2.56923712      -0.54789380
H        0.05833518       2.10765483       0.56146644
15
Frame=2 idx=006402 GeodesicLength=0.22255764024503977 rxn_smarts="[C:1]([C@@:2]1([H:11])[O:3]/[C:4](=[N:5]\[H:12])[C@:6]1([N:7]([H:14])[H:15])[H:13])([H:8])([H:9])[H:10]>>[C:1]([C:2](=[O:3])[C:6]([N:7]([H:14])[H:15])([H:11])[H:13])([H:8])([H:9])[H:10].[C:4]=[N:5][H:12]"
C        1.59666490       0.00818080       0.59812849
C        0.67159263      -0.31355638      -0.57952305
O        0.25354440      -1.54691590      -0.68152096
C       -1.89263116      -1.05306875       0.36925168
N       -2.17479600      -2.07795575       0.86463524
C       -0.40726833       0.69860040      -0.81274960
N       -0.47577144       1.89407201      -0.26180316
H        1.03459324      -0.07946710       1.53190554
H        2.06453424       0.99893123       0.54766298
H        2.38866587      -0.73863531       0.61156140
H        1.18318963       0.15368589      -1.54245342
H       -1.94965399      -3.05425309       0.90718967
H       -1.09406016       0.48992422      -1.62701350
H       -1.17588808       2.55804918      -0.54741035
H       -0.02271576       2.06240856       0.62213904
15
Frame=3 idx=006402 GeodesicLength=0.33479253381325835 rxn_smarts="[C:1]([C@@:2]1([H:11])[O:3]/[C:4](=[N:5]\[H:12])[C@:6]1([N:7]([H:14])[H:15])[H:13])([H:8])([H:9])[H:10]>>[C:1]([C:2](=[O:3])[C:6]([N:7]([H:14])[H:15])([H:11])[H:13])([H:8])([H:9])[H:10].[C:4]=[N:5][H:12]"
C        1.60735008      -0.00632595       0.59553936
C        0.67038922      -0.32446239      -0.56917565
O        0.22965803      -1.55171095      -0.66096331
C       -1.92645664      -1.03607038       0.29210909
N       -2.16079595      -2.03224516       0.86910555
C       -0.40358128       0.68929468      -0.81981174
N       -0.48068054       1.88339739      -0.24947634
H        1.05035533      -0.06615260       1.53422188
H        2.09031268       0.97538863       0.52694022
H        2.38583263      -0.76680389       0.61674727
H        1.16006580       0.16962691      -1.54832241
H       -1.86808014      -2.99059859       0.93661633
H       -1.06982805       0.49723128      -1.65512317
H       -1.17733858       2.54642088      -0.54551273
H       -0.10720258       2.01301014       0.67710568
15
Frame=4 idx=006402 GeodesicLength=0.44781662166391945 rxn_smarts="[C:1]([C@@:2]1([H:11])[O:3]/[C:4](=[N:5]\[H:12])[C@:6]1([N:7]([H:14])[H:15])[H:13])([H:8])([H:9])[H:10]>>[C:1]([C:2](=[O:3])[C:6]([N:7]([H:14])[H:15])([H:11])[H:13])([H:8])([H:9])[H:10].[C:4]=[N:5][H:12]"
C        1.61848890      -0.02150099       0.59250712
C        0.67069792      -0.33492485      -0.56050054
O        0.20896107      -1.55652213      -0.64369663
C       -1.95566587      -1.02615548       0.21087588
N       -2.15046815      -1.98436412       0.86638238
C       -0.40050558       0.67943920      -0.82594214
N       -0.48868443       1.87030618      -0.23249234
H        1.06639326      -0.05400935       1.53527387
H        2.11686140       0.95076248       0.50636714
H        2.38348205      -0.79550334       0.62209685
H        1.13905474       0.18906015      -1.55355678
H       -1.78834151      -2.91565855       0.97751017
H       -1.04568637       0.50523464      -1.68170316
H       -1.17993464       2.53408347      -0.54005776
H       -0.19465278       1.95975270       0.72693594
15
Frame=5 idx=006402 GeodesicLength=0.5612657644291119 rxn_smarts="[C:1]([C@@:2]1([H:11])[O:3]/[C:4](=[N:5]\[H:12])[C@:6]1([N:7]([H:14])[H:15])[H:13])([H:8])([H:9])[H:10]>>[C:1]([C:2](=[O:3])[C:6]([N:7]([H:14])[H:15])([H:11])[H:13])([H:8])([H:9])[H:10].[C:4]=[N:5][H:12]"
C        1.63090273      -0.03408679       0.58940988
C        0.67156519      -0.34495764      -0.55058647
O        0.19077095      -1.56102016      -0.62332705
C       -1.97655104      -1.01954875       0.14011079
N       -2.13609767      -1.93422133       0.86712653
C       -0.39890764       0.66754367      -0.82906051
N       -0.49732812       1.85551729      -0.21413465
H        1.08541763      -0.03588786       1.53616292
H        2.14532986       0.92703275       0.48227478
H        2.38145911      -0.82142494       0.62956408
H        1.11669564       0.20861868      -1.55740973
H       -1.72623272      -2.84471742       0.99865798
H       -1.02538054       0.50899540      -1.70180133
H       -1.18033309       2.52132285      -0.53565490
H       -0.28131030       1.90683423       0.76866768
15
Frame=6 idx=006402 GeodesicLength=0.675105733193695 rxn_smarts="[C:1]([C@@:2]1([H:11])[O:3]/[C:4](=[N:5]\[H:12])[C@:6]1([N:7]([H:14])[H:15])[H:13])([H:8])([H:9])[H:10]>>[C:1]([C:2](=[O:3])[C:6]([N:7]([H:14])[H:15])([H:11])[H:13])([H:8])([H:9])[H:10].[C:4]=[N:5][H:12]"
C        1.64420156      -0.04633394       0.58584859
C        0.67355427      -0.35463148      -0.54123730
O        0.17492443      -1.56554377      -0.60335849
C       -1.99316539      -1.01755903       0.06972767
N       -2.12530548      -1.88353298       0.86259422
C       -0.39783652       0.65511841      -0.83096750
N       -0.50766605       1.83914996      -0.19303152
H        1.10575613      -0.01612910       1.53586985
H        2.17522636       0.90253860       0.45663924
H        2.37992412      -0.84691962       0.63787114
H        1.09533112       0.23007094      -1.56045917
H       -1.66889099      -2.76883163       1.02306089
H       -1.00604008       0.51265800      -1.71945698
H       -1.18171279       2.50772920      -0.52801376
H       -0.36830070       1.85221645       0.80491311
15
Frame=7 idx=006402 GeodesicLength=0.7894731087059974 rxn_smarts="[C:1]([C@@:2]1([H:11])[O:3]/[C:4](=[N:5]\[H:12])[C@:6]1([N:7]([H:14])[H:15])[H:13])([H:8])([H:9])[H:10]>>[C:1]([C:2](=[O:3])[C:6]([N:7]([H:14])[H:15])([H:11])[H:13])([H:8])([H:9])[H:10].[C:4]=[N:5][H:12]"
C        1.65837945      -0.05775031       0.58188160
C        0.67633767      -0.36395638      -0.53194073
O        0.16098914      -1.56989646      -0.58263665
C       -2.00524620      -1.01913379       0.00172532
N       -2.11696451      -1.83287472       0.85418410
C       -0.39737094       0.64197528      -0.83141935
N       -0.51919225       1.82125562      -0.16976163
H        1.12785804       0.00664582       1.53438970
H        2.20659102       0.87725650       0.42878123
H        2.37848754      -0.87146933       0.64752631
H        1.07412947       0.25272555      -1.56253314
H       -1.61788124      -2.69034463       1.04606949
H       -0.98815789       0.51558910      -1.73415308
H       -1.18334590       2.49330795      -0.51787519
H       -0.45461340       1.79666978       0.83576201
15
Frame=8 idx=006402 GeodesicLength=0.9042630869018218 rxn_smarts="[C:1]([C@@:2]1([H:11])[O:3]/[C:4](=[N:5]\[H:12])[C@:6]1([N:7]([H:14])[H:15])[H:13])([H:8])([H:9])[H:10]>>[C:1]([C:2](=[O:3])[C:6]([N:7]([H:14])[H:15])([H:11])[H:13])([H:8])([H:9])[H:10].[C:4]=[N:5][H:12]"
C        1.67340715      -0.06825351       0.57754724
C        0.67976596      -0.37293553      -0.52252316
O        0.14861274      -1.57404670      -0.56073774
C       -2.01319834      -1.02362475      -0.06326193
N       -2.11094501      -1.78313042       0.84241601
C       -0.39748699       0.62825905      -0.83048348
N       -0.53159137       1.80216376      -0.14474599
H        1.15180482       0.03282877       1.53153535
H        2.23940138       0.85100299       0.39856081
H        2.37699433      -0.89496516       0.65882845
H        1.05289462       0.27636462      -1.56355775
H       -1.57319325      -2.61078671       1.06650964
H       -0.97191841       0.51781388      -1.74594475
H       -1.18491921       2.47839947      -0.50560778
H       -0.53962842       1.74091025       0.86146508
15
Frame=9 idx=006402 GeodesicLength=1.0192600668389358 rxn_smarts="[C:1]([C@@:2]1([H:11])[O:3]/[C:4](=[N:5]\[H:12])[C@:6]1([N:7]([H:14])[H:15])[H:13])([H:8])([H:9])[H:10]>>[C:1]([C:2](=[O:3])[C:6]([N:7]([H:14])[H:15])([H:11])[H:13])([H:8])([H:9])[H:10].[C:4]=[N:5][H:12]"
C        1.68913889      -0.07776095       0.57292100
C        0.68368058      -0.38152049      -0.51282708
O        0.13743683      -1.57784291      -0.53730113
C       -2.01730700      -1.03014502      -0.12418117
N       -2.10673700      -1.73508760       0.82821194
C       -0.39809771       0.61415595      -0.82828406
N       -0.54450157       1.78226969      -0.11850134
H        1.17752955       0.06268453       1.52708415
H        2.27346193       0.82355589       0.36596535
H        2.37518356      -0.91720365       0.67210929
H        1.03149082       0.30082021      -1.56348789
H       -1.53509116      -2.53246463       1.08278147
H       -0.95746492       0.51928825      -1.75491598
H       -1.18606177       2.46333890      -0.49175808
H       -0.62266103       1.68591181       0.88218354
15
Frame=10 idx=006402 GeodesicLength=1.1344889717339275 rxn_smarts="[C:1]([C@@:2]1([H:11])[O:3]/[C:4](=[N:5]\[H:12])[C@:6]1([N:7]([H:14])[H:15])[H:13])([H:8])([H:9])[H:10]>>[C:1]([C:2](=[O:3])[C:6]([N:7]([H:14])[H:15])([H:11])[H:13])([H:8])([H:9])[H:10].[C:4]=[N:5][H:12]"
C        1.70544120      -0.08645055       0.56798697
C        0.68798735      -0.38973586      -0.50293308
O        0.12720639      -1.58123037      -0.51245942
C       -2.01812485      -1.03845811      -0.18183684
N       -2.10464415      -1.68919048       0.81132241
C       -0.39910521       0.59981967      -0.82503113
N       -0.55787988       1.76163563      -0.09109246
H        1.20496902       0.09590938       1.52072731
H        2.30852167       0.79452211       0.33122009
H        2.37289980      -0.93819460       0.68739904
H        1.00997106       0.32614232      -1.56228902
H       -1.50225706      -2.45498791       1.09623521
H       -0.94458138       0.52032363      -1.76149639
H       -1.18681995       2.44818123      -0.47618933
H       -0.70358402       1.63171391       0.89843664
15
Frame=11 idx=006402 GeodesicLength=1.2497856869534658 rxn_smarts="[C:1]([C@@:2]1([H:11])[O:3]/[C:4](=[N:5]\[H:12])[C@:6]1([N:7]([H:14])[H:15])[H:13])([H:8])([H:9])[H:10]>>[C:1]([C:2](=[O:3])[C:6]([N:7]([H:14])[H:15])([H:11])[H:13])([H:8])([H:9])[H:10].[C:4]=[N:5][H:12]"
C        1.72217687      -0.09436737       0.56277865
C        0.69258907      -0.39756712      -0.49281975
O        0.11767401      -1.58408954      -0.48615756
C       -2.01595394      -1.04801669      -0.23601476
N       -2.10441228      -1.64596787       0.79219337
C       -0.40040309       0.58540996      -0.82089283
N       -0.57157595       1.74046944      -0.06278644
H        1.23406323       0.13237627       1.51217069
H        2.34431962       0.76359556       0.29449954
H        2.36997101      -0.95777182       0.70484497
H        0.98834483       0.35233282      -1.55992054
H       -1.47439622      -2.37930303       1.10666147
H       -0.93319709       0.52100473      -1.76593290
H       -1.18705869       2.43309293      -0.45915469
H       -0.78214137       1.57880173       0.91053077
15
Frame=12 idx=006402 GeodesicLength=1.3650529647680623 rxn_smarts="[C:1]([C@@:2]1([H:11])[O:3]/[C:4](=[N:5]\[H:12])[C@:6]1([N:7]([H:14])[H:15])[H:13])([H:8])([H:9])[H:10]>>[C:1]([C:2](=[O:3])[C:6]([N:7]([H:14])[H:15])([H:11])[H:13])([H:8])([H:9])[H:10].[C:4]=[N:5][H:12]"
C        1.73919965      -0.10161511       0.55732622
C        0.69740129      -0.40502008      -0.48252073
O        0.10864985      -1.58633888      -0.45850440
C       -2.01110957      -1.05847008      -0.28682928
N       -2.10576593      -1.60569613       0.77120383
C       -0.40191025       0.57105928      -0.81603870
N       -0.58551717       1.71889668      -0.03375398
H        1.26472203       0.17179608       1.50111227
H        2.38056346       0.73043901       0.25606999
H        2.36625121      -0.97579731       0.72453322
H        0.96665057       0.37947523      -1.55633641
H       -1.45097028      -2.30585132       1.11428245
H       -0.92319798       0.52145655      -1.76851437
H       -1.18666164       2.41821130      -0.44081760
H       -0.85830524       1.52745479       0.91878749
15
Frame=13 idx=006402 GeodesicLength=1.4803194027093627 rxn_smarts="[C:1]([C@@:2]1([H:11])[O:3]/[C:4](=[N:5]\[H:12])[C@:6]1([N:7]([H:14])[H:15])[H:13])([H:8])([H:9])[H:10]>>[C:1]([C:2](=[O:3])[C:6]([N:7]([H:14])[H:15])([H:11])[H:13])([H:8])([H:9])[H:10].[C:4]=[N:5][H:12]"
C        1.75634616      -0.10828523       0.55164419
C        0.70231946      -0.41211257      -0.47206496
O        0.09999685      -1.58792853      -0.42967852
C       -2.00384415      -1.06966340      -0.33454061
N       -2.10828459      -1.56835103       0.74873084
C       -0.40358621       0.55684160      -0.81057702
N       -0.59964548       1.69695565      -0.00405997
H        1.29687427       0.21391381       1.48722490
H        2.41693014       0.69470155       0.21616656
H        2.36154787      -0.99209723       0.74656060
H        0.94486248       0.40765805      -1.55145880
H       -1.43141640      -2.23487084       1.11931840
H       -0.91447947       0.52177095      -1.76945598
H       -1.18534452       2.40368632      -0.42127196
H       -0.93227642       1.47778090       0.92346234
15
Frame=14 idx=006402 GeodesicLength=1.5954986493006824 rxn_smarts="[C:1]([C@@:2]1([H:11])[O:3]/[C:4](=[N:5]\[H:12])[C@:6]1([N:7]([H:14])[H:15])[H:13])([H:8])([H:9])[H:10]>>[C:1]([C:2](=[O:3])[C:6]([N:7]([H:14])[H:15])([H:11])[H:13])([H:8])([H:9])[H:10].[C:4]=[N:5][H:12]"
C        1.77356971      -0.11445497       0.54571830
C        0.70732002      -0.41888215      -0.46148332
O        0.09161122      -1.58881899      -0.39972451
C       -1.99438459      -1.08140630      -0.37945989
N       -2.11195265      -1.53413218       0.72484872
C       -0.40534159       0.54284240      -0.80463348
N       -0.61399709       1.67462498       0.02627187
H        1.33057050       0.25847482       1.47014631
H        2.45319656       0.65605194       0.17498761
H        2.35583594      -1.00645240       0.77095482
H        0.92303865       0.43697949      -1.54523090
H       -1.41530245      -2.16623363       1.12224476
H       -0.90686090       0.52208487      -1.76900565
H       -1.18311437       2.38951275      -0.40045896
H       -1.00418898       1.42980938       0.92482433
15
Frame=15 idx=006402 GeodesicLength=1.7105753444250165 rxn_smarts="[C:1]([C@@:2]1([H:11])[O:3]/[C:4](=[N:5]\[H:12])[C@:6]1([N:7]([H:14])[H:15])[H:13])([H:8])([H:9])[H:10]>>[C:1]([C:2](=[O:3])[C:6]([N:7]([H:14])[H:15])([H:11])[H:13])([H:8])([H:9])[H:10].[C:4]=[N:5][H:12]"
C        1.79078919      -0.12017486       0.53954337
C        0.71235498      -0.42536818      -0.45080113
O        0.08341077      -1.58897830      -0.36875082
C       -1.98289155      -1.09357695      -0.42183148
N       -2.11651528      -1.50300616       0.69976375
C       -0.40712152       0.52910792      -0.79829137
N       -0.62858460       1.65183999       0.05725129
H        1.36582579       0.30527579       1.44947029
H        2.48909900       0.61414296       0.13275093
H        2.34902795      -1.01857725       0.79779360
H        0.90116815       0.46752706      -1.53756544
H       -1.40227899      -2.09995235       1.12327501
H       -0.90021675       0.52247339      -1.76733729
H       -1.17980928       2.37570873      -0.37831513
H       -1.07425786       1.38355820       0.92304444
15
Frame=16 idx=006402 GeodesicLength=1.8255967140367386 rxn_smarts="[C:1]([C@@:2]1([H:11])[O:3]/[C:4](=[N:5]\[H:12])[C@:6]1([N:7]([H:14])[H:15])[H:13])([H:8])([H:9])[H:10]>>[C:1]([C:2](=[O:3])[C:6]([N:7]([H:14])[H:15])([H:11])[H:13])([H:8])([H:9])[H:10].[C:4]=[N:5][H:12]"
C        1.80795224      -0.12548143       0.53308923
C        0.71739542      -0.43163255      -0.44004534
O        0.07535049      -1.58841144      -0.33683227
C       -1.96946896      -1.10617808      -0.46200204
N       -2.12179622      -1.47488934       0.67354636
C       -0.40888089       0.51565633      -0.79160097
N       -0.64345033       1.62845633       0.08897393
H        1.40270153       0.35413579       1.42472574
H        2.52437194       0.56863029       0.08965127
H        2.34106379      -1.02813480       0.82715535
H        0.87921430       0.49937852      -1.52837083
H       -1.39202450      -2.03574583       1.12269961
H       -0.89442143       0.52302533      -1.76458202
H       -1.17523265       2.36226485      -0.35464341
H       -1.14277474       1.33892604       0.91823539
