10
Frame=0 idx=010295 GeodesicLength=0.0 rxn_smarts="[N:1](=[C:2]=[C:7]([C:6](=[O:5])[H:9])[H:10])[H:8].[N:3]#[N:4]>>[N:1](=[C:2]=[C:7]1[O:5][C@:6]1(/[N:4]=[N:3]\[H:10])[H:9])[H:8]"
N        2.33065585      -0.95113717       0.98010128
C        1.27390005      -0.56528575       0.52339250
N       -0.95580198       0.97818596      -1.86977306
N       -1.69013888       0.99865920      -0.94958581
O       -0.91401120       0.46193519       1.40735920
C       -1.25623821       0.02646930       0.24765554
C        0.16729174      -0.22734512      -0.06275312
H        3.06883133      -0.26125328       1.08878826
H       -1.99003470      -0.79228355       0.18064276
H       -0.03445399       0.33205522      -1.54582755
10
Frame=1 idx=010295 GeodesicLength=0.11080141423937907 rxn_smarts="[N:1](=[C:2]=[C:7]([C:6](=[O:5])[H:9])[H:10])[H:8].[N:3]#[N:4]>>[N:1](=[C:2]=[C:7]1[O:5][C@:6]1(/[N:4]=[N:3]\[H:10])[H:9])[H:8]"
N        2.34004860      -0.93208542       0.98328325
C        1.26435462      -0.59554839       0.53208785
N       -0.92749006       0.99828439      -1.86679322
N       -1.67867856       1.02854449      -0.96160545
O       -0.91462111       0.44796711       1.40879060
C       -1.26738292       0.01818389       0.24903448
C        0.14997237      -0.27013881      -0.04699262
H        3.06227073      -0.21931244       1.04292731
H       -2.01653279      -0.78601896       0.18209817
H       -0.01194086       0.31012414      -1.52283036
10
Frame=2 idx=010295 GeodesicLength=0.22171917920992928 rxn_smarts="[N:1](=[C:2]=[C:7]([C:6](=[O:5])[H:9])[H:10])[H:8].[N:3]#[N:4]>>[N:1](=[C:2]=[C:7]1[O:5][C@:6]1(/[N:4]=[N:3]\[H:10])[H:9])[H:8]"
N        2.35001897      -0.91324661       0.97878419
C        1.25553655      -0.62752472       0.53794057
N       -0.89861620       1.01831775      -1.86319000
N       -1.66496710       1.05979538      -0.97233290
O       -0.91257209       0.43406434       1.41048348
C       -1.27694826       0.01020439       0.25103599
C        0.13314294      -0.31213231      -0.03208212
H        3.04767187      -0.17433059       1.00556074
H       -2.04137297      -0.77903428       0.18505452
H        0.00810629       0.28388665      -1.50125448
10
Frame=3 idx=010295 GeodesicLength=0.33258974427816157 rxn_smarts="[N:1](=[C:2]=[C:7]([C:6](=[O:5])[H:9])[H:10])[H:8].[N:3]#[N:4]>>[N:1](=[C:2]=[C:7]1[O:5][C@:6]1(/[N:4]=[N:3]\[H:10])[H:9])[H:8]"
N        2.35647204      -0.89294294       0.97828673
C        1.24725456      -0.65303050       0.54705192
N       -0.86897962       1.03866824      -1.85897965
N       -1.65133089       1.08993252      -0.98379914
O       -0.91452699       0.42025051       1.41241639
C       -1.28674107       0.00128157       0.25256172
C        0.11717312      -0.34916501      -0.01516526
H        3.03604277      -0.13706348       0.96007149
H       -2.06317674      -0.77556517       0.18618042
H        0.02781282       0.25763426      -1.47862464
10
Frame=4 idx=010295 GeodesicLength=0.443558925369513 rxn_smarts="[N:1](=[C:2]=[C:7]([C:6](=[O:5])[H:9])[H:10])[H:8].[N:3]#[N:4]>>[N:1](=[C:2]=[C:7]1[O:5][C@:6]1(/[N:4]=[N:3]\[H:10])[H:9])[H:8]"
N        2.36323953      -0.87402923       0.97096159
C        1.24007971      -0.67907357       0.55315921
N       -0.83978485       1.05862973      -1.85474745
N       -1.63620099       1.12111398      -0.99428999
O       -0.91378881       0.40713414       1.41427318
C       -1.29506184      -0.00733172       0.25460633
C        0.10191078      -0.38512536       0.00064261
H        3.01818301      -0.09755977       0.92415862
H       -2.08324315      -0.77179018       0.18916617
H        0.04466662       0.22803199      -1.45793029
10
Frame=5 idx=010295 GeodesicLength=0.5544965350330437 rxn_smarts="[N:1](=[C:2]=[C:7]([C:6](=[O:5])[H:9])[H:10])[H:8].[N:3]#[N:4]>>[N:1](=[C:2]=[C:7]1[O:5][C@:6]1(/[N:4]=[N:3]\[H:10])[H:9])[H:8]"
N        2.36725334      -0.85331493       0.96813444
C        1.23323942      -0.69997006       0.56223296
N       -0.80986905       1.07929100      -1.84978401
N       -1.62100582       1.15178459      -1.00525754
O       -0.91668029       0.39390366       1.41628328
C       -1.30375157      -0.01697116       0.25610725
C        0.08742737      -0.41728420       0.01812201
H        3.00335641      -0.06482601       0.88017123
H       -2.10108008      -0.77130144       0.19031528
H        0.06111026       0.19868854      -1.43632490
10
Frame=6 idx=010295 GeodesicLength=0.6654747383384726 rxn_smarts="[N:1](=[C:2]=[C:7]([C:6](=[O:5])[H:9])[H:10])[H:8].[N:3]#[N:4]>>[N:1](=[C:2]=[C:7]1[O:5][C@:6]1(/[N:4]=[N:3]\[H:10])[H:9])[H:8]"
N        2.37101883      -0.83362525       0.96158220
C        1.22727277      -0.71999087       0.56981628
N       -0.78042289       1.09971739      -1.84493163
N       -1.60492254       1.18308458      -1.01580335
O       -0.91840733       0.38146317       1.41809027
C       -1.31157303      -0.02663912       0.25781443
C        0.07364982      -0.44796803       0.03510688
H        2.98535024      -0.03198704       0.84172362
H       -2.11733303      -0.77145625       0.19261984
H        0.07536715       0.16740143      -1.41601854
10
Frame=7 idx=010295 GeodesicLength=0.7764904603703409 rxn_smarts="[N:1](=[C:2]=[C:7]([C:6](=[O:5])[H:9])[H:10])[H:8].[N:3]#[N:4]>>[N:1](=[C:2]=[C:7]1[O:5][C@:6]1(/[N:4]=[N:3]\[H:10])[H:9])[H:8]"
N        2.37417624      -0.81443053       0.95304712
C        1.22195286      -0.73869643       0.57682086
N       -0.75108559       1.12019612      -1.84003717
N       -1.58804249       1.21489366      -1.02613147
O       -0.91986569       0.36962715       1.41972055
C       -1.31885986      -0.03656464       0.25957535
C        0.06051197      -0.47709978       0.05202427
H        2.96548176       0.00006426       0.80595753
H       -2.13215330      -0.77270043       0.19556074
H        0.08788410       0.13471061      -1.39653778
10
Frame=8 idx=010295 GeodesicLength=0.8875065681828439 rxn_smarts="[N:1](=[C:2]=[C:7]([C:6](=[O:5])[H:9])[H:10])[H:8].[N:3]#[N:4]>>[N:1](=[C:2]=[C:7]1[O:5][C@:6]1(/[N:4]=[N:3]\[H:10])[H:9])[H:8]"
N        2.37603039      -0.79455149       0.94590694
C        1.21701400      -0.75476920       0.58483236
N       -0.72152144       1.14126335      -1.83473640
N       -1.57075377       1.24696939      -1.03650994
O       -0.92278175       0.35804437       1.42122581
C       -1.32616069      -0.04718867       0.26105468
C        0.04799965      -0.50417238       0.06955888
H        2.94635719       0.02881359       0.76768369
H       -2.14556407      -0.77605637       0.19803439
H        0.09938050       0.10164741      -1.37705040
10
Frame=9 idx=010295 GeodesicLength=0.9985301332484788 rxn_smarts="[N:1](=[C:2]=[C:7]([C:6](=[O:5])[H:9])[H:10])[H:8].[N:3]#[N:4]>>[N:1](=[C:2]=[C:7]1[O:5][C@:6]1(/[N:4]=[N:3]\[H:10])[H:9])[H:8]"
N        2.37700214      -0.77431736       0.93904166
C        1.21245926      -0.76881430       0.59337990
N       -0.69180350       1.16280023      -1.82915697
N       -1.55286042       1.27955429      -1.04682075
O       -0.92657727       0.34683883       1.42253703
C       -1.33337229      -0.05840399       0.26233730
C        0.03604932      -0.52964909       0.08747512
H        2.92720756       0.05529605       0.72858327
H       -2.15777905      -0.78116159       0.20042867
H        0.10967425       0.06785692      -1.35780523
10
Frame=10 idx=010295 GeodesicLength=1.1095933979604995 rxn_smarts="[N:1](=[C:2]=[C:7]([C:6](=[O:5])[H:9])[H:10])[H:8].[N:3]#[N:4]>>[N:1](=[C:2]=[C:7]1[O:5][C@:6]1(/[N:4]=[N:3]\[H:10])[H:9])[H:8]"
N        2.37747257      -0.75426217       0.93093268
C        1.20834601      -0.78187121       0.60156454
N       -0.66189646       1.18470005      -1.82343135
N       -1.53411990       1.31280694      -1.05701051
O       -0.93025502       0.33623906       1.42354235
C       -1.34027393      -0.07002383       0.26359054
C        0.02458443      -0.55414042       0.10539403
H        2.90670033       0.08120417       0.69117170
H       -2.16901482      -0.78742557       0.20347135
H        0.11845678       0.03277296      -1.33922534
10
Frame=11 idx=010295 GeodesicLength=1.2206768451771044 rxn_smarts="[N:1](=[C:2]=[C:7]([C:6](=[O:5])[H:9])[H:10])[H:8].[N:3]#[N:4]>>[N:1](=[C:2]=[C:7]1[O:5][C@:6]1(/[N:4]=[N:3]\[H:10])[H:9])[H:8]"
N        2.37714341      -0.73369079       0.92320330
C        1.20451610      -0.79324693       0.61024437
N       -0.63161709       1.20729996      -1.81730203
N       -1.51472480       1.34666828      -1.06716747
O       -0.93473932       0.32604600       1.42425733
C       -1.34716005      -0.08230901       0.26462891
C        0.01358779      -0.57740391       0.12367762
H        2.88613534       0.10514398       0.65271922
H       -2.17929007      -0.79542362       0.20657204
H        0.12614869      -0.00308396      -1.32083329
10
Frame=12 idx=010295 GeodesicLength=1.3318001142801634 rxn_smarts="[N:1](=[C:2]=[C:7]([C:6](=[O:5])[H:9])[H:10])[H:8].[N:3]#[N:4]>>[N:1](=[C:2]=[C:7]1[O:5][C@:6]1(/[N:4]=[N:3]\[H:10])[H:9])[H:8]"
N        2.37627751      -0.71302687       0.91474042
C        1.20099879      -0.80353339       0.61887781
N       -0.60091923       1.23049293      -1.81087775
N       -1.49447305       1.38126984      -1.07726904
O       -0.93941613       0.31642105       1.42460033
C       -1.35390346      -0.09514687       0.26556243
C        0.00299896      -0.59982187       0.14211207
H        2.86464675       0.12828136       0.61493343
H       -2.18875200      -0.80478113       0.21021128
H        0.13254186      -0.04015504      -1.30289098
10
Frame=13 idx=010295 GeodesicLength=1.4429573712525665 rxn_smarts="[N:1](=[C:2]=[C:7]([C:6](=[O:5])[H:9])[H:10])[H:8].[N:3]#[N:4]>>[N:1](=[C:2]=[C:7]1[O:5][C@:6]1(/[N:4]=[N:3]\[H:10])[H:9])[H:8]"
N        2.37464679      -0.69161468       0.90674084
C        1.19767726      -0.81225387       0.62806261
N       -0.56962453       1.25460819      -1.80387331
N       -1.47351087       1.41659422      -1.08736163
O       -0.94494799       0.30721355       1.42456013
C       -1.36070961      -0.10875183       0.26624653
C       -0.00719868      -0.62124493       0.16094931
H        2.84311600       0.14950067       0.57574493
H       -2.19741251      -0.81593503       0.21397187
H        0.13796415      -0.07811630      -1.28504128
10
Frame=14 idx=010295 GeodesicLength=1.5541793913198203 rxn_smarts="[N:1](=[C:2]=[C:7]([C:6](=[O:5])[H:9])[H:10])[H:8].[N:3]#[N:4]>>[N:1](=[C:2]=[C:7]1[O:5][C@:6]1(/[N:4]=[N:3]\[H:10])[H:9])[H:8]"
N        2.37253337      -0.67007561       0.89776030
C        1.19459608      -0.82008849       0.63715422
N       -0.53763254       1.27947900      -1.79642375
N       -1.45157917       1.45274972      -1.09746831
O       -0.95059741       0.29863649       1.42404136
C       -1.36741372      -0.12297763       0.26682703
C       -0.01706876      -0.64207447       0.17995504
H        2.82042867       0.17031713       0.53729327
H       -2.20541540      -0.82841759       0.21845114
H        0.14214887      -0.11754855      -1.26759029
10
Frame=15 idx=010295 GeodesicLength=1.665467516110142 rxn_smarts="[N:1](=[C:2]=[C:7]([C:6](=[O:5])[H:9])[H:10])[H:8].[N:3]#[N:4]>>[N:1](=[C:2]=[C:7]1[O:5][C@:6]1(/[N:4]=[N:3]\[H:10])[H:9])[H:8]"
N        2.36971838      -0.64775915       0.88885441
C        1.19165092      -0.82655553       0.64671166
N       -0.50477596       1.30544488      -1.78820593
N       -1.42882314       1.48974025      -1.10762243
O       -0.95699304       0.29054976       1.42301989
C       -1.37419762      -0.13803786       0.26716453
C       -0.02662019      -0.66214632       0.19936684
H        2.79737461       0.18960980       0.49764442
H       -2.21274870      -0.84265327       0.22325793
H        0.14541474      -0.15819257      -1.25019133
10
Frame=16 idx=010295 GeodesicLength=1.776855626389088 rxn_smarts="[N:1](=[C:2]=[C:7]([C:6](=[O:5])[H:9])[H:10])[H:8].[N:3]#[N:4]>>[N:1](=[C:2]=[C:7]1[O:5][C@:6]1(/[N:4]=[N:3]\[H:10])[H:9])[H:8]"
N        2.36634560      -0.62504794       0.87910249
C        1.18885911      -0.83206248       0.65635376
N       -0.47089710       1.33244964      -1.77923063
N       -1.40505486       1.52763585      -1.11788482
O       -0.96370279       0.28309482       1.42140539
C       -1.38096831      -0.15387100       0.26734563
C       -0.03589956      -0.68171506       0.21906804
H        2.77320951       0.20838349       0.45804736
H       -2.21951004      -0.85836545       0.22878395
H        0.14761844      -0.20050187      -1.23299116
