14
Frame=0 idx=005162 GeodesicLength=0.0 rxn_smarts="[C:1]([C:2]([C:3](=[O:4])[C:5]([O:6][H:14])([H:12])[H:13])([H:10])[H:11])([H:7])([H:8])[H:9]>>[C:1]([C:2]([C@:3]1([O:4][H:14])[C:5]([H:12])([H:13])[O:6]1)([H:10])[H:11])([H:7])([H:8])[H:9]"
C       -1.95362934       0.41938355      -0.14847993
C       -0.77008354      -0.49210996       0.12480131
C        0.56629299       0.05785629      -0.17897957
O        0.64755140       1.22992069      -0.70365383
C        1.85241361      -0.57471735       0.19003031
O        2.24485734       0.49994760       0.94280304
H       -1.87486250       1.34373542       0.42329975
H       -2.88166298      -0.07822140       0.13264326
H       -2.01529115       0.68442161      -1.20393014
H       -0.84206083      -1.44349798      -0.41655884
H       -0.71430098      -0.78287159       1.18019634
H        1.67749256      -1.51259611       0.74397643
H        2.48053072      -0.81695141      -0.69137416
H        1.58275267       1.46570067      -0.39477392
14
Frame=1 idx=005162 GeodesicLength=0.07571666641713058 rxn_smarts="[C:1]([C:2]([C:3](=[O:4])[C:5]([O:6][H:14])([H:12])[H:13])([H:10])[H:11])([H:7])([H:8])[H:9]>>[C:1]([C:2]([C@:3]1([O:4][H:14])[C:5]([H:12])([H:13])[O:6]1)([H:10])[H:11])([H:7])([H:8])[H:9]"
C       -1.95207982       0.42101319      -0.14017579
C       -0.76982117      -0.49714667       0.11601994
C        0.56727055       0.05844813      -0.17937078
O        0.65034519       1.22021768      -0.72836094
C        1.85027012      -0.57650646       0.19675719
O        2.22875389       0.52112205       0.92733215
H       -1.86847389       1.33695680       0.44439250
H       -2.88064446      -0.07795589       0.13706995
H       -2.01732074       0.70032962      -1.19169292
H       -0.84342902      -1.43749565      -0.44370699
H       -0.71753301      -0.80604618       1.16627806
H        1.67932249      -1.50033359       0.77334851
H        2.48018966      -0.82963475      -0.67870450
H        1.59315019       1.46703171      -0.39918638
14
Frame=2 idx=005162 GeodesicLength=0.1514281273437897 rxn_smarts="[C:1]([C:2]([C:3](=[O:4])[C:5]([O:6][H:14])([H:12])[H:13])([H:10])[H:11])([H:7])([H:8])[H:9]>>[C:1]([C:2]([C@:3]1([O:4][H:14])[C:5]([H:12])([H:13])[O:6]1)([H:10])[H:11])([H:7])([H:8])[H:9]"
C       -1.95046658       0.42246779      -0.13181178
C       -0.76956387      -0.50211350       0.10722207
C        0.56814958       0.05921408      -0.17986485
O        0.65304175       1.21032112      -0.75271456
C        1.84791646      -0.57810095       0.20371181
O        2.21269855       0.54150164       0.91185132
H       -1.86207271       1.32975582       0.46549878
H       -2.87958798      -0.07786526       0.14140375
H       -2.01912472       0.71617402      -1.17915506
H       -0.84478224      -1.43107745      -0.47063032
H       -0.72071911      -0.82904603       1.15202053
H        1.68081163      -1.48745207       0.80237413
H        2.47973266      -0.84201154      -0.66560845
H        1.60396659       1.46823233      -0.40429737
14
Frame=3 idx=005162 GeodesicLength=0.22710768184291522 rxn_smarts="[C:1]([C:2]([C:3](=[O:4])[C:5]([O:6][H:14])([H:12])[H:13])([H:10])[H:11])([H:7])([H:8])[H:9]>>[C:1]([C:2]([C@:3]1([O:4][H:14])[C:5]([H:12])([H:13])[O:6]1)([H:10])[H:11])([H:7])([H:8])[H:9]"
C       -1.94880244       0.42373047      -0.12344254
C       -0.76930791      -0.50697512       0.09847941
C        0.56893269       0.06015957      -0.18046658
O        0.65563145       1.20029117      -0.77664300
C        1.84535613      -0.57953231       0.21080155
O        2.19671923       0.56102097       0.89639196
H       -1.85572712       1.32216796       0.48648821
H       -2.87850446      -0.07796208       0.14559789
H       -2.02067770       0.73183915      -1.16639726
H       -0.84612876      -1.42429297      -0.49712898
H       -0.72383018      -0.85169187       1.13754387
H        1.68196646      -1.47405550       0.83088740
H        2.47913896      -0.85403003      -0.65222036
H        1.61523366       1.46933059      -0.40989158
14
Frame=4 idx=005162 GeodesicLength=0.3027253739771504 rxn_smarts="[C:1]([C:2]([C:3](=[O:4])[C:5]([O:6][H:14])([H:12])[H:13])([H:10])[H:11])([H:7])([H:8])[H:9]>>[C:1]([C:2]([C@:3]1([O:4][H:14])[C:5]([H:12])([H:13])[O:6]1)([H:10])[H:11])([H:7])([H:8])[H:9]"
C       -1.94710347       0.42478871      -0.11512608
C       -0.76905038      -0.51169784       0.08986765
C        0.56962342       0.06128715      -0.18117743
O        0.65810652       1.19019367      -0.80007070
C        1.84259781      -0.58083518       0.21793112
O        2.18084505       0.57961849       0.88099371
H       -1.84950831       1.31424086       0.50722593
H       -2.87740802      -0.07825299       0.14960566
H       -2.02196004       0.74720707      -1.15351120
H       -0.84747716      -1.41720441      -0.52300273
H       -0.72683843      -0.87380396       1.12298348
H        1.68280531      -1.46026314       0.85871937
H        2.47839405      -0.86563897      -0.63868496
H        1.62697366       1.47036053      -0.41575383
14
Frame=5 idx=005162 GeodesicLength=0.378271175615736 rxn_smarts="[C:1]([C:2]([C:3](=[O:4])[C:5]([O:6][H:14])([H:12])[H:13])([H:10])[H:11])([H:7])([H:8])[H:9]>>[C:1]([C:2]([C@:3]1([O:4][H:14])[C:5]([H:12])([H:13])[O:6]1)([H:10])[H:11])([H:7])([H:8])[H:9]"
C       -1.94539698       0.42563639      -0.10692782
C       -0.76879188      -0.51624816       0.08147064
C        0.57023038       0.06259953      -0.18199232
O        0.66045817       1.18011110      -0.82291581
C        1.83966411      -0.58205030       0.22499867
O        2.16510505       0.59723698       0.86570313
H       -1.84349781       1.30604355       0.52756129
H       -2.87632521      -0.07873725       0.15337893
H       -2.02297020       0.76215232      -1.14060630
H       -0.84884509      -1.40988551      -0.54804392
H       -0.72971082      -0.89520230       1.10849776
H        1.68337384      -1.44621874       0.88569157
H        2.47750357      -0.87679334      -0.62516176
H        1.63920287       1.47135575      -0.42165405
14
Frame=6 idx=005162 GeodesicLength=0.453886595731759 rxn_smarts="[C:1]([C:2]([C:3](=[O:4])[C:5]([O:6][H:14])([H:12])[H:13])([H:10])[H:11])([H:7])([H:8])[H:9]>>[C:1]([C:2]([C@:3]1([O:4][H:14])[C:5]([H:12])([H:13])[O:6]1)([H:10])[H:11])([H:7])([H:8])[H:9]"
C       -1.94368680       0.42626263      -0.09890030
C       -0.76851834      -0.52059202       0.07337407
C        0.57074705       0.06411032      -0.18286846
O        0.66268080       1.17006200      -0.84516057
C        1.83654580      -0.58321395       0.23190447
O        2.14955891       0.61380882       0.85057508
H       -1.83776582       1.29765195       0.54735641
H       -2.87524836      -0.07942617       0.15690209
H       -2.02367442       0.77653728      -1.12779775
H       -0.85016703      -1.40241289      -0.57207528
H       -0.73247744      -0.91570938       1.09423566
H        1.68367904      -1.43207020       0.91163356
H        2.47637640      -0.88741668      -0.61182262
H        1.65195022       1.47240830      -0.42735636
14
Frame=7 idx=005162 GeodesicLength=0.5293843111799567 rxn_smarts="[C:1]([C:2]([C:3](=[O:4])[C:5]([O:6][H:14])([H:12])[H:13])([H:10])[H:11])([H:7])([H:8])[H:9]>>[C:1]([C:2]([C@:3]1([O:4][H:14])[C:5]([H:12])([H:13])[O:6]1)([H:10])[H:11])([H:7])([H:8])[H:9]"
C       -1.94197981       0.42669689      -0.09101535
C       -0.76824476      -0.52476630       0.06550045
C        0.57118875       0.06576337      -0.18389700
O        0.66475562       1.16005845      -0.86686532
C        1.83327204      -0.58430474       0.23869866
O        2.13409075       0.62949336       0.83561474
H       -1.83224121       1.28903073       0.56671965
H       -2.87418810      -0.08026597       0.16018319
H       -2.02414980       0.79048067      -1.11501596
H       -0.85156885      -1.39478867      -0.59523071
H       -0.73505069      -0.93545149       1.08013384
H        1.68376220      -1.41776757       0.93668217
H        2.47515813      -0.89758556      -0.59857178
H        1.66519572       1.47340683      -0.43293657
14
Frame=8 idx=005162 GeodesicLength=0.6049590348125072 rxn_smarts="[C:1]([C:2]([C:3](=[O:4])[C:5]([O:6][H:14])([H:12])[H:13])([H:10])[H:11])([H:7])([H:8])[H:9]>>[C:1]([C:2]([C@:3]1([O:4][H:14])[C:5]([H:12])([H:13])[O:6]1)([H:10])[H:11])([H:7])([H:8])[H:9]"
C       -1.94030591       0.42693086      -0.08332427
C       -0.76796189      -0.52873904       0.05794666
C        0.57154709       0.06757598      -0.18500837
O        0.66669235       1.15012644      -0.88802367
C        1.82984684      -0.58537211       0.24527783
O        2.11880834       0.64423141       0.82089162
H       -1.82703313       1.28028395       0.58550283
H       -2.87317008      -0.08127733       0.16322278
H       -2.02438204       0.80383619      -1.10239301
H       -0.85294880      -1.38709354      -0.61733087
H       -0.73749373      -0.95426482       1.06634115
H        1.68363928      -1.40350481       0.96068287
H        2.47375511      -0.90723256      -0.58560847
H        1.67900656       1.47449937      -0.43817709
14
Frame=9 idx=005162 GeodesicLength=0.6804175476332486 rxn_smarts="[C:1]([C:2]([C:3](=[O:4])[C:5]([O:6][H:14])([H:12])[H:13])([H:10])[H:11])([H:7])([H:8])[H:9]>>[C:1]([C:2]([C@:3]1([O:4][H:14])[C:5]([H:12])([H:13])[O:6]1)([H:10])[H:11])([H:7])([H:8])[H:9]"
C       -1.93863952       0.42700771      -0.07579034
C       -0.76768689      -0.53255884       0.05062624
C        0.57186235       0.06952442      -0.18629554
O        0.66846981       1.14021313      -0.90872926
C        1.82629498      -0.58637503       0.25169993
O        2.10359122       0.65811810       0.80633461
H       -1.82202672       1.27139449       0.60382828
H       -2.87217635      -0.08239791       0.16604557
H       -2.02439601       0.81674666      -1.08985999
H       -0.85443871      -1.37937376      -0.63856426
H       -0.73978939      -0.97230950       1.05281868
H        1.68338913      -1.38915083       0.98375141
H        2.47228131      -0.91640389      -0.57276931
H        1.69326479       1.47556524      -0.44309602
14
Frame=10 idx=005162 GeodesicLength=0.7559027951397581 rxn_smarts="[C:1]([C:2]([C:3](=[O:4])[C:5]([O:6][H:14])([H:12])[H:13])([H:10])[H:11])([H:7])([H:8])[H:9]>>[C:1]([C:2]([C@:3]1([O:4][H:14])[C:5]([H:12])([H:13])[O:6]1)([H:10])[H:11])([H:7])([H:8])[H:9]"
C       -1.93701934       0.42690940      -0.06847880
C       -0.76739539      -0.53618512       0.04364823
C        0.57208360       0.07161696      -0.18768412
O        0.67009193       1.13040333      -0.92890127
C        1.82260542      -0.58737097       0.25785327
O        2.08852270       0.67113470       0.79206202
H       -1.81734734       1.26246380       0.62152449
H       -2.87122399      -0.08365491       0.16863700
H       -2.02421262       0.82904051      -1.07756608
H       -0.85590875      -1.37168599      -0.65869957
H       -0.74191600      -0.98939557       1.03971907
H        1.68296566      -1.37494236       1.00572037
H        2.47065348      -0.92504792      -0.56031363
H        1.70810064       1.47671414      -0.44752098
14
Frame=11 idx=005162 GeodesicLength=0.8313297284237546 rxn_smarts="[C:1]([C:2]([C:3](=[O:4])[C:5]([O:6][H:14])([H:12])[H:13])([H:10])[H:11])([H:7])([H:8])[H:9]>>[C:1]([C:2]([C@:3]1([O:4][H:14])[C:5]([H:12])([H:13])[O:6]1)([H:10])[H:11])([H:7])([H:8])[H:9]"
C       -1.93543632       0.42666081      -0.06134854
C       -0.76711747      -0.53965611       0.03693802
C        0.57225827       0.07380066      -0.18922463
O        0.67155538       1.12063277      -0.94866893
C        1.81881172      -0.58833648       0.26379214
O        2.07355662       0.68339885       0.77803163
H       -1.81290701       1.25345275       0.63870081
H       -2.87032487      -0.08500209       0.17102467
H       -2.02385033       0.84082962      -1.06543099
H       -0.85747081      -1.36403107      -0.67790962
H       -0.74391776      -1.00565805       1.02696315
H        1.68245217      -1.36081758       1.02675143
H        2.46894368      -0.93321942      -0.54812874
H        1.72344674       1.47794536      -0.45149041
14
Frame=12 idx=005162 GeodesicLength=0.9066576715950614 rxn_smarts="[C:1]([C:2]([C:3](=[O:4])[C:5]([O:6][H:14])([H:12])[H:13])([H:10])[H:11])([H:7])([H:8])[H:9]>>[C:1]([C:2]([C@:3]1([O:4][H:14])[C:5]([H:12])([H:13])[O:6]1)([H:10])[H:11])([H:7])([H:8])[H:9]"
C       -1.93387368       0.42628184      -0.05434734
C       -0.76684999      -0.54301457       0.03041372
C        0.57236668       0.07605661      -0.19096163
O        0.67285946       1.11085641      -0.96813216
C        1.81489392      -0.58923438       0.26958489
O        2.05861776       0.69504828       0.76420387
H       -1.80863429       1.24432282       0.65550130
H       -2.86945338      -0.08641781       0.17325618
H       -2.02334246       0.85223916      -1.05337648
H       -0.85913917      -1.35640054      -0.69638387
H       -0.74577131      -1.02127808       1.01445075
H        1.68179430      -1.34666606       1.04700407
H        2.46719367      -0.94097372      -0.53609795
H        1.73933849       1.47918003      -0.45511536
14
Frame=13 idx=005162 GeodesicLength=0.982015576063667 rxn_smarts="[C:1]([C:2]([C:3](=[O:4])[C:5]([O:6][H:14])([H:12])[H:13])([H:10])[H:11])([H:7])([H:8])[H:9]>>[C:1]([C:2]([C@:3]1([O:4][H:14])[C:5]([H:12])([H:13])[O:6]1)([H:10])[H:11])([H:7])([H:8])[H:9]"
C       -1.93234351       0.42577855      -0.04754368
C       -0.76658700      -0.54622867       0.02417019
C        0.57241948       0.07839991      -0.19286194
O        0.67398521       1.10108393      -0.98725695
C        1.81087272      -0.59011184       0.27511515
O        2.04375156       0.70597941       0.75063730
H       -1.80457998       1.23520769       0.67173088
H       -2.86861985      -0.08788695       0.17534236
H       -2.02268980       0.86310661      -1.04155740
H       -0.86087023      -1.34889234      -0.71392830
H       -0.74750032      -1.03606867       1.00236270
H        1.68107842      -1.33266507       1.06627540
H        2.46534609      -0.94821893      -0.52439820
H        1.75573721       1.48051637      -0.45808752
14
Frame=14 idx=005162 GeodesicLength=1.0573457545660658 rxn_smarts="[C:1]([C:2]([C:3](=[O:4])[C:5]([O:6][H:14])([H:12])[H:13])([H:10])[H:11])([H:7])([H:8])[H:9]>>[C:1]([C:2]([C@:3]1([O:4][H:14])[C:5]([H:12])([H:13])[O:6]1)([H:10])[H:11])([H:7])([H:8])[H:9]"
C       -1.93085350       0.42516437      -0.04089807
C       -0.76634189      -0.54933254       0.01814766
C        0.57241603       0.08079797      -0.19495756
O        0.67494067       1.09130476      -1.00611574
C        1.80675757      -0.59094694       0.28043338
O        2.02891138       0.71632427       0.73729551
H       -1.80070733       1.22607284       0.68749889
H       -2.86783279      -0.08939482       0.17730416
H       -2.02192585       0.87353363      -1.02990609
H       -0.86270970      -1.34149415      -0.73068221
H       -0.74910371      -1.05017043       0.99062134
H        1.68029270      -1.31875157       1.08471069
H        2.46347057      -0.95502770      -0.51295324
H        1.77268584       1.48192031      -0.46049874
14
Frame=15 idx=005162 GeodesicLength=1.1326367117217213 rxn_smarts="[C:1]([C:2]([C:3](=[O:4])[C:5]([O:6][H:14])([H:12])[H:13])([H:10])[H:11])([H:7])([H:8])[H:9]>>[C:1]([C:2]([C@:3]1([O:4][H:14])[C:5]([H:12])([H:13])[O:6]1)([H:10])[H:11])([H:7])([H:8])[H:9]"
C       -1.92938185       0.42445130      -0.03436585
C       -0.76611762      -0.55235723       0.01227783
C        0.57235475       0.08321494      -0.19728756
O        0.67572084       1.08144075      -1.02481948
C        1.80253743      -0.59171144       0.28559393
O        2.01405211       0.72618979       0.72414489
H       -1.79694064       1.21687416       0.70290641
H       -2.86707522      -0.09091628       0.17918696
H       -2.02106181       0.88361022      -1.01834369
H       -0.86467684      -1.33418506      -0.74678837
H       -0.75059603      -1.06370746       0.97912094
H        1.67941442      -1.30485099       1.10244482
H        2.46158052      -0.96142824      -0.50166934
H        1.79018994       1.48337553      -0.46240149
14
Frame=16 idx=005162 GeodesicLength=1.2079259852943307 rxn_smarts="[C:1]([C:2]([C:3](=[O:4])[C:5]([O:6][H:14])([H:12])[H:13])([H:10])[H:11])([H:7])([H:8])[H:9]>>[C:1]([C:2]([C@:3]1([O:4][H:14])[C:5]([H:12])([H:13])[O:6]1)([H:10])[H:11])([H:7])([H:8])[H:9]"
C       -1.92791105       0.42365006      -0.02790084
C       -0.76592112      -0.55533617       0.00649270
C        0.57223668       0.08562914      -0.19989911
O        0.67632179       1.07142266      -1.04348250
C        1.79820144      -0.59237290       0.29064682
O        1.99912318       0.73567004       0.71113026
H       -1.79320857       1.20756240       0.71807231
H       -2.86633866      -0.09243893       0.18102169
H       -2.02010097       0.89344188      -1.00678932
H       -0.86680617      -1.32695427      -0.76239152
H       -0.75198777      -1.07681076       0.96776637
H        1.67842020      -1.29085869       1.11960774
H        2.45969670      -0.96745106      -0.49043608
H        1.80827432       1.48484659      -0.46383850
