14
Frame=0 idx=007138 GeodesicLength=0.0 rxn_smarts="[N:1](=[C:2]1\[O:3][C:4]([H:9])([H:10])[C@@:5]2([H:11])[C:6]([H:12])([H:13])[C@@:7]12[H:14])\[H:8]>>[N:1]([C:2]1=[O+:3][C:4]([H:9])([H:10])[C@@:5]2([H:11])[C-:6]([H:12])[C@@:7]12[H:14])([H:8])[H:13]"
N        0.94224033      -1.90388265       0.09712737
C        0.78208255      -0.62244843       0.32735853
O        1.37060804       0.44361413      -0.23378160
C        0.36113891       1.50993240      -0.26370410
C       -0.95377864       0.87414800       0.21029378
C       -1.14649059      -0.50281836      -0.45443485
C       -0.46204005      -0.28645181       0.94606380
H        1.66704261      -2.13311008      -0.57100528
H        0.34800958       1.86637137      -1.29351157
H        0.67647450       2.31156722       0.40572273
H       -1.73983668       1.51855325       0.58275505
H       -0.43788763      -0.46298366      -1.28105266
H       -0.49718808      -1.80469970      -0.24754620
H       -0.91037480      -0.80779172       1.77571500
14
Frame=1 idx=007138 GeodesicLength=0.07338870711983757 rxn_smarts="[N:1](=[C:2]1\[O:3][C:4]([H:9])([H:10])[C@@:5]2([H:11])[C:6]([H:12])([H:13])[C@@:7]12[H:14])\[H:8]>>[N:1]([C:2]1=[O+:3][C:4]([H:9])([H:10])[C@@:5]2([H:11])[C-:6]([H:12])[C@@:7]12[H:14])([H:8])[H:13]"
N        0.94917926      -1.90290536       0.09564066
C        0.78554341      -0.62363702       0.33446509
O        1.36981983       0.44142840      -0.23298266
C        0.36407072       1.50944764      -0.26337812
C       -0.95229368       0.87623189       0.20654118
C       -1.15765531      -0.49791769      -0.45267664
C       -0.46545712      -0.28886478       0.94363763
H        1.68629619      -2.12309233      -0.56192030
H        0.35135947       1.86745270      -1.29269395
H        0.68184076       2.30973780       0.40663438
H       -1.73555014       1.52112445       0.58396711
H       -0.46142678      -0.46381352      -1.29039248
H       -0.50658756      -1.81936223      -0.25540631
H       -0.90913904      -0.80582996       1.77856441
14
Frame=2 idx=007138 GeodesicLength=0.14676438346341722 rxn_smarts="[N:1](=[C:2]1\[O:3][C:4]([H:9])([H:10])[C@@:5]2([H:11])[C:6]([H:12])([H:13])[C@@:7]12[H:14])\[H:8]>>[N:1]([C:2]1=[O+:3][C:4]([H:9])([H:10])[C@@:5]2([H:11])[C-:6]([H:12])[C@@:7]12[H:14])([H:8])[H:13]"
N        0.95624202      -1.90177150       0.09405367
C        0.78916927      -0.62477623       0.34184336
O        1.36908649       0.43923386      -0.23206903
C        0.36703158       1.50890606      -0.26309439
C       -0.95074679       0.87827459       0.20280270
C       -1.16888480      -0.49290527      -0.45090745
C       -0.46884718      -0.29139048       0.94111337
H        1.70562039      -2.11295157      -0.55244406
H        0.35477430       1.86837912      -1.29195019
H        0.68719284       2.30791424       0.40743925
H       -1.73110880       1.52365942       0.58530744
H       -0.48559077      -0.46443352      -1.29979714
H       -0.51604789      -1.83425027      -0.26359620
H       -0.90789064      -0.80388846       1.78129867
14
Frame=3 idx=007138 GeodesicLength=0.22013154183335443 rxn_smarts="[N:1](=[C:2]1\[O:3][C:4]([H:9])([H:10])[C@@:5]2([H:11])[C:6]([H:12])([H:13])[C@@:7]12[H:14])\[H:8]>>[N:1]([C:2]1=[O+:3][C:4]([H:9])([H:10])[C@@:5]2([H:11])[C-:6]([H:12])[C@@:7]12[H:14])([H:8])[H:13]"
N        0.96343553      -1.90047100       0.09236990
C        0.79296520      -0.62586385       0.34949998
O        1.36841165       0.43703085      -0.23103366
C        0.37002289       1.50830550      -0.26285528
C       -0.94913546       0.88027353       0.19908014
C       -1.18018153      -0.48777756      -0.44912541
C       -0.47220503      -0.29403510       0.93848444
H        1.72501855      -2.10269153      -0.54255463
H        0.35825489       1.86914120      -1.29128557
H        0.69253041       2.30609936       0.40813096
H       -1.72650606       1.52615337       0.58678199
H       -0.51041597      -0.46482524      -1.30926461
H       -0.52556746      -1.84937176      -0.27213910
H       -0.90662761      -0.80196778       1.78391087
14
Frame=4 idx=007138 GeodesicLength=0.2934958190755006 rxn_smarts="[N:1](=[C:2]1\[O:3][C:4]([H:9])([H:10])[C@@:5]2([H:11])[C:6]([H:12])([H:13])[C@@:7]12[H:14])\[H:8]>>[N:1]([C:2]1=[O+:3][C:4]([H:9])([H:10])[C@@:5]2([H:11])[C-:6]([H:12])[C@@:7]12[H:14])([H:8])[H:13]"
N        0.97076662      -1.89899378       0.09059382
C        0.79693645      -0.62689787       0.35744061
O        1.36779908       0.43481949      -0.22987062
C        0.37304575       1.50764351      -0.26266428
C       -0.94745684       0.88222601       0.19537607
C       -1.19154868      -0.48253084      -0.44732862
C       -0.47552457      -0.29680565       0.93574318
H        1.74449697      -2.09231664      -0.53222177
H        0.36180094       1.86972890      -1.29070654
H        0.69785346       2.30429578       0.40870123
H       -1.72173303       1.52860085       0.58839940
H       -0.53594426      -0.46496554      -1.31879111
H       -0.53514380      -1.86473428      -0.28106493
H       -0.90534809      -0.80006995       1.78639355
14
Frame=5 idx=007138 GeodesicLength=0.36685540982876247 rxn_smarts="[N:1](=[C:2]1\[O:3][C:4]([H:9])([H:10])[C@@:5]2([H:11])[C:6]([H:12])([H:13])[C@@:7]12[H:14])\[H:8]>>[N:1]([C:2]1=[O+:3][C:4]([H:9])([H:10])[C@@:5]2([H:11])[C-:6]([H:12])[C@@:7]12[H:14])([H:8])[H:13]"
N        0.97824463      -1.89732877       0.08873060
C        0.80108766      -0.62787466       0.36567160
O        1.36725335       0.43260198      -0.22856997
C        0.37610110       1.50691852      -0.26252425
C       -0.94570864       0.88412958       0.19169181
C       -1.20298822      -0.47716184      -0.44551442
C       -0.47879995      -0.29970799       0.93288271
H        1.76405394      -2.08183654      -0.52142736
H        0.36541336       1.87013173      -1.29021956
H        0.70315987       2.30250841       0.40914222
H       -1.71678457       1.53099841       0.59016561
H       -0.56220957      -0.46483615      -1.32837048
H       -0.54477228      -1.88034508      -0.29039833
H       -0.90405068      -0.79819761       1.78873984
14
Frame=6 idx=007138 GeodesicLength=0.44021861024803893 rxn_smarts="[N:1](=[C:2]1\[O:3][C:4]([H:9])([H:10])[C@@:5]2([H:11])[C:6]([H:12])([H:13])[C@@:7]12[H:14])\[H:8]>>[N:1]([C:2]1=[O+:3][C:4]([H:9])([H:10])[C@@:5]2([H:11])[C-:6]([H:12])[C@@:7]12[H:14])([H:8])[H:13]"
N        0.98587687      -1.89546662       0.08678736
C        0.80542308      -0.62879290       0.37419625
O        1.36677864       0.43037816      -0.22712554
C        0.37919031       1.50612729      -0.26243909
C       -0.94388843       0.88598111       0.18802939
C       -1.21450489      -0.47166650      -0.44368042
C       -0.48202476      -0.30275074       0.92989331
H        1.78369891      -2.07125370      -0.51013556
H        0.36909210       1.87033829      -1.28983158
H        0.70844991       2.30073923       0.40944523
H       -1.71165046       1.53333945       0.59209075
H       -0.58926052      -0.46440966      -1.33799707
H       -0.55444973      -1.89621319      -0.30017377
H       -0.90273104      -0.79635023       1.79094077
14
Frame=7 idx=007138 GeodesicLength=0.5135872800812902 rxn_smarts="[N:1](=[C:2]1\[O:3][C:4]([H:9])([H:10])[C@@:5]2([H:11])[C:6]([H:12])([H:13])[C@@:7]12[H:14])\[H:8]>>[N:1]([C:2]1=[O+:3][C:4]([H:9])([H:10])[C@@:5]2([H:11])[C-:6]([H:12])[C@@:7]12[H:14])([H:8])[H:13]"
N        0.99367815      -1.89339473       0.08477776
C        0.80994767      -0.62964898       0.38302068
O        1.36638063       0.42815068      -0.22552677
C        0.38231424       1.50526744      -0.26241295
C       -0.94199377       0.88777696       0.18438943
C       -1.22609997      -0.46604278      -0.44182383
C       -0.48519189      -0.30594128       0.92676660
H        1.80342809      -2.06058026      -0.49832470
H        0.37283804       1.87033613      -1.28955078
H        0.71372077       2.29899339       0.40960028
H       -1.70632300       1.53561790       0.59418128
H       -0.61714160      -0.46365908      -1.34765955
H       -0.56416974      -1.91234426      -0.31042566
H       -0.90138762      -0.79453113       1.79298822
14
Frame=8 idx=007138 GeodesicLength=0.5869638728160695 rxn_smarts="[N:1](=[C:2]1\[O:3][C:4]([H:9])([H:10])[C@@:5]2([H:11])[C:6]([H:12])([H:13])[C@@:7]12[H:14])\[H:8]>>[N:1]([C:2]1=[O+:3][C:4]([H:9])([H:10])[C@@:5]2([H:11])[C-:6]([H:12])[C@@:7]12[H:14])([H:8])[H:13]"
N        1.00165850      -1.89110326       0.08271163
C        0.81466529      -0.63044044       0.39214723
O        1.36606453       0.42592090      -0.22376616
C        0.38547400       1.50433596      -0.26245091
C       -0.94002202       0.88951387       0.18077377
C       -1.23777728      -0.46028690      -0.43994189
C       -0.48829386      -0.30928817       0.92349181
H        1.82324595      -2.04982202      -0.48595607
H        0.37665075       1.87011246      -1.28938570
H        0.71897186       2.29727435       0.40959630
H       -1.70079142       1.53782710       0.59644823
H       -0.64590513      -0.46255578      -1.35734530
H       -0.57392469      -1.92874527      -0.32119543
H       -0.90001648      -0.79274280       1.79487248
14
Frame=9 idx=007138 GeodesicLength=0.6603429383508972 rxn_smarts="[N:1](=[C:2]1\[O:3][C:4]([H:9])([H:10])[C@@:5]2([H:11])[C:6]([H:12])([H:13])[C@@:7]12[H:14])\[H:8]>>[N:1]([C:2]1=[O+:3][C:4]([H:9])([H:10])[C@@:5]2([H:11])[C-:6]([H:12])[C@@:7]12[H:14])([H:8])[H:13]"
N        1.00984174      -1.88857379       0.08061467
C        0.81957778      -0.63116411       0.40157476
O        1.36583662       0.42369389      -0.22183086
C        0.38866912       1.50333092      -0.26255772
C       -0.93797160       0.89118758       0.17718165
C       -1.24953969      -0.45439694      -0.43803047
C       -0.49132319      -0.31279991       0.92005811
H        1.84313638      -2.03900385      -0.47301109
H        0.38053027       1.86965473      -1.28934567
H        0.72419734       2.29558842       0.40942251
H       -1.69504995       1.53996217       0.59889898
H       -0.67558980      -0.46107112      -1.36703313
H       -0.58370250      -1.94541920      -0.33252625
H       -0.89861250      -0.79098877       1.79658451
14
Frame=10 idx=007138 GeodesicLength=0.7337295431536204 rxn_smarts="[N:1](=[C:2]1\[O:3][C:4]([H:9])([H:10])[C@@:5]2([H:11])[C:6]([H:12])([H:13])[C@@:7]12[H:14])\[H:8]>>[N:1]([C:2]1=[O+:3][C:4]([H:9])([H:10])[C@@:5]2([H:11])[C-:6]([H:12])[C@@:7]12[H:14])([H:8])[H:13]"
N        1.01823395      -1.88580405       0.07849605
C        0.82469088      -0.63181462       0.41131342
O        1.36570405       0.42147202      -0.21970991
C        0.39190146       1.50224881      -0.26273907
C       -0.93584004       0.89279485       0.17361417
C       -1.26138999      -0.44836969      -0.43608515
C       -0.49427200      -0.31648465       0.91645534
H        1.86310435      -2.02812702      -0.45945601
H        0.38447740       1.86894619      -1.28944089
H        0.72939579       2.29394115       0.40906513
H       -1.68908634       1.54201441       0.60154253
H       -0.70625586      -0.45917337      -1.37670689
H       -0.59348875      -1.96237498      -0.34446331
H       -0.89717490      -0.78926906       1.79811462
14
Frame=11 idx=007138 GeodesicLength=0.8071222354424451 rxn_smarts="[N:1](=[C:2]1\[O:3][C:4]([H:9])([H:10])[C@@:5]2([H:11])[C:6]([H:12])([H:13])[C@@:7]12[H:14])\[H:8]>>[N:1]([C:2]1=[O+:3][C:4]([H:9])([H:10])[C@@:5]2([H:11])[C-:6]([H:12])[C@@:7]12[H:14])([H:8])[H:13]"
N        1.02685355      -1.88278405       0.07638047
C        0.83000673      -0.63238821       0.42136663
O        1.36567437       0.41925884      -0.21739001
C        0.39517234       1.50108597      -0.26300088
C       -0.93362506       0.89433138       0.17007069
C       -1.27332940      -0.44220368      -0.43410196
C       -0.49713215      -0.32035113       0.91267286
H        1.88314252      -2.01720149      -0.44526751
H        0.38849365       1.86796999      -1.28968215
H        0.73456374       2.29233826       0.40851050
H       -1.68289175       1.54397700       0.60438556
H       -0.73795849      -0.45682890      -1.38634264
H       -0.60326883      -1.97961729      -0.35705437
H       -0.89570122      -0.78758668       1.79945281
14
Frame=12 idx=007138 GeodesicLength=0.8805208142175038 rxn_smarts="[N:1](=[C:2]1\[O:3][C:4]([H:9])([H:10])[C@@:5]2([H:11])[C:6]([H:12])([H:13])[C@@:7]12[H:14])\[H:8]>>[N:1]([C:2]1=[O+:3][C:4]([H:9])([H:10])[C@@:5]2([H:11])[C-:6]([H:12])[C@@:7]12[H:14])([H:8])[H:13]"
N        1.03572060      -1.87950504       0.07429795
C        0.83552690      -0.63288044       0.43173709
O        1.36575504       0.41705855      -0.21485847
C        0.39848220       1.49983862      -0.26335002
C       -0.93132469       0.89579275       0.16655128
C       -1.28536239      -0.43589607      -0.43207495
C       -0.49989590      -0.32440943       0.90869764
H        1.90323934      -2.00623983      -0.43041734
H        0.39257865       1.86670823      -1.29008128
H        0.73969716       2.29078592       0.40774306
H       -1.67645487       1.54584194       0.60743849
H       -0.77075281      -0.45400459      -1.39591133
H       -0.61302215      -1.99714879      -0.37035944
H       -0.89418710      -0.78594182       1.80058732
14
Frame=13 idx=007138 GeodesicLength=0.9539201347376892 rxn_smarts="[N:1](=[C:2]1\[O:3][C:4]([H:9])([H:10])[C@@:5]2([H:11])[C:6]([H:12])([H:13])[C@@:7]12[H:14])\[H:8]>>[N:1]([C:2]1=[O+:3][C:4]([H:9])([H:10])[C@@:5]2([H:11])[C-:6]([H:12])[C@@:7]12[H:14])([H:8])[H:13]"
N        1.04485907      -1.87595796       0.07228676
C        0.84125311      -0.63328461       0.44243297
O        1.36595547       0.41487772      -0.21209597
C        0.40183166       1.49850303      -0.26379299
C       -0.92893769       0.89717361       0.16305277
C       -1.29748842      -0.42944730      -0.42999900
C       -0.50255549      -0.32866778       0.90451860
H        1.92337044      -1.99525839      -0.41490234
H        0.39673546       1.86514051      -1.29065074
H        0.74478837       2.28929272       0.40674672
H       -1.66976735       1.54760029       0.61070423
H       -0.80468906      -0.45066326      -1.40537880
H       -0.62272342      -2.01497328      -0.38443088
H       -0.89263215      -0.78433530       1.80150866
14
Frame=14 idx=007138 GeodesicLength=1.0273166799180256 rxn_smarts="[N:1](=[C:2]1\[O:3][C:4]([H:9])([H:10])[C@@:5]2([H:11])[C:6]([H:12])([H:13])[C@@:7]12[H:14])\[H:8]>>[N:1]([C:2]1=[O+:3][C:4]([H:9])([H:10])[C@@:5]2([H:11])[C-:6]([H:12])[C@@:7]12[H:14])([H:8])[H:13]"
N        1.05428976      -1.87213866       0.07038613
C        0.84718444      -0.63359727       0.45345719
O        1.36628465       0.41271964      -0.20908672
C        0.40522237       1.49707314      -0.26433866
C       -0.92646174       0.89846882       0.15957341
C       -1.30971072      -0.42285605      -0.42786756
C       -0.50510306      -0.33313671       0.90012208
H        1.94352778      -1.98426127      -0.39869586
H        0.40096623       1.86324332      -1.29140521
H        0.74983364       2.28786442       0.40550187
H       -1.66281632       1.54924355       0.61419034
H       -0.83983646      -0.44676599      -1.41469901
H       -0.63234633      -2.03308924      -0.39934358
H       -0.89103424      -0.78276768       1.80220560
14
Frame=15 idx=007138 GeodesicLength=1.100703513811934 rxn_smarts="[N:1](=[C:2]1\[O:3][C:4]([H:9])([H:10])[C@@:5]2([H:11])[C:6]([H:12])([H:13])[C@@:7]12[H:14])\[H:8]>>[N:1]([C:2]1=[O+:3][C:4]([H:9])([H:10])[C@@:5]2([H:11])[C-:6]([H:12])[C@@:7]12[H:14])([H:8])[H:13]"
N        1.06403896      -1.86804284       0.06864809
C        0.85331943      -0.63381211       0.46481813
O        1.36675261       0.41058999      -0.20580954
C        0.40865583       1.49554322      -0.26499497
C       -0.92389507       0.89967255       0.15610963
C       -1.32202914      -0.41612292      -0.42567513
C       -0.50753171      -0.33782554       0.89549537
H        1.96368721      -1.97325734      -0.38179869
H        0.40527498       1.86099125      -1.29235936
H        0.75482613       2.28650910       0.40398886
H       -1.65559229       1.55076293       0.61789942
H       -0.87625330      -0.44227603      -1.42382161
H       -0.64185967      -2.05149463      -0.41516714
H       -0.88939397      -0.78123763       1.80266693
14
Frame=16 idx=007138 GeodesicLength=1.1740743393596205 rxn_smarts="[N:1](=[C:2]1\[O:3][C:4]([H:9])([H:10])[C@@:5]2([H:11])[C:6]([H:12])([H:13])[C@@:7]12[H:14])\[H:8]>>[N:1]([C:2]1=[O+:3][C:4]([H:9])([H:10])[C@@:5]2([H:11])[C-:6]([H:12])[C@@:7]12[H:14])([H:8])[H:13]"
N        1.07413313      -1.86366928       0.06712952
C        0.85965392      -0.63392413       0.47652315
O        1.36736879       0.40849267      -0.20224427
C        0.41213356       1.49390562      -0.26577185
C       -0.92123644       0.90077861       0.15265679
C       -1.33444584      -0.40924867      -0.42341311
C       -0.50983523      -0.34274459       0.89062535
H        1.98383090      -1.96225081      -0.36420540
H        0.40966601       1.85835571      -1.29352986
H        0.75975971       2.28523309       0.40218517
H       -1.64808242       1.55214936       0.62183405
H       -0.91400599      -0.43715037      -1.43268751
H       -0.65122772      -2.07018321      -0.43198414
H       -0.88771238      -0.77974398       1.80288212
