11
Frame=0 idx=002181 GeodesicLength=0.0 rxn_smarts="[N:1]([c:2]1[c:3]([H:9])[c:4]([H:10])[c:5]([H:11])[o:6]1)([H:7])[H:8]>>[N+:1]([C:2]1=[C:3]=[C:4]([H:10])[C-:5]([H:11])[O:6]1)([H:7])([H:8])[H:9]"
N        1.84270276       0.29636944       0.04823068
C        0.44860272      -0.04985810      -0.01925931
C       -0.33557880       0.99429173       0.26302117
C       -1.64153946       0.36716868       0.12058451
C       -1.45053154      -0.93223985      -0.21859540
O       -0.11482568      -1.23714208      -0.31773987
H        2.38396877      -0.13160629       0.79339633
H        2.35908255       0.28651968      -0.82626346
H        1.24307114       1.33999647       0.32726503
H       -2.61425101       0.81925700       0.25053088
H       -2.12070144      -1.75275669      -0.42117059
11
Frame=1 idx=002181 GeodesicLength=0.052842027709749544 rxn_smarts="[N:1]([c:2]1[c:3]([H:9])[c:4]([H:10])[c:5]([H:11])[o:6]1)([H:7])[H:8]>>[N+:1]([C:2]1=[C:3]=[C:4]([H:10])[C-:5]([H:11])[O:6]1)([H:7])([H:8])[H:9]"
N        1.84268277       0.29581758       0.04983553
C        0.45060321      -0.05978986       0.01791009
C       -0.33469578       0.99048320       0.27927173
C       -1.63990931       0.37012694       0.10567153
C       -1.44919128      -0.93004091      -0.22934593
O       -0.11298676      -1.23983919      -0.30581239
H        2.40023530      -0.14935870       0.77248736
H        2.33835118       0.29727567      -0.83637826
H        1.23586477       1.35500459       0.33199180
H       -2.61202275       0.82502118       0.22994904
H       -2.11893134      -1.75470050      -0.41558051
11
Frame=2 idx=002181 GeodesicLength=0.1056628794233895 rxn_smarts="[N:1]([c:2]1[c:3]([H:9])[c:4]([H:10])[c:5]([H:11])[o:6]1)([H:7])[H:8]>>[N+:1]([C:2]1=[C:3]=[C:4]([H:10])[C-:5]([H:11])[O:6]1)([H:7])([H:8])[H:9]"
N        1.84217680       0.29473157       0.05189918
C        0.45243973      -0.06854836       0.05267000
C       -0.33395216       0.98745470       0.29327621
C       -1.63766997       0.37275169       0.09213207
C       -1.44705447      -0.92829768      -0.23801933
O       -0.11063446      -1.24195027      -0.29402636
H        2.41389482      -0.16765766       0.75225439
H        2.31839262       0.30680579      -0.84461980
H        1.22809543       1.37064054       0.33466335
H       -2.60925465       0.82991759       0.21192396
H       -2.11643370      -1.75584790      -0.41215367
11
Frame=3 idx=002181 GeodesicLength=0.15847952079113434 rxn_smarts="[N:1]([c:2]1[c:3]([H:9])[c:4]([H:10])[c:5]([H:11])[o:6]1)([H:7])[H:8]>>[N+:1]([C:2]1=[C:3]=[C:4]([H:10])[C-:5]([H:11])[O:6]1)([H:7])([H:8])[H:9]"
N        1.84136409       0.29330292       0.05411803
C        0.45421354      -0.07621488       0.08450676
C       -0.33328043       0.98447353       0.30751306
C       -1.63492430       0.37475054       0.08104864
C       -1.44437822      -0.92734408      -0.24351234
O       -0.10790493      -1.24323139      -0.28383052
H        2.42550738      -0.18758151       0.73130143
H        2.29903541       0.31706675      -0.85155908
H        1.21979563       1.38640989       0.33735770
H       -2.60597681       0.83534315       0.19141164
H       -2.11345134      -1.75697494      -0.40835532
11
Frame=4 idx=002181 GeodesicLength=0.21124058969395088 rxn_smarts="[N:1]([c:2]1[c:3]([H:9])[c:4]([H:10])[c:5]([H:11])[o:6]1)([H:7])[H:8]>>[N+:1]([C:2]1=[C:3]=[C:4]([H:10])[C-:5]([H:11])[O:6]1)([H:7])([H:8])[H:9]"
N        1.84048438       0.29149278       0.05694333
C        0.45591288      -0.08274521       0.11267382
C       -0.33265719       0.98202806       0.31987177
C       -1.63198044       0.37615330       0.07227313
C       -1.44148226      -0.92679291      -0.24734719
O       -0.10489882      -1.24355696      -0.27625733
H        2.43455308      -0.20886602       0.71092033
H        2.28151137       0.32753606      -0.85635319
H        1.21106844       1.40251153       0.33937473
H       -2.60236988       0.84064733       0.17127254
H       -2.11014157      -1.75840795      -0.40337194
11
Frame=5 idx=002181 GeodesicLength=0.2639906378676638 rxn_smarts="[N:1]([c:2]1[c:3]([H:9])[c:4]([H:10])[c:5]([H:11])[o:6]1)([H:7])[H:8]>>[N+:1]([C:2]1=[C:3]=[C:4]([H:10])[C-:5]([H:11])[O:6]1)([H:7])([H:8])[H:9]"
N        1.83960570       0.28940004       0.06019076
C        0.45759896      -0.08855927       0.13816589
C       -0.33207154       0.97970186       0.33172607
C       -1.62887601       0.37718589       0.06492584
C       -1.43846092      -0.92656058      -0.24990757
O       -0.10167076      -1.24327323      -0.27051333
H        2.44180889      -0.23131018       0.69035428
H        2.26519288       0.33860064      -0.85962186
H        1.20188041       1.41883258       0.34123590
H       -2.59836180       0.84609904       0.15047679
H       -2.10664582      -1.76011679      -0.39703276
11
Frame=6 idx=002181 GeodesicLength=0.3166766425727737 rxn_smarts="[N:1]([c:2]1[c:3]([H:9])[c:4]([H:10])[c:5]([H:11])[o:6]1)([H:7])[H:8]>>[N+:1]([C:2]1=[C:3]=[C:4]([H:10])[C-:5]([H:11])[O:6]1)([H:7])([H:8])[H:9]"
N        1.83883037       0.28698225       0.06391511
C        0.45924231      -0.09363263       0.16160524
C       -0.33149394       0.97785080       0.34198721
C       -1.62571256       0.37794709       0.05862404
C       -1.43528746      -0.92637637      -0.25221035
O       -0.09832554      -1.24266931      -0.26494065
H        2.44738102      -0.25402497       0.67038793
H        2.25022857       0.34899835      -0.86137471
H        1.19226780       1.43565857       0.34158692
H       -2.59419155       0.85092317       0.13187044
H       -2.10293901      -1.76165694      -0.39145118
11
Frame=7 idx=002181 GeodesicLength=0.3693562828360336 rxn_smarts="[N:1]([c:2]1[c:3]([H:9])[c:4]([H:10])[c:5]([H:11])[o:6]1)([H:7])[H:8]>>[N+:1]([C:2]1=[C:3]=[C:4]([H:10])[C-:5]([H:11])[O:6]1)([H:7])([H:8])[H:9]"
N        1.83818779       0.28426782       0.06811492
C        0.46087894      -0.09816290       0.18322249
C       -0.33091139       0.97635341       0.35112623
C       -1.62256665       0.37841662       0.05360713
C       -1.43205743      -0.92629977      -0.25399489
O       -0.09483674      -1.24180162      -0.26007704
H        2.45151874      -0.27713117       0.65077802
H        2.23651912       0.35914489      -0.86179012
H        1.18223774       1.45292807       0.34075175
H       -2.58987173       0.85544775       0.11438950
H       -2.09909839      -1.76316309      -0.38612800
11
Frame=8 idx=002181 GeodesicLength=0.4221216811192299 rxn_smarts="[N:1]([c:2]1[c:3]([H:9])[c:4]([H:10])[c:5]([H:11])[o:6]1)([H:7])[H:8]>>[N+:1]([C:2]1=[C:3]=[C:4]([H:10])[C-:5]([H:11])[O:6]1)([H:7])([H:8])[H:9]"
N        1.83773626       0.28123470       0.07279306
C        0.46250776      -0.10220058       0.20333019
C       -0.33032323       0.97525207       0.35908480
C       -1.61947347       0.37875175       0.04933672
C       -1.42876936      -0.92627184      -0.25555980
O       -0.09123319      -1.24072519      -0.25567254
H        2.45441105      -0.30050120       0.63159404
H        2.22402679       0.36889189      -0.86097491
H        1.17178254       1.47065164       0.33868120
H       -2.58553595       0.85954351       0.09857875
H       -2.09512919      -1.76462675      -0.38119151
11
Frame=9 idx=002181 GeodesicLength=0.47463202614663796 rxn_smarts="[N:1]([c:2]1[c:3]([H:9])[c:4]([H:10])[c:5]([H:11])[o:6]1)([H:7])[H:8]>>[N+:1]([C:2]1=[C:3]=[C:4]([H:10])[C-:5]([H:11])[O:6]1)([H:7])([H:8])[H:9]"
N        1.83750456       0.27782900       0.07791692
C        0.46404378      -0.10558762       0.22203154
C       -0.32958594       0.97453729       0.36522102
C       -1.61641504       0.37878110       0.04587400
C       -1.42542806      -0.92611757      -0.25722424
O       -0.08768639      -1.23922722      -0.25130996
H        2.45591088      -0.32358247       0.61336769
H        2.21298611       0.37760526      -0.85880123
H        1.16102266       1.48882338       0.33471534
H       -2.58131085       0.86272439       0.08571418
H       -2.09104171      -1.76578555      -0.37750524
11
Frame=10 idx=002181 GeodesicLength=0.52723492177405 rxn_smarts="[N:1]([c:2]1[c:3]([H:9])[c:4]([H:10])[c:5]([H:11])[o:6]1)([H:7])[H:8]>>[N+:1]([C:2]1=[C:3]=[C:4]([H:10])[C-:5]([H:11])[O:6]1)([H:7])([H:8])[H:9]"
N        1.83747636       0.27412144       0.08349051
C        0.46560093      -0.10868686       0.23976259
C       -0.32886163       0.97412241       0.37069493
C       -1.61337979       0.37890458       0.04241893
C       -1.42203337      -0.92599671      -0.25877154
O       -0.08400031      -1.23771362      -0.24718842
H        2.45653510      -0.34689466       0.59532723
H        2.20287141       0.38612714      -0.85568779
H        1.14981929       1.50736038       0.32969676
H       -2.57714363       0.86556853       0.07434317
H       -2.08688435      -1.76691263      -0.37408637
11
Frame=11 idx=002181 GeodesicLength=0.5798801006702164 rxn_smarts="[N:1]([c:2]1[c:3]([H:9])[c:4]([H:10])[c:5]([H:11])[o:6]1)([H:7])[H:8]>>[N+:1]([C:2]1=[C:3]=[C:4]([H:10])[C-:5]([H:11])[O:6]1)([H:7])([H:8])[H:9]"
N        1.83763516       0.27012231       0.08934940
C        0.46719169      -0.11162702       0.25664892
C       -0.32806393       0.97367163       0.37621472
C       -1.61032114       0.37891183       0.03954296
C       -1.41863218      -0.92595257      -0.26002087
O       -0.08028309      -1.23604941      -0.24360430
H        2.45640544      -0.37046380       0.57690226
H        2.19339823       0.39490796      -0.85178718
H        1.13813423       1.52609531       0.32427398
H       -2.57279243       0.86851409       0.06273244
H       -2.08267198      -1.76813034      -0.37025232
11
Frame=12 idx=002181 GeodesicLength=0.6324039907858083 rxn_smarts="[N:1]([c:2]1[c:3]([H:9])[c:4]([H:10])[c:5]([H:11])[o:6]1)([H:7])[H:8]>>[N+:1]([C:2]1=[C:3]=[C:4]([H:10])[C-:5]([H:11])[O:6]1)([H:7])([H:8])[H:9]"
N        1.83791410       0.26585695       0.09521939
C        0.46887196      -0.11460503       0.27305751
C       -0.32721473       0.97282102       0.38274365
C       -1.60723887       0.37858778       0.03797200
C       -1.41524057      -0.92604297      -0.26062676
O       -0.07654091      -1.23427464      -0.24030490
H        2.45582151      -0.39419143       0.55733127
H        2.18404574       0.40434477      -0.84745899
H        1.12587827       1.54482799       0.31907418
H       -2.56785506       0.87213498       0.04884440
H       -2.07844144      -1.76945944      -0.36585174
11
Frame=13 idx=002181 GeodesicLength=0.6851166824265329 rxn_smarts="[N:1]([c:2]1[c:3]([H:9])[c:4]([H:10])[c:5]([H:11])[o:6]1)([H:7])[H:8]>>[N+:1]([C:2]1=[C:3]=[C:4]([H:10])[C-:5]([H:11])[O:6]1)([H:7])([H:8])[H:9]"
N        1.83843718       0.26121189       0.10146943
C        0.47057361      -0.11739101       0.28869972
C       -0.32630914       0.97220474       0.38862478
C       -1.60420524       0.37827889       0.03667219
C       -1.41183236      -0.92612854      -0.26123186
O       -0.07273859      -1.23242303      -0.23735514
H        2.45443668      -0.41795345       0.53794698
H        2.17562656       0.41357251      -0.84224719
H        1.11312009       1.56391499       0.31287243
H       -2.56295154       0.87547550       0.03622569
H       -2.07415725      -1.77076250      -0.36167704
11
Frame=14 idx=002181 GeodesicLength=0.73750878035426 rxn_smarts="[N:1]([c:2]1[c:3]([H:9])[c:4]([H:10])[c:5]([H:11])[o:6]1)([H:7])[H:8]>>[N+:1]([C:2]1=[C:3]=[C:4]([H:10])[C-:5]([H:11])[O:6]1)([H:7])([H:8])[H:9]"
N        1.83910760       0.25627515       0.10782176
C        0.47237225      -0.12024494       0.30388310
C       -0.32525591       0.97120834       0.39514060
C       -1.60116650       0.37760199       0.03664963
C       -1.40848834      -0.92631312      -0.26126063
O       -0.06898624      -1.23042177      -0.23472290
H        2.45248373      -0.44164780       0.51749786
H        2.16744040       0.42335807      -0.83634577
H        1.09981437       1.58297896       0.30661536
H       -2.55739285       0.87931350       0.02180842
H       -2.06992851      -1.77210837      -0.35708742
11
Frame=15 idx=002181 GeodesicLength=0.7900956177172815 rxn_smarts="[N:1]([c:2]1[c:3]([H:9])[c:4]([H:10])[c:5]([H:11])[o:6]1)([H:7])[H:8]>>[N+:1]([C:2]1=[C:3]=[C:4]([H:10])[C-:5]([H:11])[O:6]1)([H:7])([H:8])[H:9]"
N        1.84003427       0.25091421       0.11455063
C        0.47418904      -0.12294007       0.31845486
C       -0.32413896       0.97045383       0.40097716
C       -1.59820472       0.37696538       0.03686581
C       -1.40512593      -0.92645545      -0.26138656
O       -0.06518299      -1.22836918      -0.23231784
H        2.44983237      -0.46526379       0.49732330
H        2.16019752       0.43283198      -0.82958011
H        1.08593578       1.60240504       0.29915921
H       -2.55190041       0.88284892       0.00890800
H       -2.06563598      -1.77339089      -0.35295443
11
Frame=16 idx=002181 GeodesicLength=0.8425701390952745 rxn_smarts="[N:1]([c:2]1[c:3]([H:9])[c:4]([H:10])[c:5]([H:11])[o:6]1)([H:7])[H:8]>>[N+:1]([C:2]1=[C:3]=[C:4]([H:10])[C-:5]([H:11])[O:6]1)([H:7])([H:8])[H:9]"
N        1.84122775       0.24511423       0.12177428
C        0.47595988      -0.12534007       0.33230004
C       -0.32285654       0.97004884       0.40548313
C       -1.59524625       0.37639272       0.03688326
C       -1.40173758      -0.92642721      -0.26193265
O       -0.06139813      -1.22613965      -0.23011112
H        2.44631768      -0.48856304       0.47804938
H        2.15421029       0.44161314      -0.82170659
H        1.07161216       1.62215560       0.28986323
H       -2.54678772       0.88558717      -0.00091694
H       -2.06130153      -1.77444172      -0.34968601
