15
Frame=0 idx=000063 GeodesicLength=0.0 rxn_smarts="[C:1]([C:2]([C:3]([H:11])([H:12])[H:13])([C:4]([C:5]#[N:6])([H:14])[H:15])[H:10])([H:7])([H:8])[H:9]>>[C:1](=[C:2]([C:3]([H:11])([H:12])[H:13])[H:10])([H:7])[H:8].[C:4]1([H:14])([H:15])[C:5]([H:9])=[N:6]1"
C       -0.82189019       1.26657361      -0.35322278
C       -0.75251465       0.09424373       0.36556148
C       -1.24537251      -1.19595837      -0.25474240
C        1.22625857      -0.30430737       0.63991271
C        1.79527627       0.67141324      -0.30546792
N        2.97311541       0.44027852      -0.26797333
H       -0.80596217       2.23118220       0.13878360
H       -1.09136400       1.26175949      -1.40384298
H        1.04124533       1.39155140      -0.80262990
H       -0.89908762       0.17929306       1.43991026
H       -0.86937283      -1.30550841      -1.27432350
H       -2.33662187      -1.20251102      -0.30146234
H       -0.93702364      -2.07308119       0.31480136
H        1.31256667      -1.35248781       0.37409388
H        1.41074718      -0.10244101       1.69060183
15
Frame=1 idx=000063 GeodesicLength=0.08304258131960235 rxn_smarts="[C:1]([C:2]([C:3]([H:11])([H:12])[H:13])([C:4]([C:5]#[N:6])([H:14])[H:15])[H:10])([H:7])([H:8])[H:9]>>[C:1](=[C:2]([C:3]([H:11])([H:12])[H:13])[H:10])([H:7])[H:8].[C:4]1([H:14])([H:15])[C:5]([H:9])=[N:6]1"
C       -0.82023930       1.27135312      -0.35018917
C       -0.75232261       0.09245438       0.36412089
C       -1.24005600      -1.19290830      -0.26961094
C        1.23882748      -0.29527106       0.65882356
C        1.80058520       0.66009227      -0.30873065
N        2.97040742       0.39282118      -0.30378983
H       -0.81219716       2.23071382       0.15285346
H       -1.11940288       1.27636756      -1.39277390
H        1.02467937       1.38636403      -0.81033677
H       -0.91594744       0.17064997       1.43660552
H       -0.86343423      -1.29241167      -1.28997330
H       -2.33127511      -1.20593565      -0.31476862
H       -0.92696782      -2.07491802       0.28998112
H        1.31474122      -1.35391656       0.43526874
H        1.43260185      -0.06545507       1.70251990
15
Frame=2 idx=000063 GeodesicLength=0.16601976700865057 rxn_smarts="[C:1]([C:2]([C:3]([H:11])([H:12])[H:13])([C:4]([C:5]#[N:6])([H:14])[H:15])[H:10])([H:7])([H:8])[H:9]>>[C:1](=[C:2]([C:3]([H:11])([H:12])[H:13])[H:10])([H:7])[H:8].[C:4]1([H:14])([H:15])[C:5]([H:9])=[N:6]1"
C       -0.81868763       1.27611245      -0.34732751
C       -0.75210884       0.09069922       0.36257181
C       -1.23429473      -1.18982398      -0.28457984
C        1.25140993      -0.28582294       0.67762598
C        1.80616494       0.64837043      -0.31179089
N        2.96537988       0.34292836      -0.33889511
H       -0.81836206       2.23000360       0.16679032
H       -1.14734923       1.29081940      -1.38095329
H        1.00816842       1.38155817      -0.81768323
H       -0.93265780       0.16198100       1.43289981
H       -0.85767337      -1.27887982      -1.30589140
H       -2.32545056      -1.20993065      -0.32768217
H       -0.91546149      -2.07648107       0.26459885
H        1.31586933      -1.35323719       0.49692352
H        1.45505321      -0.02829698       1.71339316
15
Frame=3 idx=000063 GeodesicLength=0.24896580787269157 rxn_smarts="[C:1]([C:2]([C:3]([H:11])([H:12])[H:13])([C:4]([C:5]#[N:6])([H:14])[H:15])[H:10])([H:7])([H:8])[H:9]>>[C:1](=[C:2]([C:3]([H:11])([H:12])[H:13])[H:10])([H:7])[H:8].[C:4]1([H:14])([H:15])[C:5]([H:9])=[N:6]1"
C       -0.81723007       1.28084762      -0.34467032
C       -0.75185367       0.08897924       0.36089776
C       -1.22812032      -1.18670467      -0.29961807
C        1.26402428      -0.27600710       0.69626860
C        1.81205057       0.63622600      -0.31465054
N        2.95791726       0.29078614      -0.37297643
H       -0.82445088       2.22905627       0.18054347
H       -1.17516545       1.30506336      -1.36842269
H        0.99173464       1.37717774      -0.82467882
H       -0.94918840       0.15330720       1.42878156
H       -0.85221147      -1.26492447      -1.32206681
H       -2.31917006      -1.21450966      -0.34010526
H       -0.90248121      -2.07772695       0.23867649
H        1.31598468      -1.35040963       0.55883747
H        1.47816008       0.00883890       1.72318357
15
Frame=4 idx=000063 GeodesicLength=0.33190602646143474 rxn_smarts="[C:1]([C:2]([C:3]([H:11])([H:12])[H:13])([C:4]([C:5]#[N:6])([H:14])[H:15])[H:10])([H:7])([H:8])[H:9]>>[C:1](=[C:2]([C:3]([H:11])([H:12])[H:13])[H:10])([H:7])[H:8].[C:4]1([H:14])([H:15])[C:5]([H:9])=[N:6]1"
C       -0.81586873       1.28553802      -0.34224133
C       -0.75153613       0.08729069       0.35909273
C       -1.22156477      -1.18354226      -0.31471265
C        1.27668874      -0.26584877       0.71472930
C        1.81826378       0.62365364      -0.31729457
N        2.94787478       0.23653368      -0.40584614
H       -0.83046890       2.22784868       0.19408018
H       -1.20277693       1.31902179      -1.35525215
H        0.97539527       1.37329547      -0.83129912
H       -0.96551169       0.14463328       1.42426359
H       -0.84715004      -1.25054806      -1.33850939
H       -2.31245215      -1.21968607      -0.35199032
H       -0.88802840      -2.07858809       0.21223540
H        1.31512036      -1.34538176       0.62084399
H        1.50201481       0.04577977       1.73190048
15
Frame=5 idx=000063 GeodesicLength=0.41487767782041324 rxn_smarts="[C:1]([C:2]([C:3]([H:11])([H:12])[H:13])([C:4]([C:5]#[N:6])([H:14])[H:15])[H:10])([H:7])([H:8])[H:9]>>[C:1](=[C:2]([C:3]([H:11])([H:12])[H:13])[H:10])([H:7])[H:8].[C:4]1([H:14])([H:15])[C:5]([H:9])=[N:6]1"
C       -0.81460353       1.29021427      -0.34002473
C       -0.75113747       0.08563528       0.35712632
C       -1.21455961      -1.18030876      -0.32984871
C        1.28937199      -0.25540078       0.73296570
C        1.82473961       0.61045369      -0.31983939
N        2.93511114       0.18026617      -0.43717240
H       -0.83636160       2.22640008       0.20739395
H       -1.23025946       1.33276549      -1.34133939
H        0.95908848       1.36985550      -0.83760475
H       -0.98162252       0.13593966       1.41925442
H       -0.84248851      -1.23569199      -1.35514732
H       -2.30516980      -1.22544862      -0.36328495
H       -0.87197273      -2.07901433       0.18523574
H        1.31328700      -1.33817022       0.68286359
H        1.52657704       0.08250454       1.73942192
15
Frame=6 idx=000063 GeodesicLength=0.4980127663049902 rxn_smarts="[C:1]([C:2]([C:3]([H:11])([H:12])[H:13])([C:4]([C:5]#[N:6])([H:14])[H:15])[H:10])([H:7])([H:8])[H:9]>>[C:1](=[C:2]([C:3]([H:11])([H:12])[H:13])[H:10])([H:7])[H:8].[C:4]1([H:14])([H:15])[C:5]([H:9])=[N:6]1"
C       -0.81347231       1.29490586      -0.33792724
C       -0.75071816       0.08399938       0.35505515
C       -1.20711806      -1.17705475      -0.34513124
C        1.30210749      -0.24457203       0.75106399
C        1.83147370       0.59642837      -0.32247761
N        2.91944798       0.12181016      -0.46710016
H       -0.84206231       2.22474823       0.22066957
H       -1.25759948       1.34628865      -1.32666702
H        0.94288554       1.36699772      -0.84355065
H       -0.99763316       0.12716359       1.41388056
H       -0.83812691      -1.22037014      -1.37211195
H       -2.29736098      -1.23194749      -0.37421270
H       -0.85434538      -2.07900650       0.15758110
H        1.31044555      -1.32864710       0.74514180
H        1.55207649       0.11925605       1.74578641
15
Frame=7 idx=000063 GeodesicLength=0.5813628041406669 rxn_smarts="[C:1]([C:2]([C:3]([H:11])([H:12])[H:13])([C:4]([C:5]#[N:6])([H:14])[H:15])[H:10])([H:7])([H:8])[H:9]>>[C:1](=[C:2]([C:3]([H:11])([H:12])[H:13])[H:10])([H:7])[H:8].[C:4]1([H:14])([H:15])[C:5]([H:9])=[N:6]1"
C       -0.81247999       1.29960101      -0.33592809
C       -0.75026233       0.08237927       0.35287361
C       -1.19919578      -1.17374845      -0.36057867
C        1.31488933      -0.23336185       0.76901481
C        1.83839794       0.58144857      -0.32523275
N        2.90063150       0.06115569      -0.49544599
H       -0.84753586       2.22285846       0.23392893
H       -1.28479556       1.35957108      -1.31120334
H        0.92674914       1.36472096      -0.84914183
H       -1.01352813       0.11827076       1.40811889
H       -0.83406428      -1.20452951      -1.38939472
H       -2.28893552      -1.23919471      -0.38480526
H       -0.83506989      -2.07845916       0.12923967
H        1.30661643      -1.31670822       0.80763461
H        1.57858301       0.15599610       1.75092013
15
Frame=8 idx=000063 GeodesicLength=0.6650486712787049 rxn_smarts="[C:1]([C:2]([C:3]([H:11])([H:12])[H:13])([C:4]([C:5]#[N:6])([H:14])[H:15])[H:10])([H:7])([H:8])[H:9]>>[C:1](=[C:2]([C:3]([H:11])([H:12])[H:13])[H:10])([H:7])[H:8].[C:4]1([H:14])([H:15])[C:5]([H:9])=[N:6]1"
C       -0.81163815       1.30433357      -0.33399305
C       -0.74979054       0.08076462       0.35057992
C       -1.19075766      -1.17039047      -0.37620825
C        1.32771188      -0.22177753       0.78680369
C        1.84548942       0.56532726      -0.32820725
N        2.87857153      -0.00166119      -0.52195059
H       -0.85272389       2.22076117       0.24723596
H       -1.31189221       1.37268213      -1.29487800
H        0.91067063       1.36298893      -0.85447017
H       -1.02935765       0.10920650       1.40195097
H       -0.83033255      -1.18811284      -1.40700162
H       -2.27982264      -1.24726427      -0.39504236
H       -0.81403107      -2.07733070       0.10013328
H        1.30179196      -1.30229184       0.87031746
H        1.60611094       0.19276467       1.75473001
15
Frame=9 idx=000063 GeodesicLength=0.7491723550226401 rxn_smarts="[C:1]([C:2]([C:3]([H:11])([H:12])[H:13])([C:4]([C:5]#[N:6])([H:14])[H:15])[H:10])([H:7])([H:8])[H:9]>>[C:1](=[C:2]([C:3]([H:11])([H:12])[H:13])[H:10])([H:7])[H:8].[C:4]1([H:14])([H:15])[C:5]([H:9])=[N:6]1"
C       -0.81097825       1.30906616      -0.33215007
C       -0.74926622       0.07916273       0.34815377
C       -1.18175654      -1.16690942      -0.39199609
C        1.34058012      -0.20985366       0.80438456
C        1.85262947       0.54798435      -0.33133178
N        2.85297574      -0.06652246      -0.54634424
H       -0.85767712       2.21838506       0.26049941
H       -1.33889468       1.38551791      -1.27771103
H        0.89456300       1.36184401      -0.85947197
H       -1.04500932       0.09997828       1.39533115
H       -0.82686413      -1.17110073      -1.42482433
H       -2.26990268      -1.25606038      -0.40501387
H       -0.79122999      -2.07544834       0.07035135
H        1.29598937      -1.28529480       0.93299797
H        1.63484123       0.22925129       1.75712516
15
Frame=10 idx=000063 GeodesicLength=0.8340047329399783 rxn_smarts="[C:1]([C:2]([C:3]([H:11])([H:12])[H:13])([C:4]([C:5]#[N:6])([H:14])[H:15])[H:10])([H:7])([H:8])[H:9]>>[C:1](=[C:2]([C:3]([H:11])([H:12])[H:13])[H:10])([H:7])[H:8].[C:4]1([H:14])([H:15])[C:5]([H:9])=[N:6]1"
C       -0.81054431       1.31387682      -0.33034103
C       -0.74873857       0.07756631       0.34563229
C       -1.17215990      -1.16335641      -0.40798800
C        1.35352830      -0.19756595       0.82177192
C        1.85983118       0.52929740      -0.33467644
N        2.82359041      -0.13354636      -0.56861327
H       -0.86243375       2.21583534       0.27383123
H       -1.36573881       1.39815885      -1.25971539
H        0.87847879       1.36140842      -0.86417066
H       -1.06061530       0.09051154       1.38833014
H       -0.82356426      -1.15350994      -1.44291897
H       -2.25914451      -1.26571409      -0.41481227
H       -0.76663313      -2.07282957       0.03985598
H        1.28923704      -1.26561799       0.99577328
H        1.66490683       0.26548563       1.75804119
15
Frame=11 idx=000063 GeodesicLength=0.9193794902556152 rxn_smarts="[C:1]([C:2]([C:3]([H:11])([H:12])[H:13])([C:4]([C:5]#[N:6])([H:14])[H:15])[H:10])([H:7])([H:8])[H:9]>>[C:1](=[C:2]([C:3]([H:11])([H:12])[H:13])[H:10])([H:7])[H:8].[C:4]1([H:14])([H:15])[C:5]([H:9])=[N:6]1"
C       -0.81021381       1.31861612      -0.32856877
C       -0.74815644       0.07595275       0.34296632
C       -1.16209757      -1.15969623      -0.42420585
C        1.36655222      -0.18488267       0.83885295
C        1.86703687       0.50910893      -0.33821413
N        2.79062574      -0.20210008      -0.58792980
H       -0.86667641       2.21292955       0.28725647
H       -1.39253596       1.41041262      -1.24073746
H        0.86239012       1.36135916      -0.86873437
H       -1.07600543       0.08086666       1.38087754
H       -0.82084924      -1.13534564      -1.46131834
H       -2.24759743      -1.27624859      -0.42431254
H       -0.74030673      -2.06927433       0.00848690
H        1.28153709      -1.24306397       1.05820045
H        1.69629698       0.30136574       1.75738061
15
Frame=12 idx=000063 GeodesicLength=1.0057167663428805 rxn_smarts="[C:1]([C:2]([C:3]([H:11])([H:12])[H:13])([C:4]([C:5]#[N:6])([H:14])[H:15])[H:10])([H:7])([H:8])[H:9]>>[C:1](=[C:2]([C:3]([H:11])([H:12])[H:13])[H:10])([H:7])[H:8].[C:4]1([H:14])([H:15])[C:5]([H:9])=[N:6]1"
C       -0.81014088       1.32340948      -0.32687166
C       -0.74755370       0.07433721       0.34018931
C       -1.15153327      -1.15595905      -0.44055384
C        1.37971462      -0.17195935       0.85556622
C        1.87429788       0.48754703      -0.34183610
N        2.75388003      -0.27204261      -0.60443415
H       -0.87080570       2.20985594       0.30065752
H       -1.41906555       1.42233472      -1.22104714
H        0.84628933       1.36205817      -0.87306824
H       -1.09125966       0.07100935       1.37304059
H       -0.81837876      -1.11676380      -1.47983780
H       -2.23522663      -1.28755761      -0.43366151
H       -0.71245178      -2.06483002      -0.02339123
H        1.27305970      -1.21779701       1.12011612
H        1.72917435       0.33635756       1.75513191
15
Frame=13 idx=000063 GeodesicLength=1.0930916191996785 rxn_smarts="[C:1]([C:2]([C:3]([H:11])([H:12])[H:13])([C:4]([C:5]#[N:6])([H:14])[H:15])[H:10])([H:7])([H:8])[H:9]>>[C:1](=[C:2]([C:3]([H:11])([H:12])[H:13])[H:10])([H:7])[H:8].[C:4]1([H:14])([H:15])[C:5]([H:9])=[N:6]1"
C       -0.81028643       1.32820108      -0.32521806
C       -0.74690974       0.07269487       0.33728798
C       -1.14048698      -1.15212669      -0.45705605
C        1.39301196      -0.15877840       0.87185460
C        1.88152863       0.46447021      -0.34553825
N        2.71328036      -0.34305611      -0.61776578
H       -0.87469974       2.20653470       0.31407377
H       -1.44531516       1.43385177      -1.20058591
H        0.83014149       1.36341949      -0.87722351
H       -1.10632160       0.06090436       1.36478779
H       -0.81623649      -1.09776151      -1.49846447
H       -2.22198392      -1.29965422      -0.44289268
H       -0.68313191      -2.05938742      -0.05583949
H        1.26380088      -1.18966514       1.18138375
H        1.76360863       0.37035301       1.75119631
15
Frame=14 idx=000063 GeodesicLength=1.1818720980013935 rxn_smarts="[C:1]([C:2]([C:3]([H:11])([H:12])[H:13])([C:4]([C:5]#[N:6])([H:14])[H:15])[H:10])([H:7])([H:8])[H:9]>>[C:1](=[C:2]([C:3]([H:11])([H:12])[H:13])[H:10])([H:7])[H:8].[C:4]1([H:14])([H:15])[C:5]([H:9])=[N:6]1"
C       -0.81071054       1.33302141      -0.32358375
C       -0.74624436       0.07101686       0.33427548
C       -1.12898076      -1.14820739      -0.47375848
C        1.40651242      -0.14536716       0.88769914
C        1.88866921       0.43969359      -0.34934887
N        2.66888968      -0.41491484      -0.62763183
H       -0.87837708       2.20301080       0.32756778
H       -1.47134976       1.44500222      -1.17938162
H        0.81387068       1.36542577      -0.88128958
H       -1.12117785       0.05052361       1.35617080
H       -0.81444393      -1.07837830      -1.51724141
H       -2.20786018      -1.31253823      -0.45211714
H       -0.65240745      -2.05292546      -0.08888296
H        1.25385523      -1.15857253       1.24198059
H        1.79975469       0.40320964       1.74554184
15
Frame=15 idx=000063 GeodesicLength=1.2721036343670131 rxn_smarts="[C:1]([C:2]([C:3]([H:11])([H:12])[H:13])([C:4]([C:5]#[N:6])([H:14])[H:15])[H:10])([H:7])([H:8])[H:9]>>[C:1](=[C:2]([C:3]([H:11])([H:12])[H:13])[H:10])([H:7])[H:8].[C:4]1([H:14])([H:15])[C:5]([H:9])=[N:6]1"
C       -0.81132524       1.33775017      -0.32191957
C       -0.74556775       0.06924892       0.33110958
C       -1.11699024      -1.14412491      -0.49066373
C        1.42014791      -0.13166558       0.90297237
C        1.89569008       0.41301336      -0.35325899
N        2.62063879      -0.48744629      -0.63364769
H       -0.88168140       2.19905405       0.34118525
H       -1.49719491       1.45566225      -1.15717611
H        0.79754454       1.36795086      -0.88526267
H       -1.13588547       0.03975714       1.34706279
H       -0.81303991      -1.05846719      -1.53608652
H       -2.19275837      -1.32620436      -0.46131112
H       -0.62025535      -2.04520413      -0.12263500
H        1.24321412      -1.12422075       1.30174511
H        1.83746320       0.43489646       1.73788631
15
Frame=16 idx=000063 GeodesicLength=1.3641001055551758 rxn_smarts="[C:1]([C:2]([C:3]([H:11])([H:12])[H:13])([C:4]([C:5]#[N:6])([H:14])[H:15])[H:10])([H:7])([H:8])[H:9]>>[C:1](=[C:2]([C:3]([H:11])([H:12])[H:13])[H:10])([H:7])[H:8].[C:4]1([H:14])([H:15])[C:5]([H:9])=[N:6]1"
C       -0.81226057       1.34245422      -0.32028880
C       -0.74483835       0.06741010       0.32782537
C       -1.10470050      -1.13996657      -0.50767521
C        1.43406332      -0.11790206       0.91758627
C        1.90261548       0.38469354      -0.35706692
N        2.56894109      -0.55971054      -0.63571315
H       -0.88495373       2.19487488       0.35478167
H       -1.52259291       1.46577601      -1.13446535
H        0.78101722       1.37123461      -0.88916462
H       -1.15025168       0.02870925       1.33761103
H       -0.81193949      -1.03844503      -1.55486945
H       -2.17687984      -1.34042688      -0.47061525
H       -0.58729176      -2.03643074      -0.15664271
H        1.23213523      -1.08690432       1.36021283
H        1.87693650       0.46463352       1.72848431
