15
Frame=0 idx=009598 GeodesicLength=0.0 rxn_smarts="[O:1]([C@@:2]1([H:9])[C:3]([H:10])([H:11])[C@@:4]2([O:5][H:12])[C:6]([H:13])([H:14])[C@@:7]12[H:15])[H:8]>>[O:1]([C@@:2]([C:3]([C:4]([O:5][H:12])=[C:6]([H:13])[H:14])([H:10])[H:11])([C:7][H:15])[H:9])[H:8]"
O        1.80187795      -0.45657899      -0.29399006
C        1.10596463       0.31735324       0.69212305
C       -0.04142753       1.03979398      -0.00372907
C       -1.16413122       0.13724739      -0.43352706
O       -2.24974095       0.29333270       0.36911402
C       -1.10986124      -0.70403199      -1.46044746
C        0.71218482      -0.72787839       1.68555378
H        2.65640210      -0.72076072       0.05661176
H        1.76444747       1.07486953       1.14850117
H       -0.44702633       1.77619349       0.69157972
H        0.36352700       1.57790795      -0.86272889
H       -2.91677348      -0.35432748       0.12806961
H       -1.94494830      -1.34663488      -1.71460153
H       -0.21083122      -0.77852430      -2.05302520
H        1.68033630      -1.12796157       2.05049619
15
Frame=1 idx=009598 GeodesicLength=0.10957362332458132 rxn_smarts="[O:1]([C@@:2]1([H:9])[C:3]([H:10])([H:11])[C@@:4]2([O:5][H:12])[C:6]([H:13])([H:14])[C@@:7]12[H:15])[H:8]>>[O:1]([C@@:2]([C:3]([C:4]([O:5][H:12])=[C:6]([H:13])[H:14])([H:10])[H:11])([C:7][H:15])[H:9])[H:8]"
O        1.83445660      -0.41426334      -0.31040189
C        1.10717294       0.32439717       0.67995679
C       -0.03713570       1.05701217      -0.01066095
C       -1.15648287       0.13580143      -0.41073594
O       -2.24967977       0.31260249       0.37801161
C       -1.08269807      -0.74708601      -1.40673242
C        0.67487448      -0.77274767       1.59934856
H        2.68113089      -0.68347974       0.05509982
H        1.74614519       1.06386802       1.18795658
H       -0.43483749       1.79821379       0.68390545
H        0.35734537       1.58382193      -0.88112300
H       -2.93540671      -0.30607255       0.11488723
H       -1.91446509      -1.39790330      -1.65048392
H       -0.21059323      -0.77769859      -2.04232562
H        1.62017346      -1.17646578       2.01329771
15
Frame=2 idx=009598 GeodesicLength=0.21916525718795027 rxn_smarts="[O:1]([C@@:2]1([H:9])[C:3]([H:10])([H:11])[C@@:4]2([O:5][H:12])[C:6]([H:13])([H:14])[C@@:7]12[H:15])[H:8]>>[O:1]([C@@:2]([C:3]([C:4]([O:5][H:12])=[C:6]([H:13])[H:14])([H:10])[H:11])([C:7][H:15])[H:9])[H:8]"
O        1.86304096      -0.37676398      -0.32288213
C        1.10796116       0.33122210       0.66881630
C       -0.03318027       1.07315112      -0.01742378
C       -1.14880563       0.13490632      -0.38926098
O       -2.24822303       0.32651592       0.38800072
C       -1.05718474      -0.78199166      -1.35865702
C        0.64218358      -0.80927863       1.51705499
H        2.70191965      -0.65137042       0.05622543
H        1.72867950       1.05160552       1.22237336
H       -0.42350394       1.81900477       0.67606578
H        0.35145927       1.58895163      -0.89849921
H       -2.94812890      -0.26593004       0.10338622
H       -1.88502565      -1.44184653      -1.59100136
H       -0.21250751      -0.77822219      -2.03139919
H        1.56131554      -1.21995394       1.97720086
15
Frame=3 idx=009598 GeodesicLength=0.3287359633212905 rxn_smarts="[O:1]([C@@:2]1([H:9])[C:3]([H:10])([H:11])[C@@:4]2([O:5][H:12])[C:6]([H:13])([H:14])[C@@:7]12[H:15])[H:8]>>[O:1]([C@@:2]([C:3]([C:4]([O:5][H:12])=[C:6]([H:13])[H:14])([H:10])[H:11])([C:7][H:15])[H:9])[H:8]"
O        1.88873920      -0.34335777      -0.33237073
C        1.10863042       0.33776056       0.65856217
C       -0.02967029       1.08800616      -0.02377682
C       -1.14118426       0.13372906      -0.36832749
O       -2.24573040       0.33529854       0.39986212
C       -1.03342999      -0.81075770      -1.31560196
C        0.61399072      -0.83919308       1.43873830
H        2.72010279      -0.62325419       0.05914929
H        1.71214142       1.03880607       1.25245544
H       -0.41307958       1.83843677       0.66840415
H        0.34544320       1.59320586      -0.91478434
H       -2.95796815      -0.22971913       0.09151525
H       -1.85676452      -1.48040851      -1.53560861
H       -0.21556497      -0.77963511      -2.02054247
H        1.50434443      -1.25891752       1.94232571
15
Frame=4 idx=009598 GeodesicLength=0.43833725918990524 rxn_smarts="[O:1]([C@@:2]1([H:9])[C:3]([H:10])([H:11])[C@@:4]2([O:5][H:12])[C:6]([H:13])([H:14])[C@@:7]12[H:15])[H:8]>>[O:1]([C@@:2]([C:3]([C:4]([O:5][H:12])=[C:6]([H:13])[H:14])([H:10])[H:11])([C:7][H:15])[H:9])[H:8]"
O        1.91203961      -0.31366070      -0.33936084
C        1.10911245       0.34402344       0.64902799
C       -0.02649587       1.10176601      -0.03000160
C       -1.13360592       0.13239535      -0.34804462
O       -2.24241523       0.34019390       0.41317041
C       -1.01125692      -0.83459532      -1.27721854
C        0.58930701      -0.86354187       1.36429452
H        2.73608058      -0.59868148       0.06372031
H        1.69634564       1.02580226       1.27884195
H       -0.40334946       1.85686867       0.66053348
H        0.33951986       1.59662447      -0.93035019
H       -2.96470780      -0.19797770       0.08137843
H       -1.82982929      -1.51410305      -1.48456291
H       -0.21917935      -0.78125538      -2.01030049
H        1.44843471      -1.29385861       1.90887208
15
Frame=5 idx=009598 GeodesicLength=0.5479799039650766 rxn_smarts="[O:1]([C@@:2]1([H:9])[C:3]([H:10])([H:11])[C@@:4]2([O:5][H:12])[C:6]([H:13])([H:14])[C@@:7]12[H:15])[H:8]>>[O:1]([C@@:2]([C:3]([C:4]([O:5][H:12])=[C:6]([H:13])[H:14])([H:10])[H:11])([C:7][H:15])[H:9])[H:8]"
O        1.93328365      -0.28725048      -0.34427276
C        1.10940990       0.35000747       0.64008294
C       -0.02361708       1.11448323      -0.03621238
C       -1.12601701       0.13087435      -0.32835913
O       -2.23829805       0.34188671       0.42776136
C       -0.99040569      -0.85451248      -1.24296783
C        0.56761165      -0.88322577       1.29354938
H        2.75014644      -0.57715474       0.06971724
H        1.68116449       1.01280951       1.30201098
H       -0.39418685       1.87437705       0.65230075
H        0.33367109       1.59920230      -0.94537836
H       -2.96873315      -0.17019009       0.07352177
H       -1.80411638      -1.54355123      -1.43773957
H       -0.22311200      -0.78261794      -2.00091654
H        1.39319902      -1.32513788       1.87690215
15
Frame=6 idx=009598 GeodesicLength=0.6576956992418541 rxn_smarts="[O:1]([C@@:2]1([H:9])[C:3]([H:10])([H:11])[C@@:4]2([O:5][H:12])[C:6]([H:13])([H:14])[C@@:7]12[H:15])[H:8]>>[O:1]([C@@:2]([C:3]([C:4]([O:5][H:12])=[C:6]([H:13])[H:14])([H:10])[H:11])([C:7][H:15])[H:9])[H:8]"
O        1.95284523      -0.26377638      -0.34739496
C        1.10953140       0.35577326       0.63164875
C       -0.02093452       1.12635055      -0.04254304
C       -1.11842391       0.12931957      -0.30936722
O       -2.23346839       0.34119432       0.44334294
C       -0.97071078      -0.87122637      -1.21248044
C        0.54829058      -0.89892775       1.22626154
H        2.76261686      -0.55832518       0.07705396
H        1.66650609       1.00000807       1.32249388
H       -0.38543921       1.89123930       0.64354329
H        0.32808034       1.60106382      -0.96003943
H       -2.97031264      -0.14654110       0.06881127
H       -1.77949578      -1.56942795      -1.39490627
H       -0.22719315      -0.78346759      -1.99263037
H        1.33810787      -1.35325658       1.84620612
15
Frame=7 idx=009598 GeodesicLength=0.7674996220586457 rxn_smarts="[O:1]([C@@:2]1([H:9])[C:3]([H:10])([H:11])[C@@:4]2([O:5][H:12])[C:6]([H:13])([H:14])[C@@:7]12[H:15])[H:8]>>[O:1]([C@@:2]([C:3]([C:4]([O:5][H:12])=[C:6]([H:13])[H:14])([H:10])[H:11])([C:7][H:15])[H:9])[H:8]"
O        1.97098804      -0.24286450      -0.34902321
C        1.10952326       0.36134644       0.62365463
C       -0.01843925       1.13741534      -0.04898511
C       -1.11079101       0.12766842      -0.29096661
O       -2.22791644       0.33839197       0.45990605
C       -0.95197886      -0.88538756      -1.18526807
C        0.53109311      -0.91128240       1.16220549
H        2.77374207      -0.54178331       0.08551847
H        1.65231474       0.98752494       1.34064817
H       -0.37707554       1.90746877       0.63430161
H        0.32268031       1.60226844      -0.97437036
H       -2.97001425      -0.12613852       0.06687734
H       -1.75577609      -1.59237465      -1.35565148
H       -0.23137548      -0.78371381      -1.98544570
H        1.28302538      -1.37853955       1.81659877
15
Frame=8 idx=009598 GeodesicLength=0.877412742966037 rxn_smarts="[O:1]([C@@:2]1([H:9])[C:3]([H:10])([H:11])[C@@:4]2([O:5][H:12])[C:6]([H:13])([H:14])[C@@:7]12[H:15])[H:8]>>[O:1]([C@@:2]([C:3]([C:4]([O:5][H:12])=[C:6]([H:13])[H:14])([H:10])[H:11])([C:7][H:15])[H:9])[H:8]"
O        1.98793077      -0.22420182      -0.34937258
C        1.10941445       0.36676262       0.61604931
C       -0.01611143       1.14775628      -0.05554683
C       -1.10309668       0.12592322      -0.27311585
O       -2.22165092       0.33377651       0.47737421
C       -0.93406128      -0.89747388      -1.16094719
C        0.51575526      -0.92078631       1.10115138
H        2.78371884      -0.52721341       0.09497525
H        1.63853580       0.97544470       1.35680020
H       -0.36906381       1.92312566       0.62459154
H        0.31745928       1.60289426      -0.98841222
H       -2.96820275      -0.10844374       0.06755114
H       -1.73278661      -1.61291990      -1.31958923
H       -0.23562318      -0.78334176      -1.97933385
H        1.22778224      -1.40130244       1.78782472
15
Frame=9 idx=009598 GeodesicLength=0.9874544922202846 rxn_smarts="[O:1]([C@@:2]1([H:9])[C:3]([H:10])([H:11])[C@@:4]2([O:5][H:12])[C:6]([H:13])([H:14])[C@@:7]12[H:15])[H:8]>>[O:1]([C@@:2]([C:3]([C:4]([O:5][H:12])=[C:6]([H:13])[H:14])([H:10])[H:11])([C:7][H:15])[H:9])[H:8]"
O        2.00383383      -0.20751171      -0.34862656
C        1.10922793       0.37204015       0.60878380
C       -0.01394811       1.15742245      -0.06221840
C       -1.09531054       0.12405710      -0.25575616
O       -2.21466158       0.32751635       0.49569990
C       -0.91682652      -0.90786149      -1.13916220
C        0.50209915      -0.92787725       1.04287078
H        2.79269089      -0.51433737       0.10529376
H        1.62511347       0.96381256       1.37120429
H       -0.36139671       1.93821982       0.61445441
H        0.31236982       1.60300552      -1.00218345
H       -2.96516605      -0.09286208       0.07053584
H       -1.71037742      -1.63148455      -1.28635579
H       -0.23992545      -0.78237666      -1.97422046
H        1.17227728      -1.42176283       1.75968025
15
Frame=10 idx=009598 GeodesicLength=1.0976509702054977 rxn_smarts="[O:1]([C@@:2]1([H:9])[C:3]([H:10])([H:11])[C@@:4]2([O:5][H:12])[C:6]([H:13])([H:14])[C@@:7]12[H:15])[H:8]>>[O:1]([C@@:2]([C:3]([C:4]([O:5][H:12])=[C:6]([H:13])[H:14])([H:10])[H:11])([C:7][H:15])[H:9])[H:8]"
O        2.01883270      -0.19258735      -0.34690222
C        1.10897326       0.37722285       0.60183460
C       -0.01192428       1.16650518      -0.06901542
C       -1.08742467       0.12211831      -0.23889368
O       -2.20695937       0.31987325       0.51476954
C       -0.90017541      -0.91683093      -1.11964627
C        0.48987558      -0.93285252       0.98718752
H        2.80076562      -0.50297254       0.11641636
H        1.61200923       0.95267623       1.38410648
H       -0.35404706       1.95283569       0.60389021
H        0.30744417       1.60267934      -1.01572407
H       -2.96107095      -0.07921807       0.07582143
H       -1.68842659      -1.64840113      -1.25565902
H       -0.24424394      -0.78087704      -1.97004253
H        1.11637170      -1.44017129       1.73185706
15
Frame=11 idx=009598 GeodesicLength=1.2080311537821469 rxn_smarts="[O:1]([C@@:2]1([H:9])[C:3]([H:10])([H:11])[C@@:4]2([O:5][H:12])[C:6]([H:13])([H:14])[C@@:7]12[H:15])[H:8]>>[O:1]([C@@:2]([C:3]([C:4]([O:5][H:12])=[C:6]([H:13])[H:14])([H:10])[H:11])([C:7][H:15])[H:9])[H:8]"
O        2.03301898      -0.17924484      -0.34430240
C        1.10865753       0.38233501       0.59517833
C       -0.01003561       1.17506014      -0.07593213
C       -1.07942419       0.12011475      -0.22250264
O       -2.19854461       0.31099753       0.53450718
C       -0.88401355      -0.92461596      -1.10213450
C        0.47891651      -0.93598289       0.93393861
H        2.80801608      -0.49295140       0.12827493
H        1.59918368       0.94205795       1.39569373
H       -0.34701303       1.96700330       0.59292505
H        0.30266641       1.60197222      -1.02905026
H       -2.95607428      -0.06718914       0.08322526
H       -1.66682116      -1.66394243      -1.22721201
H       -0.24856051      -0.77890927      -1.96670436
H        1.06002776      -1.45670496       1.70409520
15
Frame=12 idx=009598 GeodesicLength=1.318624749730405 rxn_smarts="[O:1]([C@@:2]1([H:9])[C:3]([H:10])([H:11])[C@@:4]2([O:5][H:12])[C:6]([H:13])([H:14])[C@@:7]12[H:15])[H:8]>>[O:1]([C@@:2]([C:3]([C:4]([O:5][H:12])=[C:6]([H:13])[H:14])([H:10])[H:11])([C:7][H:15])[H:9])[H:8]"
O        2.04646183      -0.16733663      -0.34090330
C        1.10828093       0.38740112       0.58880361
C       -0.00827829       1.18314477      -0.08296384
C       -1.07130419       0.11806708      -0.20656859
O       -2.18943052       0.30104264       0.55482441
C       -0.86826402      -0.93140537      -1.08639629
C        0.46905460      -0.93748412       0.88299350
H        2.81449651      -0.48414191       0.14082192
H        1.58660096       0.93197507       1.40613432
H       -0.34029489       1.98076284       0.58157997
H        0.29803246       1.60093674      -1.04217873
H       -2.95029817      -0.05653587       0.09259969
H       -1.64546292      -1.67833848      -1.20075148
H       -0.25285369      -0.77655073      -1.96411096
H        1.00325940      -1.47153717       1.67611576
15
Frame=13 idx=009598 GeodesicLength=1.4294868576686484 rxn_smarts="[O:1]([C@@:2]1([H:9])[C:3]([H:10])([H:11])[C@@:4]2([O:5][H:12])[C:6]([H:13])([H:14])[C@@:7]12[H:15])[H:8]>>[O:1]([C@@:2]([C:3]([C:4]([O:5][H:12])=[C:6]([H:13])[H:14])([H:10])[H:11])([C:7][H:15])[H:9])[H:8]"
O        2.05918641      -0.15674462      -0.33675050
C        1.10782944       0.39245005       0.58271020
C       -0.00664512       1.19081679      -0.09010478
C       -1.06306365       0.11600768      -0.19108582
O       -2.17963199       0.29017147       0.57561046
C       -0.85285991      -0.93735261      -1.07221471
C        0.46010880      -0.93751502       0.83426186
H        2.82021442      -0.47643783       0.15402997
H        1.57422556       0.92244956       1.41556922
H       -0.33388311       1.99416127       0.56986496
H        0.29355121       1.59961777      -1.05511716
H       -2.94382787      -0.04709032       0.10381036
H       -1.62426120      -1.69178151      -1.17602369
H       -0.25709805      -0.77388816      -1.96214645
H        0.94615506      -1.48486451       1.64758609
15
Frame=14 idx=009598 GeodesicLength=1.5406453717915944 rxn_smarts="[O:1]([C@@:2]1([H:9])[C:3]([H:10])([H:11])[C@@:4]2([O:5][H:12])[C:6]([H:13])([H:14])[C@@:7]12[H:15])[H:8]>>[O:1]([C@@:2]([C:3]([C:4]([O:5][H:12])=[C:6]([H:13])[H:14])([H:10])[H:11])([C:7][H:15])[H:9])[H:8]"
O        2.07123112      -0.14737683      -0.33189323
C        1.10729487       0.39749370       0.57689593
C       -0.00513992       1.19812030      -0.09734845
C       -1.05471457       0.11395998      -0.17604477
O       -2.16918075       0.27850993       0.59678176
C       -0.83775512      -0.94258303      -1.05940947
C        0.45193753      -0.93623620       0.78764938
H        2.82520291      -0.46975280       0.16786973
H        1.56202295       0.91348373       1.42412871
H       -0.32778622       2.00723064       0.55780148
H        0.28921733       1.59805272      -1.06788005
H       -2.93675770      -0.03866525       0.11671271
H       -1.60315581      -1.70442004      -1.15282574
H       -0.26127227      -0.77100038      -1.96072573
H        0.88885565      -1.49681646       1.61828774
15
Frame=15 idx=009598 GeodesicLength=1.6521485636545312 rxn_smarts="[O:1]([C@@:2]1([H:9])[C:3]([H:10])([H:11])[C@@:4]2([O:5][H:12])[C:6]([H:13])([H:14])[C@@:7]12[H:15])[H:8]>>[O:1]([C@@:2]([C:3]([C:4]([O:5][H:12])=[C:6]([H:13])[H:14])([H:10])[H:11])([C:7][H:15])[H:9])[H:8]"
O        2.08260012      -0.13916204      -0.32635901
C        1.10665754       0.40254801       0.57136584
C       -0.00376343       1.20510083      -0.10468874
C       -1.04627437       0.11195792      -0.16144242
O       -2.15811415       0.26619682       0.61823705
C       -0.82291074      -0.94719925      -1.04780978
C        0.44438422      -0.93376757       0.74309460
H        2.82945818      -0.46401894       0.18232627
H        1.54995947       0.90508655       1.43192120
H       -0.32200306       2.02001020       0.54539926
H        0.28503640       1.59627433      -1.08047576
H       -2.92916066      -0.03112407       0.13117025
H       -1.58209379      -1.71637758      -1.13096050
H       -0.26535233      -0.76796716      -1.95974927
H        0.83157660      -1.50755806       1.58797099
15
Frame=16 idx=009598 GeodesicLength=1.7640406740163619 rxn_smarts="[O:1]([C@@:2]1([H:9])[C:3]([H:10])([H:11])[C@@:4]2([O:5][H:12])[C:6]([H:13])([H:14])[C@@:7]12[H:15])[H:8]>>[O:1]([C@@:2]([C:3]([C:4]([O:5][H:12])=[C:6]([H:13])[H:14])([H:10])[H:11])([C:7][H:15])[H:9])[H:8]"
O        2.09328234      -0.13204645      -0.32017008
C        1.10589349       0.40762547       0.56612917
C       -0.00252100       1.21179798      -0.11211646
C       -1.03776783       0.11003392      -0.14727381
O       -2.14648250       0.25336467       0.63987509
C       -0.80829822      -0.95128906      -1.03725927
C        0.43729936      -0.93021250       0.70055433
H        2.83296624      -0.45917998       0.19738553
H        1.53800507       0.89726968       1.43904101
H       -0.31653531       2.03253577       0.53267018
H        0.28100823       1.59430821      -1.09290991
H       -2.92110840      -0.02432080       0.14702785
H       -1.56103688      -1.72775504      -1.11025123
H       -0.26931614      -0.76486649      -1.95912214
H        0.77461157      -1.51726536       1.55641975
