11
Frame=0 idx=001468 GeodesicLength=0.0 rxn_smarts="[C:1]([C@@:2]1([H:10])[O:3][C@:4]1([C:5]#[N:6])[H:11])([H:7])([H:8])[H:9]>>[C:1]([C@@:2]1([H:10])[O:3][N:6]=[C:5]=[C:4]1[H:11])([H:7])([H:8])[H:9]"
C       -1.28414256      -0.33745805      -0.18845819
C       -0.11401600       0.44760927       0.36407010
O        0.63718079      -0.21114069       1.37846745
C        1.11627041       0.63512688      -0.48235756
C        1.69683525      -0.60029602      -0.62316950
N        1.50237528      -1.33242917       0.36330346
H       -1.99883160      -0.50929506       0.61567970
H       -1.78433411       0.21424116      -0.98709491
H       -0.95810073      -1.30312356      -0.57319417
H       -0.43983944       1.41498376       0.75798432
H        1.62660274       1.58178150      -0.62523065
11
Frame=1 idx=001468 GeodesicLength=0.05285833719669811 rxn_smarts="[C:1]([C@@:2]1([H:10])[O:3][C@:4]1([C:5]#[N:6])[H:11])([H:7])([H:8])[H:9]>>[C:1]([C@@:2]1([H:10])[O:3][N:6]=[C:5]=[C:4]1[H:11])([H:7])([H:8])[H:9]"
C       -1.28862348      -0.33591652      -0.18793264
C       -0.11899467       0.44980544       0.36248743
O        0.64086928      -0.20841352       1.36932920
C        1.11830619       0.63297436      -0.46818256
C        1.70641580      -0.60037519      -0.62078326
N        1.51779188      -1.34437749       0.35814942
H       -2.00476909      -0.50455007       0.61561480
H       -1.78574031       0.21405026      -0.98954916
H       -0.96278027      -1.30291178      -0.56942339
H       -0.44215800       1.41806695       0.75650923
H        1.61968268       1.58164755      -0.62621907
11
Frame=2 idx=001468 GeodesicLength=0.10572043193461027 rxn_smarts="[C:1]([C@@:2]1([H:10])[O:3][C@:4]1([C:5]#[N:6])[H:11])([H:7])([H:8])[H:9]>>[C:1]([C@@:2]1([H:10])[O:3][N:6]=[C:5]=[C:4]1[H:11])([H:7])([H:8])[H:9]"
C       -1.29309299      -0.33425435      -0.18743134
C       -0.12389138       0.45197218       0.36101732
O        0.64419137      -0.20613671       1.36030896
C        1.12023904       0.63074215      -0.45398192
C        1.71615754      -0.60030128      -0.61822250
N        1.53375156      -1.35616437       0.35300234
H       -2.01084207      -0.49956883       0.61540205
H       -1.78699175       0.21400087      -0.99207449
H       -0.96746575      -1.30261624      -0.56557509
H       -0.44432677       1.42108309       0.75526806
H        1.61227120       1.58124349      -0.62771340
11
Frame=3 idx=001468 GeodesicLength=0.15858410952739257 rxn_smarts="[C:1]([C@@:2]1([H:10])[O:3][C@:4]1([C:5]#[N:6])[H:11])([H:7])([H:8])[H:9]>>[C:1]([C@@:2]1([H:10])[O:3][N:6]=[C:5]=[C:4]1[H:11])([H:7])([H:8])[H:9]"
C       -1.29755661      -0.33247388      -0.18695426
C       -0.12871062       0.45411466       0.35964692
O        0.64715637      -0.20428275       1.35140623
C        1.12206427       0.62843765      -0.43977501
C        1.72605039      -0.60007276      -0.61548974
N        1.55025773      -1.36777617       0.34786122
H       -2.01703451      -0.49437591       0.61505360
H       -1.78811215       0.21409386      -0.99465528
H       -0.97216280      -1.30223058      -0.56166858
H       -0.44635423       1.42403855       0.75424153
H        1.60440215       1.58052733      -0.62966664
11
Frame=4 idx=001468 GeodesicLength=0.2114496542299667 rxn_smarts="[C:1]([C@@:2]1([H:10])[O:3][C@:4]1([C:5]#[N:6])[H:11])([H:7])([H:8])[H:9]>>[C:1]([C@@:2]1([H:10])[O:3][N:6]=[C:5]=[C:4]1[H:11])([H:7])([H:8])[H:9]"
C       -1.30202079      -0.33057860      -0.18650070
C       -0.13345776       0.45623900       0.35836087
O        0.64977437      -0.20282062       1.34261693
C        1.12377533       0.62606879      -0.42558655
C        1.73608357      -0.59968966      -0.61258854
N        1.56731247      -1.37920101       0.34272607
H       -2.02332922      -0.48899819       0.61458497
H       -1.78912942       0.21432845      -0.99727447
H       -0.97687752      -1.30174962      -0.55772356
H       -0.44824970       1.42694123       0.75340622
H        1.59611866       1.57946024      -0.63202123
11
Frame=5 idx=001468 GeodesicLength=0.26431064327586756 rxn_smarts="[C:1]([C@@:2]1([H:10])[O:3][C@:4]1([C:5]#[N:6])[H:11])([H:7])([H:8])[H:9]>>[C:1]([C@@:2]1([H:10])[O:3][N:6]=[C:5]=[C:4]1[H:11])([H:7])([H:8])[H:9]"
C       -1.30649378      -0.32857467      -0.18606958
C       -0.13813825       0.45835314       0.35714267
O        0.65205716      -0.20171857       1.33393240
C        1.12536692       0.62364797      -0.41144874
C        1.74624429      -0.59915358      -0.60952531
N        1.58491356      -1.39042942       0.33760202
H       -2.02971048      -0.48346565       0.61401671
H       -1.79007479       0.21470101      -0.99991652
H       -0.98161854      -1.30117376      -0.55376099
H       -0.45002183       1.42980256       0.75273834
H        1.58747575       1.57801098      -0.63471101
11
Frame=6 idx=001468 GeodesicLength=0.317102195089558 rxn_smarts="[C:1]([C@@:2]1([H:10])[O:3][C@:4]1([C:5]#[N:6])[H:11])([H:7])([H:8])[H:9]>>[C:1]([C@@:2]1([H:10])[O:3][N:6]=[C:5]=[C:4]1[H:11])([H:7])([H:8])[H:9]"
C       -1.31098272      -0.32645145      -0.18566493
C       -0.14274733       0.46043552       0.35597542
O        0.65400218      -0.20098506       1.32535320
C        1.12682950       0.62111074      -0.39737568
C        1.75652778      -0.59848477      -0.60628533
N        1.60310971      -1.40138126       0.33251382
H       -2.03615964      -0.47778363       0.61334689
H       -1.79097309       0.21524219      -1.00255375
H       -0.98640552      -1.30047544      -0.54981041
H       -0.45165307       1.43260275       0.75221208
H        1.57845219       1.57617042      -0.63771132
11
Frame=7 idx=001468 GeodesicLength=0.36988296243162566 rxn_smarts="[C:1]([C@@:2]1([H:10])[O:3][C@:4]1([C:5]#[N:6])[H:11])([H:7])([H:8])[H:9]>>[C:1]([C@@:2]1([H:10])[O:3][N:6]=[C:5]=[C:4]1[H:11])([H:7])([H:8])[H:9]"
C       -1.31549672      -0.32422661      -0.18528075
C       -0.14730092       0.46251167       0.35484972
O        0.65563644      -0.20056747       1.31686196
C        1.12815767       0.61852704      -0.38340064
C        1.76692125      -0.59766792      -0.60289241
N        1.62186845      -1.41210199       0.32744067
H       -2.04267801      -0.47197560       0.61260473
H       -1.79184496       0.21591624      -1.00519214
H       -0.99123939      -1.29967973      -0.54586826
H       -0.45317452       1.43536935       0.75181501
H        1.56915070       1.57389502      -0.64093789
11
Frame=8 idx=001468 GeodesicLength=0.4226714284676257 rxn_smarts="[C:1]([C@@:2]1([H:10])[O:3][C@:4]1([C:5]#[N:6])[H:11])([H:7])([H:8])[H:9]>>[C:1]([C@@:2]1([H:10])[O:3][N:6]=[C:5]=[C:4]1[H:11])([H:7])([H:8])[H:9]"
C       -1.32004477      -0.32190057      -0.18491481
C       -0.15180599       0.46457484       0.35375642
O        0.65696765      -0.20045359       1.30845261
C        1.12933543       0.61588239      -0.36953830
C        1.77742472      -0.59670647      -0.59934620
N        1.64121645      -1.42257583       0.32237825
H       -2.04926677      -0.46603474       0.61179313
H       -1.79270293       0.21672215      -1.00782459
H       -0.99613446      -1.29878471      -0.54193496
H       -0.45459366       1.43809563       0.75153528
H        1.55960433       1.57118090      -0.64435683
11
Frame=9 idx=001468 GeodesicLength=0.47545715042158093 rxn_smarts="[C:1]([C@@:2]1([H:10])[O:3][C@:4]1([C:5]#[N:6])[H:11])([H:7])([H:8])[H:9]>>[C:1]([C@@:2]1([H:10])[O:3][N:6]=[C:5]=[C:4]1[H:11])([H:7])([H:8])[H:9]"
C       -1.32463897      -0.31947518      -0.18456997
C       -0.15626052       0.46662088       0.35268896
O        0.65802168      -0.20064103       1.30011704
C        1.13036452       0.61317921      -0.35581417
C        1.78802866      -0.59560092      -0.59565989
N        1.66118767      -1.43278341       0.31733318
H       -2.05594092      -0.45994028       0.61091250
H       -1.79355617       0.21765182      -1.01047058
H       -1.00111805      -1.29780448      -0.53799743
H       -0.45589832       1.44078182       0.75136932
H        1.54981042       1.56801157      -0.64790895
11
Frame=10 idx=001468 GeodesicLength=0.5282413034478757 rxn_smarts="[C:1]([C@@:2]1([H:10])[O:3][C@:4]1([C:5]#[N:6])[H:11])([H:7])([H:8])[H:9]>>[C:1]([C@@:2]1([H:10])[O:3][N:6]=[C:5]=[C:4]1[H:11])([H:7])([H:8])[H:9]"
C       -1.32928456      -0.31695217      -0.18423423
C       -0.16067999       0.46863166       0.35163283
O        0.65878707      -0.20112040       1.29181684
C        1.13122376       0.61036221      -0.34225168
C        1.79873420      -0.59437186      -0.59183324
N        1.68178617      -1.44270283       0.31229263
H       -2.06270433      -0.45366439       0.60997485
H       -1.79440448       0.21868700      -1.01310916
H       -1.00619451      -1.29673737      -0.53403293
H       -0.45711135       1.44339959       0.75129064
H        1.53984802       1.56446854      -0.65154653
11
Frame=11 idx=001468 GeodesicLength=0.5810202893817277 rxn_smarts="[C:1]([C@@:2]1([H:10])[O:3][C@:4]1([C:5]#[N:6])[H:11])([H:7])([H:8])[H:9]>>[C:1]([C@@:2]1([H:10])[O:3][N:6]=[C:5]=[C:4]1[H:11])([H:7])([H:8])[H:9]"
C       -1.33399632      -0.31433814      -0.18391356
C       -0.16506532       0.47062796       0.35057122
O        0.65928871      -0.20186141       1.28355527
C        1.13190767       0.60750399      -0.32887940
C        1.80952161      -0.59299350      -0.58787755
N        1.70303268      -1.45229848       0.30727403
H       -2.06954098      -0.44726622       0.60899211
H       -1.79529788       0.21983445      -1.01572578
H       -1.01138669      -1.29557809      -0.53008348
H       -0.45822296       1.44597933       0.75128291
H        1.52975949       1.56039011      -0.65519577
11
Frame=12 idx=001468 GeodesicLength=0.6337977468075107 rxn_smarts="[C:1]([C@@:2]1([H:10])[O:3][C@:4]1([C:5]#[N:6])[H:11])([H:7])([H:8])[H:9]>>[C:1]([C@@:2]1([H:10])[O:3][N:6]=[C:5]=[C:4]1[H:11])([H:7])([H:8])[H:9]"
C       -1.33879024      -0.31164189      -0.18360221
C       -0.16942687       0.47259668       0.34948680
O        0.65953911      -0.20285712       1.27530773
C        1.13240131       0.60454334      -0.31574427
C        1.82038480      -0.59150685      -0.58381307
N        1.72494844      -1.46157424       0.30227441
H       -2.07646517      -0.44070617       0.60798448
H       -1.79625521       0.22106708      -1.01833561
H       -1.01671805      -1.29435838      -0.52611114
H       -0.45924097       1.44851834       0.75131451
H        1.51962284       1.55591921      -0.65876161
11
Frame=13 idx=001468 GeodesicLength=0.6865794699688738 rxn_smarts="[C:1]([C@@:2]1([H:10])[O:3][C@:4]1([C:5]#[N:6])[H:11])([H:7])([H:8])[H:9]>>[C:1]([C@@:2]1([H:10])[O:3][N:6]=[C:5]=[C:4]1[H:11])([H:7])([H:8])[H:9]"
C       -1.34367657      -0.30886586      -0.18329789
C       -0.17377164       0.47453306       0.34837442
O        0.65954479      -0.20410810       1.26705612
C        1.13269460       0.60148592      -0.30286169
C        1.83131692      -0.58990769      -0.57965123
N        1.74756261      -1.47050274       0.29729209
H       -2.08349193      -0.43396670       0.60695000
H       -1.79727634       0.22237397      -1.02094166
H       -1.02221049      -1.29308560      -0.52209861
H       -0.46016881       1.45100854       0.75138523
H        1.50947686       1.55103521      -0.66220677
11
Frame=14 idx=001468 GeodesicLength=0.7393703565969141 rxn_smarts="[C:1]([C@@:2]1([H:10])[O:3][C@:4]1([C:5]#[N:6])[H:11])([H:7])([H:8])[H:9]>>[C:1]([C@@:2]1([H:10])[O:3][N:6]=[C:5]=[C:4]1[H:11])([H:7])([H:8])[H:9]"
C       -1.34866540      -0.30600870      -0.18299917
C       -0.17810425       0.47642671       0.34723076
O        0.65931429      -0.20562022       1.25878385
C        1.13278344       0.59831408      -0.29024145
C        1.84231674      -0.58820415      -0.57539158
N        1.77090164      -1.47906496       0.29233117
H       -2.09063282      -0.42703024       0.60588690
H       -1.79836480       0.22375156      -1.02354653
H       -1.02788602      -1.29176253      -0.51803272
H       -0.46100418       1.45343721       0.75148940
H        1.49934134       1.54576124      -0.66551062
11
Frame=15 idx=001468 GeodesicLength=0.7921661584547354 rxn_smarts="[C:1]([C@@:2]1([H:10])[O:3][C@:4]1([C:5]#[N:6])[H:11])([H:7])([H:8])[H:9]>>[C:1]([C@@:2]1([H:10])[O:3][N:6]=[C:5]=[C:4]1[H:11])([H:7])([H:8])[H:9]"
C       -1.35376920      -0.30307578      -0.18270492
C       -0.18243321       0.47827983       0.34603895
O        0.65885215      -0.20737486       1.25047750
C        1.13265761       0.59501897      -0.27791865
C        1.85337335      -0.58641445      -0.57104168
N        1.79498337      -1.48723913       0.28741365
H       -2.09787657      -0.41992270       0.60481658
H       -1.79956068       0.22520347      -1.02613084
H       -1.03375889      -1.29038722      -0.51393978
H       -0.46175034       1.45581373       0.75160390
H        1.48928241       1.54009816      -0.66861471
11
Frame=16 idx=001468 GeodesicLength=0.8449603317002515 rxn_smarts="[C:1]([C@@:2]1([H:10])[O:3][C@:4]1([C:5]#[N:6])[H:11])([H:7])([H:8])[H:9]>>[C:1]([C@@:2]1([H:10])[O:3][N:6]=[C:5]=[C:4]1[H:11])([H:7])([H:8])[H:9]"
C       -1.35899709      -0.30006880      -0.18241387
C       -0.18676368       0.48008931       0.34478773
O        0.65816129      -0.20936208       1.24212494
C        1.13231247       0.59158046      -0.26591239
C        1.86448296      -0.58455698      -0.56659344
N        1.81981465      -1.49500873       0.28256026
H       -2.10520962      -0.41266863       0.60375545
H       -1.80089589       0.22673951      -1.02867321
H       -1.03984257      -1.28895179      -0.50984724
H       -0.46240646       1.45813810       0.75170737
H        1.47934393       1.53406962      -0.67149562
