17
Frame=0 idx=008393 GeodesicLength=0.0 rxn_smarts="[C:1]([O:2][C:3]([C:4]([H:11])([H:12])[H:13])([C:5]([H:14])([H:15])[H:16])[C:6](=[O:7])[H:17])([H:8])([H:9])[H:10]>>[C:1]([O:2][C:3](=[C:4]([H:11])[H:13])[C:5]([C:6](=[O:7])[H:17])([H:15])[H:16])([H:8])([H:9])[H:10].[H:12][H:14]"
C        2.14560554       0.11163011      -0.20129119
O        1.06640428      -0.04288294       0.69555169
C       -0.21491723      -0.00669260       0.17588157
C       -0.49755833       0.75860144      -0.98249541
C       -1.19061611      -0.11530114       1.22292396
C       -0.62090436      -1.59838551      -0.21501072
O       -1.54695424      -2.01803112      -0.82512943
H        2.07003406      -0.56703994      -1.05806812
H        3.04352406      -0.13061495       0.36358997
H        2.22168325       1.13980208      -0.56468886
H        0.28518596       1.01656685      -1.68302173
H       -1.09534689       1.99282555       0.24729574
H       -1.48441086       0.63780983      -1.41127455
H       -1.33932047       1.73429099       0.99891977
H       -2.22918539      -0.22360826       0.94675128
H       -0.87090554      -0.50119027       2.18271968
H        0.25768230      -2.18778018       0.10734636
17
Frame=1 idx=008393 GeodesicLength=0.08335795280348118 rxn_smarts="[C:1]([O:2][C:3]([C:4]([H:11])([H:12])[H:13])([C:5]([H:14])([H:15])[H:16])[C:6](=[O:7])[H:17])([H:8])([H:9])[H:10]>>[C:1]([O:2][C:3](=[C:4]([H:11])[H:13])[C:5]([C:6](=[O:7])[H:17])([H:15])[H:16])([H:8])([H:9])[H:10].[H:12][H:14]"
C        2.14811415       0.11504970      -0.20402746
O        1.06850237      -0.03899239       0.69231772
C       -0.21040739      -0.00579856       0.16719365
C       -0.49682630       0.77370502      -0.98107223
C       -1.19242977      -0.12206519       1.21342973
C       -0.63023317      -1.60945838      -0.19984364
O       -1.54609447      -2.03386791      -0.82353790
H        2.07264646      -0.56426709      -1.06032674
H        3.04621525      -0.12577109       0.36118314
H        2.22264558       1.14359213      -0.56705894
H        0.28422248       1.02213051      -1.68715241
H       -1.08896098       1.99500125       0.24849026
H       -1.48153116       0.64780729      -1.41393750
H       -1.33756012       1.72810928       1.01458109
H       -2.23200124      -0.21997864       0.93565035
H       -0.87185212      -0.50576875       2.17404987
H        0.24555043      -2.19942717       0.13006099
17
Frame=2 idx=008393 GeodesicLength=0.1667267743596029 rxn_smarts="[C:1]([O:2][C:3]([C:4]([H:11])([H:12])[H:13])([C:5]([H:14])([H:15])[H:16])[C:6](=[O:7])[H:17])([H:8])([H:9])[H:10]>>[C:1]([O:2][C:3](=[C:4]([H:11])[H:13])[C:5]([C:6](=[O:7])[H:17])([H:15])[H:16])([H:8])([H:9])[H:10].[H:12][H:14]"
C        2.15054268       0.11854188      -0.20680164
O        1.07039076      -0.03533832       0.68883344
C       -0.20605167      -0.00525333       0.15808547
C       -0.49605496       0.78888213      -0.97963209
C       -1.19430872      -0.12879768       1.20364792
C       -0.63968828      -1.62073796      -0.18460352
O       -1.54510531      -2.05035473      -0.82147589
H        2.07537386      -0.56119706      -1.06281809
H        3.04875227      -0.12093469       0.35881794
H        2.22349235       1.14755284      -0.56918846
H        0.28314645       1.02805416      -1.69117811
H       -1.08195078       1.99742488       0.24964369
H       -1.47857183       0.65805773      -1.41664882
H       -1.33554698       1.72152666       1.03063526
H       -2.23478490      -0.21642687       0.92431003
H       -0.87289246      -0.50992900       2.16525451
H        0.23325752      -2.21107066       0.15311837
17
Frame=3 idx=008393 GeodesicLength=0.2500977956543001 rxn_smarts="[C:1]([O:2][C:3]([C:4]([H:11])([H:12])[H:13])([C:5]([H:14])([H:15])[H:16])[C:6](=[O:7])[H:17])([H:8])([H:9])[H:10]>>[C:1]([O:2][C:3](=[C:4]([H:11])[H:13])[C:5]([C:6](=[O:7])[H:17])([H:15])[H:16])([H:8])([H:9])[H:10].[H:12][H:14]"
C        2.15289669       0.12210285      -0.20961300
O        1.07206903      -0.03191677       0.68509269
C       -0.20184728      -0.00504619       0.14854857
C       -0.49523725       0.80411866      -0.97817679
C       -1.19624732      -0.13549720       1.19358122
C       -0.64926883      -1.63221019      -0.16928524
O       -1.54400881      -2.06749550      -0.81889512
H        2.07822149      -0.55783178      -1.06554326
H        3.05113404      -0.11612335       0.35650027
H        2.22423581       1.15167934      -0.57107551
H        0.28197145       1.03435517      -1.69509497
H       -1.07432566       2.00010103       0.25072741
H       -1.47553495       0.66858223      -1.41940378
H       -1.33331567       1.71450975       1.04708367
H       -2.23753251      -0.21295617       0.91272860
H       -0.87402513      -0.51368636       2.15632817
H        0.22081489      -2.22268552       0.17649707
17
Frame=4 idx=008393 GeodesicLength=0.33346138472078085 rxn_smarts="[C:1]([O:2][C:3]([C:4]([H:11])([H:12])[H:13])([C:5]([H:14])([H:15])[H:16])[C:6](=[O:7])[H:17])([H:8])([H:9])[H:10]>>[C:1]([O:2][C:3](=[C:4]([H:11])[H:13])[C:5]([C:6](=[O:7])[H:17])([H:15])[H:16])([H:8])([H:9])[H:10].[H:12][H:14]"
C        2.15518151       0.12572926      -0.21245977
O        1.07353678      -0.02872248       0.68109026
C       -0.19779144      -0.00516519       0.13857583
C       -0.49436646       0.81939935      -0.97670831
C       -1.19823977      -0.14216322       1.18323280
C       -0.65897336      -1.64385906      -0.15388474
O       -1.54282869      -2.08529061      -0.81574864
H        2.08119484      -0.55417550      -1.06849974
H        3.05335954      -0.11135104       0.35423789
H        2.22488694       1.15596597      -0.57272030
H        0.28071087       1.04104398      -1.69890212
H       -1.06609230       2.00303603       0.25171147
H       -1.47242485       0.67940256      -1.42219562
H       -1.33090084       1.70702425       1.06392944
H       -2.24024039      -0.20957011       0.90090543
H       -0.87524849      -0.51705875       2.14726492
H        0.20823611      -2.23424543       0.20017119
17
Frame=5 idx=008393 GeodesicLength=0.41680672263356955 rxn_smarts="[C:1]([O:2][C:3]([C:4]([H:11])([H:12])[H:13])([C:5]([H:14])([H:15])[H:16])[C:6](=[O:7])[H:17])([H:8])([H:9])[H:10]>>[C:1]([O:2][C:3](=[C:4]([H:11])[H:13])[C:5]([C:6](=[O:7])[H:17])([H:15])[H:16])([H:8])([H:9])[H:10].[H:12][H:14]"
C        2.15740213       0.12941812      -0.21533914
O        1.07479367      -0.02574848       0.67682218
C       -0.19388135      -0.00559678       0.12816186
C       -0.49343631       0.83470815      -0.97522877
C       -1.20028036      -0.14879603       1.17260619
C       -0.66879945      -1.65566651      -0.13839937
O       -1.54158932      -2.10373636      -0.81199222
H        2.08429935      -0.55023546      -1.07168092
H        3.05542781      -0.10662762       0.35204046
H        2.22545520       1.16040592      -0.57412597
H        0.27937720       1.04812261      -1.70260228
H       -1.05725419       2.00623855       0.25256503
H       -1.46924841       0.69054135      -1.42501506
H       -1.32833701       1.69903494       1.08117810
H       -2.24290510      -0.20627268       0.88884071
H       -0.87656109      -0.52006673       2.13805849
H        0.19553722      -2.24572298       0.22411072
17
Frame=6 idx=008393 GeodesicLength=0.5001197615241815 rxn_smarts="[C:1]([O:2][C:3]([C:4]([H:11])([H:12])[H:13])([C:5]([H:14])([H:15])[H:16])[C:6](=[O:7])[H:17])([H:8])([H:9])[H:10]>>[C:1]([O:2][C:3](=[C:4]([H:11])[H:13])[C:5]([C:6](=[O:7])[H:17])([H:15])[H:16])([H:8])([H:9])[H:10].[H:12][H:14]"
C        2.15956332       0.13316690      -0.21824709
O        1.07583961      -0.02298592       0.67228611
C       -0.19011416      -0.00632571       0.11730329
C       -0.49244084       0.85002839      -0.97374074
C       -1.20236335      -0.15539679       1.16170589
C       -0.67874421      -1.66761281      -0.12282796
O       -1.54031574      -2.12282409      -0.80758584
H        2.08754044      -0.54602220      -1.07507587
H        3.05733816      -0.10195845       0.34991996
H        2.22594893       1.16499149      -0.57529882
H        0.27798180       1.05558490      -1.70620202
H       -1.04781620       2.00971787       0.25325487
H       -1.46601456       0.70202093      -1.42785149
H       -1.32565452       1.69050779       1.09883958
H       -2.24552356      -0.20306778       0.87653566
H       -0.87796136      -0.52273400       2.12870305
H        0.18273625      -2.25709052       0.24828142
17
Frame=7 idx=008393 GeodesicLength=0.5833974169548822 rxn_smarts="[C:1]([O:2][C:3]([C:4]([H:11])([H:12])[H:13])([C:5]([H:14])([H:15])[H:16])[C:6](=[O:7])[H:17])([H:8])([H:9])[H:10]>>[C:1]([O:2][C:3](=[C:4]([H:11])[H:13])[C:5]([C:6](=[O:7])[H:17])([H:15])[H:16])([H:8])([H:9])[H:10].[H:12][H:14]"
C        2.16166903       0.13697256      -0.22117906
O        1.07667447      -0.02042280       0.66748077
C       -0.18648663      -0.00733371       0.10599938
C       -0.49137447       0.86534291      -0.97224583
C       -1.20448296      -0.16196692       1.15053620
C       -0.68880149      -1.67967362      -0.10717209
O       -1.53903208      -2.14253902      -0.80249075
H        2.09092276      -0.54155079      -1.07866839
H        3.05908912      -0.09734600       0.34788862
H        2.22637451       1.16971147      -0.57624969
H        0.27653407       1.06341304      -1.70971035
H       -1.03776741       2.01349294       0.25374851
H       -1.46273501       0.71386465      -1.43068811
H       -1.32289915       1.68139838       1.11692284
H       -2.24809203      -0.19996013       0.86399312
H       -0.87944812      -0.52508609       2.11919048
H        0.16985540      -2.26831686       0.27264437
17
Frame=8 idx=008393 GeodesicLength=0.6666284994861076 rxn_smarts="[C:1]([O:2][C:3]([C:4]([H:11])([H:12])[H:13])([C:5]([H:14])([H:15])[H:16])[C:6](=[O:7])[H:17])([H:8])([H:9])[H:10]>>[C:1]([O:2][C:3](=[C:4]([H:11])[H:13])[C:5]([C:6](=[O:7])[H:17])([H:15])[H:16])([H:8])([H:9])[H:10].[H:12][H:14]"
C        2.16372232       0.14083654      -0.22413402
O        1.07729841      -0.01805311       0.66240173
C       -0.18299629      -0.00860762       0.09424542
C       -0.49023287       0.88063454      -0.97074882
C       -1.20663823      -0.16851219       1.13909491
C       -0.69896589      -1.69183317      -0.09143336
O       -1.53775755      -2.16287670      -0.79667633
H        2.09445210      -0.53682855      -1.08245005
H        3.06068146      -0.09278108       0.34595540
H        2.22673502       1.17456297      -0.57698801
H        0.27504157       1.07160333      -1.71313716
H       -1.02709630       2.01757537       0.25401739
H       -1.45942355       0.72609664      -1.43351382
H       -1.32007942       1.67167068       1.13545487
H       -2.25061093      -0.19695255       0.85119905
H       -0.88102698      -0.52715211       2.10951006
H        0.15689713      -2.27938298       0.29720276
17
Frame=9 idx=008393 GeodesicLength=0.7498205536353881 rxn_smarts="[C:1]([O:2][C:3]([C:4]([H:11])([H:12])[H:13])([C:5]([H:14])([H:15])[H:16])[C:6](=[O:7])[H:17])([H:8])([H:9])[H:10]>>[C:1]([O:2][C:3](=[C:4]([H:11])[H:13])[C:5]([C:6](=[O:7])[H:17])([H:15])[H:16])([H:8])([H:9])[H:10].[H:12][H:14]"
C        2.16572453       0.14475973      -0.22711094
O        1.07771127      -0.01586956       0.65704429
C       -0.17964001      -0.01013194       0.08203864
C       -0.48901183       0.89588554      -0.96925282
C       -1.20882750      -0.17503784       1.12737854
C       -0.70922788      -1.70407139      -0.07561590
O       -1.53651046      -2.18382866      -0.79010897
H        2.09813339      -0.53186459      -1.08640953
H        3.06211359      -0.08825403       0.34412770
H        2.22703020       1.17954050      -0.57752459
H        0.27350939       1.08014121      -1.71649315
H       -1.01576092       2.02198983       0.25403478
H       -1.45609610       0.73874243      -1.43630929
H       -1.31723365       1.66127376       1.15445785
H       -2.25307837      -0.19404921       0.83814073
H       -0.88270324      -0.52896056       2.09964752
H        0.14386760      -2.29026521       0.32195514
17
Frame=10 idx=008393 GeodesicLength=0.8329729338447982 rxn_smarts="[C:1]([O:2][C:3]([C:4]([H:11])([H:12])[H:13])([C:5]([H:14])([H:15])[H:16])[C:6](=[O:7])[H:17])([H:8])([H:9])[H:10]>>[C:1]([O:2][C:3](=[C:4]([H:11])[H:13])[C:5]([C:6](=[O:7])[H:17])([H:15])[H:16])([H:8])([H:9])[H:10].[H:12][H:14]"
C        2.16767599       0.14875234      -0.23010990
O        1.07791192      -0.01387352       0.65140063
C       -0.17641599      -0.01189744       0.06937023
C       -0.48770845       0.91107678      -0.96776584
C       -1.21105470      -0.18155174       1.11537559
C       -0.71957958      -1.71637637      -0.05972333
O       -1.53530869      -2.20540133      -0.78275290
H        2.10197577      -0.52664643      -1.09054731
H        3.06338532      -0.08374970       0.34240826
H        2.22725375       1.18465484      -0.57785458
H        0.27193825       1.08900718      -1.71979931
H       -1.00370308       2.02675992       0.25377907
H       -1.45277404       0.75183260      -1.43905735
H       -1.31435877       1.65015898       1.17396741
H       -2.25549774      -0.19125271       0.82479018
H       -0.88449630      -0.53054655       2.08958434
H        0.13075634      -2.30094686       0.34693481
17
Frame=11 idx=008393 GeodesicLength=0.9161015906519719 rxn_smarts="[C:1]([O:2][C:3]([C:4]([H:11])([H:12])[H:13])([C:5]([H:14])([H:15])[H:16])[C:6](=[O:7])[H:17])([H:8])([H:9])[H:10]>>[C:1]([O:2][C:3](=[C:4]([H:11])[H:13])[C:5]([C:6](=[O:7])[H:17])([H:15])[H:16])([H:8])([H:9])[H:10].[H:12][H:14]"
C        2.16957724       0.15282350      -0.23313227
O        1.07790069      -0.01206804       0.64546155
C       -0.17332142      -0.01389433       0.05623256
C       -0.48631878       0.92618863      -0.96629574
C       -1.21332221      -0.18806264       1.10307430
C       -0.73001320      -1.72873467      -0.04376119
O       -1.53417523      -2.22759766      -0.77456948
H        2.10598813      -0.52116344      -1.09486373
H        3.06449657      -0.07924778       0.34080044
H        2.22740019       1.18991529      -0.57797449
H        0.27033074       1.09818732      -1.72307193
H       -0.99085359       2.03191322       0.25322322
H       -1.44947657       0.76539290      -1.44174049
H       -1.31147129       1.63826601       1.19402099
H       -2.25787034      -0.18856440       0.81112084
H       -0.88641946      -0.53194233       2.07930136
H        0.11754853      -2.31141159       0.37217406
17
Frame=12 idx=008393 GeodesicLength=0.9992031014772057 rxn_smarts="[C:1]([O:2][C:3]([C:4]([H:11])([H:12])[H:13])([C:5]([H:14])([H:15])[H:16])[C:6](=[O:7])[H:17])([H:8])([H:9])[H:10]>>[C:1]([O:2][C:3](=[C:4]([H:11])[H:13])[C:5]([C:6](=[O:7])[H:17])([H:15])[H:16])([H:8])([H:9])[H:10].[H:12][H:14]"
C        2.17142648       0.15698026      -0.23617948
O        1.07767687      -0.01045447       0.63921888
C       -0.17035434      -0.01610967       0.04262105
C       -0.48483940       0.94120281      -0.96484875
C       -1.21563383      -0.19457810       1.09046342
C       -0.74051966      -1.74113002      -0.02773449
O       -1.53311791      -2.25041314      -0.76553462
H        2.11017887      -0.51541233      -1.09935442
H        3.06544484      -0.07472534       0.33930823
H        2.22746094       1.19532559      -0.57788890
H        0.26868568       1.10765833      -1.72633068
H       -0.97715065       2.03747513       0.25233901
H       -1.44622378       0.77944954      -1.44433700
H       -1.30857557       1.62553347       1.21466569
H       -2.26019759      -0.18598747       0.79710435
H       -0.88849043      -0.53317760       2.06878123
H        0.10422948      -2.32163701       0.39770648
17
Frame=13 idx=008393 GeodesicLength=1.0822827722296084 rxn_smarts="[C:1]([O:2][C:3]([C:4]([H:11])([H:12])[H:13])([C:5]([H:14])([H:15])[H:16])[C:6](=[O:7])[H:17])([H:8])([H:9])[H:10]>>[C:1]([O:2][C:3](=[C:4]([H:11])[H:13])[C:5]([C:6](=[O:7])[H:17])([H:15])[H:16])([H:8])([H:9])[H:10].[H:12][H:14]"
C        2.17322832       0.16122232      -0.23923983
O        1.07724455      -0.00901292       0.63268015
C       -0.16750852      -0.01851298       0.02854917
C       -0.48326491       0.95610062      -0.96343104
C       -1.21798063      -0.20110005       1.07755274
C       -0.75109020      -1.75352887      -0.01165500
O       -1.53216940      -2.27380485      -0.75562090
H        2.11455358      -0.50941662      -1.10398585
H        3.06623144      -0.07016482       0.33795300
H        2.22743554       1.20086988      -0.57762429
H        0.26700087       1.11735882      -1.72960425
H       -0.96253305       2.04349141       0.25107417
H       -1.44303871       0.79401997      -1.44681294
H       -1.30575434       1.61189241       1.23592367
H       -2.26247273      -0.18353032       0.78275270
H       -0.89070748      -0.53429798       2.05801854
H        0.09082567      -2.33158601       0.42346999
17
Frame=14 idx=008393 GeodesicLength=1.1653442437475605 rxn_smarts="[C:1]([O:2][C:3]([C:4]([H:11])([H:12])[H:13])([C:5]([H:14])([H:15])[H:16])[C:6](=[O:7])[H:17])([H:8])([H:9])[H:10]>>[C:1]([O:2][C:3](=[C:4]([H:11])[H:13])[C:5]([C:6](=[O:7])[H:17])([H:15])[H:16])([H:8])([H:9])[H:10].[H:12][H:14]"
C        2.17498300       0.16555874      -0.24231279
O        1.07660650      -0.00774057       0.62584207
C       -0.16478100      -0.02108534       0.01401855
C       -0.48159214       0.97086501      -0.96205348
C       -1.22036518      -0.20763570       1.06433526
C       -0.76171507      -1.76591345       0.00447149
O       -1.53133935      -2.29776136      -0.74480627
H        2.11911505      -0.50316598      -1.10875555
H        3.06685704      -0.06555645       0.33673512
H        2.22732116       1.20655718      -0.57717739
H        0.26527261       1.12725885      -1.73291890
H       -0.94693813       2.04999705       0.24938062
H       -1.43994320       0.80912348      -1.44914726
H       -1.30301915       1.59727188       1.25785109
H       -2.26469695      -0.18119544       0.76804099
H       -0.89308839      -0.53534196       2.04700091
H        0.07732320      -2.34123595       0.44949553
17
Frame=15 idx=008393 GeodesicLength=1.2483997282607695 rxn_smarts="[C:1]([O:2][C:3]([C:4]([H:11])([H:12])[H:13])([C:5]([H:14])([H:15])[H:16])[C:6](=[O:7])[H:17])([H:8])([H:9])[H:10]>>[C:1]([O:2][C:3](=[C:4]([H:11])[H:13])[C:5]([C:6](=[O:7])[H:17])([H:15])[H:16])([H:8])([H:9])[H:10].[H:12][H:14]"
C        2.17668831       0.17000258      -0.24539568
O        1.07576443      -0.00663843       0.61870092
C       -0.16216864      -0.02380924      -0.00096762
C       -0.47981796       0.98547552      -0.96072678
C       -1.22278781      -0.21419202       1.05080533
C       -0.77238725      -1.77826494       0.02063631
O       -1.53064635      -2.32226400      -0.73306550
H        2.12387264      -0.49664912      -1.11365581
H        3.06731815      -0.06087428       0.33566152
H        2.22710346       1.21239851      -0.57654524
H        0.26349095       1.13730734      -1.73630717
H       -0.93025401       2.05703966       0.24720873
H       -1.43696200       0.82477883      -1.45130831
H       -1.30040820       1.58158716       1.28049796
H       -2.26686795      -0.17898457       0.75294846
H       -0.89564670      -0.53635088       2.03571460
H        0.06370893      -2.35056211       0.47579826
17
Frame=16 idx=008393 GeodesicLength=1.3314638337072726 rxn_smarts="[C:1]([O:2][C:3]([C:4]([H:11])([H:12])[H:13])([C:5]([H:14])([H:15])[H:16])[C:6](=[O:7])[H:17])([H:8])([H:9])[H:10]>>[C:1]([O:2][C:3](=[C:4]([H:11])[H:13])[C:5]([C:6](=[O:7])[H:17])([H:15])[H:16])([H:8])([H:9])[H:10].[H:12][H:14]"
C        2.17834228       0.17456714      -0.24848503
O        1.07472209      -0.00570473       0.61125646
C       -0.15966697      -0.02666381      -0.01640285
C       -0.47793963       0.99991299      -0.95946352
C       -1.22524829      -0.22077603       1.03695834
C       -0.78309806      -1.79056344       0.03682829
O       -1.53011091      -2.34729201      -0.72037170
H        2.12883116      -0.48985534      -1.11867702
H        3.06761478      -0.05609383       0.33473482
H        2.22677122       1.21840548      -0.57572333
H        0.26164334       1.14745343      -1.73980435
H       -0.91235606       2.06467260       0.24450055
H       -1.43412085       0.84100178      -1.45326275
H       -1.29797403       1.56474463       1.30391738
H       -2.26898297      -0.17690029       0.73745482
H       -0.89839625      -0.53736995       2.02414743
H        0.04996916      -2.35953859       0.50239246
