7
Frame=0 idx=000902 GeodesicLength=0.0 rxn_smarts="[C:1]1([H:4])([H:5])[C:2]([H:6])([H:7])[O:3]1>>[C:1]([O+:3]=[C-:2][H:7])([H:4])([H:5])[H:6]"
C       -0.57129526      -0.19668912      -0.09083226
C        1.20966043       0.03006608       0.35141012
O        0.06884003       0.00659774       1.15177539
H       -1.15761729      -1.11187511      -0.07324722
H       -1.08760630       0.68725663      -0.45630120
H        0.28681872      -0.48810583      -0.82115779
H        1.25119968       1.07274958      -0.06164703
7
Frame=1 idx=000902 GeodesicLength=0.051606018665933055 rxn_smarts="[C:1]1([H:4])([H:5])[C:2]([H:6])([H:7])[O:3]1>>[C:1]([O+:3]=[C-:2][H:7])([H:4])([H:5])[H:6]"
C       -0.57333807      -0.19498421      -0.09159472
C        1.20449666       0.03259738       0.35411457
O        0.06661118       0.00706914       1.15236569
H       -1.15907465      -1.11058931      -0.07535048
H       -1.09840181       0.68773400      -0.44764645
H        0.30108920      -0.49163999      -0.82453516
H        1.25861748       1.06981299      -0.06735343
7
Frame=2 idx=000902 GeodesicLength=0.10320726911711073 rxn_smarts="[C:1]1([H:4])([H:5])[C:2]([H:6])([H:7])[O:3]1>>[C:1]([O+:3]=[C-:2][H:7])([H:4])([H:5])[H:6]"
C       -0.57545434      -0.19314161      -0.09240743
C        1.19927632       0.03529497       0.35669704
O        0.06437176       0.00745854       1.15291284
H       -1.16058710      -1.10918137      -0.07756520
H       -1.10935841       0.68822044      -0.43876750
H        0.31569761      -0.49548443      -0.82778699
H        1.26605416       1.06683345      -0.07308277
7
Frame=3 idx=000902 GeodesicLength=0.15480002073580817 rxn_smarts="[C:1]1([H:4])([H:5])[C:2]([H:6])([H:7])[O:3]1>>[C:1]([O+:3]=[C-:2][H:7])([H:4])([H:5])[H:6]"
C       -0.57764953      -0.19115393      -0.09327045
C        1.19399641       0.03816211       0.35914748
O        0.06212537       0.00775969       1.15341462
H       -1.16215381      -1.10764766      -0.07989775
H       -1.12047561       0.68871679      -0.42965873
H        0.33065259      -0.49965174      -0.83090074
H        1.27350457       1.06381473      -0.07883443
7
Frame=4 idx=000902 GeodesicLength=0.20638251031453764 rxn_smarts="[C:1]1([H:4])([H:5])[C:2]([H:6])([H:7])[O:3]1>>[C:1]([O+:3]=[C-:2][H:7])([H:4])([H:5])[H:6]"
C       -0.57993044      -0.18901389      -0.09418242
C        1.18865537       0.04120164       0.36145626
O        0.05987631       0.00796657       1.15386889
H       -1.16377365      -1.10598533      -0.08235394
H       -1.13175420       0.68922330      -0.42031680
H        0.34596192      -0.50415220      -0.83386489
H        1.28096469       1.06075992      -0.08460710
7
Frame=5 idx=000902 GeodesicLength=0.2579646234661918 rxn_smarts="[C:1]1([H:4])([H:5])[C:2]([H:6])([H:7])[O:3]1>>[C:1]([O+:3]=[C-:2][H:7])([H:4])([H:5])[H:6]"
C       -0.58231256      -0.18671979      -0.09514647
C        1.18324732       0.04440670       0.36360747
O        0.05763515       0.00807917       1.15428120
H       -1.16545104      -1.10420566      -0.08493711
H       -1.14319688       0.68974698      -0.41074359
H        0.36164371      -0.50897829      -0.83665966
H        1.28843429       1.05767088      -0.09040184
7
Frame=6 idx=000902 GeodesicLength=0.3095320094931195 rxn_smarts="[C:1]1([H:4])([H:5])[C:2]([H:6])([H:7])[O:3]1>>[C:1]([O+:3]=[C-:2][H:7])([H:4])([H:5])[H:6]"
C       -0.58477009      -0.18422975      -0.09615536
C        1.17777748       0.04781360       0.36561976
O        0.05538434       0.00807048       1.15461441
H       -1.16715930      -1.10225134      -0.08770602
H       -1.15481466       0.69028496      -0.40086739
H        0.37769883      -0.51425183      -0.83926319
H        1.29588339       1.05456387      -0.09624221
7
Frame=7 idx=000902 GeodesicLength=0.3610838408078647 rxn_smarts="[C:1]1([H:4])([H:5])[C:2]([H:6])([H:7])[O:3]1>>[C:1]([O+:3]=[C-:2][H:7])([H:4])([H:5])[H:6]"
C       -0.58735070      -0.18157981      -0.09721968
C        1.17222617       0.05137667       0.36743929
O        0.05314369       0.00796769       1.15490733
H       -1.16891709      -1.10018605      -0.09060109
H       -1.16660311       0.69083558      -0.39075829
H        0.39415625      -0.51981776      -0.84166059
H        1.30334480       1.05140368      -0.10210697
7
Frame=8 idx=000902 GeodesicLength=0.41262862374710696 rxn_smarts="[C:1]1([H:4])([H:5])[C:2]([H:6])([H:7])[O:3]1>>[C:1]([O+:3]=[C-:2][H:7])([H:4])([H:5])[H:6]"
C       -0.59003363      -0.17873186      -0.09832841
C        1.16659368       0.05512996       0.36910133
O        0.05090627       0.00775375       1.15512188
H       -1.17071525      -1.09796543      -0.09368886
H       -1.17856666       0.69138828      -0.38034060
H        0.41101466      -0.52579441      -0.84384041
H        1.31080093       1.04821969      -0.10802493
7
Frame=9 idx=000902 GeodesicLength=0.46414690689665306 rxn_smarts="[C:1]1([H:4])([H:5])[C:2]([H:6])([H:7])[O:3]1>>[C:1]([O+:3]=[C-:2][H:7])([H:4])([H:5])[H:6]"
C       -0.59283301      -0.17567715      -0.09948946
C        1.16088819       0.05907161       0.37057754
O        0.04867847       0.00741892       1.15527313
H       -1.17253706      -1.09558977      -0.09697625
H       -1.19073408       0.69196003      -0.36962111
H        0.42829152      -0.53218249      -0.84576839
H        1.31824597       1.04499886      -0.11399545
7
Frame=10 idx=000902 GeodesicLength=0.5156415447397095 rxn_smarts="[C:1]1([H:4])([H:5])[C:2]([H:6])([H:7])[O:3]1>>[C:1]([O+:3]=[C-:2][H:7])([H:4])([H:5])[H:6]"
C       -0.59576464      -0.17241666      -0.10070802
C        1.15509483       0.06319484       0.37185428
O        0.04646039       0.00697336       1.15535531
H       -1.17439633      -1.09307599      -0.10045812
H       -1.20310367       0.69253525      -0.35859148
H        0.44600768      -0.53894219      -0.84742915
H        1.32570172       1.04173138      -0.12002282
7
Frame=11 idx=000902 GeodesicLength=0.5671435410418527 rxn_smarts="[C:1]1([H:4])([H:5])[C:2]([H:6])([H:7])[O:3]1>>[C:1]([O+:3]=[C-:2][H:7])([H:4])([H:5])[H:6]"
C       -0.59882455      -0.16892223      -0.10196739
C        1.14920939       0.06751530       0.37293955
O        0.04425112       0.00640441       1.15535475
H       -1.17627077      -1.09039007      -0.10418405
H       -1.21568684       0.69311207      -0.34720978
H        0.46417693      -0.54614209      -0.84880313
H        1.33314471       1.03842261      -0.12612995
7
Frame=12 idx=000902 GeodesicLength=0.6186201523910183 rxn_smarts="[C:1]1([H:4])([H:5])[C:2]([H:6])([H:7])[O:3]1>>[C:1]([O+:3]=[C-:2][H:7])([H:4])([H:5])[H:6]"
C       -0.60203280      -0.16519449      -0.10328488
C        1.14322492       0.07202058       0.37380495
O        0.04205652       0.00571627       1.15527162
H       -1.17816845      -1.08755050      -0.10815095
H       -1.22849336       0.69368914      -0.33547172
H        0.48282291      -0.55374316      -0.84984870
H        1.34059025       1.03506217      -0.13232032
7
Frame=13 idx=000902 GeodesicLength=0.6700868455904125 rxn_smarts="[C:1]1([H:4])([H:5])[C:2]([H:6])([H:7])[O:3]1>>[C:1]([O+:3]=[C-:2][H:7])([H:4])([H:5])[H:6]"
C       -0.60539207      -0.16121041      -0.10464816
C        1.13714430       0.07673253       0.37445066
O        0.03987674       0.00489600       1.15509513
H       -1.18007833      -1.08452965      -0.11239039
H       -1.24154632       0.69425023      -0.32335255
H        0.50195856      -0.56177957      -0.85054864
H        1.34803712       1.03164086      -0.13860604
7
Frame=14 idx=000902 GeodesicLength=0.7215593357667036 rxn_smarts="[C:1]1([H:4])([H:5])[C:2]([H:6])([H:7])[O:3]1>>[C:1]([O+:3]=[C-:2][H:7])([H:4])([H:5])[H:6]"
C       -0.60891652      -0.15696618      -0.10606083
C        1.13094013       0.08162980       0.37485101
O        0.03771546       0.00395208       1.15482331
H       -1.18199662      -1.08133665      -0.11691490
H       -1.25482486       0.69480519      -0.31082835
H        0.52161441      -0.57024840      -0.85087189
H        1.35546800       1.02816416      -0.14499836
7
Frame=15 idx=000902 GeodesicLength=0.7730165273729596 rxn_smarts="[C:1]1([H:4])([H:5])[C:2]([H:6])([H:7])[O:3]1>>[C:1]([O+:3]=[C-:2][H:7])([H:4])([H:5])[H:6]"
C       -0.61261915      -0.15244055      -0.10751205
C        1.12462594       0.08673631       0.37500243
O        0.03558049       0.00287084       1.15443180
H       -1.18392195      -1.07794452      -0.12175591
H       -1.26836673       0.69531978      -0.29788144
H        0.54179921      -0.57915398      -0.85077670
H        1.36290218       1.02461212      -0.15150813
7
Frame=16 idx=000902 GeodesicLength=0.8244616769922463 rxn_smarts="[C:1]1([H:4])([H:5])[C:2]([H:6])([H:7])[O:3]1>>[C:1]([O+:3]=[C-:2][H:7])([H:4])([H:5])[H:6]"
C       -0.61650882      -0.14761397      -0.10901655
C        1.11818896       0.09204683       0.37488177
O        0.03347241       0.00165110       1.15391996
H       -1.18584765      -1.07435311      -0.12694216
H       -1.28218406       0.69580242      -0.28447049
H        0.56254663      -0.58852211      -0.85022005
H        1.37033252       1.02098884      -0.15815248
