14
Frame=0 idx=005511 GeodesicLength=0.0 rxn_smarts="[C:1]([C:2]1([O:3][H:10])[C:4]([H:11])([H:12])[O:5][C:6]1([H:13])[H:14])([H:7])([H:8])[H:9]>>[C:1]([C@@:2]1([C:4]([O:5][H:10])([H:11])[H:12])[O:3][C:6]1([H:13])[H:14])([H:7])([H:8])[H:9]"
C        1.69319636       0.09692561      -0.14069456
C        0.24562492      -0.04960128       0.25481972
O       -0.01719520      -0.46859087       1.52388429
C       -0.70275004      -0.84549292      -0.65463080
O       -1.91335864      -0.44996838       0.03905079
C       -0.65271520       1.16133549       0.29403931
H        1.80783811       0.45967614      -1.16564539
H        2.17421215      -0.87944755      -0.05439783
H        2.19991250       0.77871368       0.54263171
H       -1.61048211      -0.66644222       0.97006797
H       -0.56671365      -1.92812700      -0.62558172
H       -0.76355898      -0.48514603      -1.68245139
H       -0.65489394       1.71640406       1.22567285
H       -1.23911634       1.55976130      -0.52676501
14
Frame=1 idx=005511 GeodesicLength=0.1011905032575846 rxn_smarts="[C:1]([C:2]1([O:3][H:10])[C:4]([H:11])([H:12])[O:5][C:6]1([H:13])[H:14])([H:7])([H:8])[H:9]>>[C:1]([C@@:2]1([C:4]([O:5][H:10])([H:11])[H:12])[O:3][C:6]1([H:13])[H:14])([H:7])([H:8])[H:9]"
C        1.69012031       0.09620199      -0.14168947
C        0.24351817      -0.05205110       0.25058831
O       -0.02751339      -0.45698750       1.52580178
C       -0.70301534      -0.84677648      -0.66133875
O       -1.91221235      -0.44922277       0.03107297
C       -0.65434043       1.15665865       0.30113076
H        1.80254347       0.45959126      -1.16654801
H        2.17183015      -0.87981667      -0.05544834
H        2.19427250       0.77912841       0.54240106
H       -1.60053500      -0.67685160       0.98305366
H       -0.56773019      -1.92963380      -0.62465723
H       -0.75446208      -0.49335840      -1.69186151
H       -0.65061805       1.72319856       1.22614116
H       -1.23185777       1.56991946      -0.51864638
14
Frame=2 idx=005511 GeodesicLength=0.20222875395542833 rxn_smarts="[C:1]([C:2]1([O:3][H:10])[C:4]([H:11])([H:12])[O:5][C:6]1([H:13])[H:14])([H:7])([H:8])[H:9]>>[C:1]([C@@:2]1([C:4]([O:5][H:10])([H:11])[H:12])[O:3][C:6]1([H:13])[H:14])([H:7])([H:8])[H:9]"
C        1.68691385       0.09556076      -0.14270131
C        0.24129560      -0.05447163       0.24648409
O       -0.03764586      -0.44558219       1.52764517
C       -0.70330488      -0.84806813      -0.66797295
O       -1.91125806      -0.44808216       0.02260627
C       -0.65605703       1.15198418       0.30824408
H        1.79706772       0.45974170      -1.16741526
H        2.16936851      -0.88009815      -0.05673847
H        2.18855859       0.77953573       0.54219015
H       -1.59040318      -0.68749557       0.99637851
H       -0.56899464      -1.93112496      -0.62351551
H       -0.74498441      -0.50196864      -1.70121617
H       -0.64642529       1.72987053       1.22650641
H       -1.22413092       1.58019854      -0.51049500
14
Frame=3 idx=005511 GeodesicLength=0.30316653816030137 rxn_smarts="[C:1]([C:2]1([O:3][H:10])[C:4]([H:11])([H:12])[O:5][C:6]1([H:13])[H:14])([H:7])([H:8])[H:9]>>[C:1]([C@@:2]1([C:4]([O:5][H:10])([H:11])[H:12])[O:3][C:6]1([H:13])[H:14])([H:7])([H:8])[H:9]"
C        1.68357489       0.09500458      -0.14373415
C        0.23895364      -0.05685769       0.24249721
O       -0.04758900      -0.43436849       1.52941942
C       -0.70361924      -0.84936761      -0.67453869
O       -1.91049815      -0.44651225       0.01360303
C       -0.65787255       1.14731510       0.31537818
H        1.79140892       0.46012392      -1.16825205
H        2.16682431      -0.88028776      -0.05826417
H        2.18276674       0.77994417       0.54199129
H       -1.58006239      -0.69840019       1.01006673
H       -0.57052905      -1.93259627      -0.62214321
H       -0.73511227      -0.51100184      -1.71050913
H       -0.64232834       1.73640010       1.22678487
H       -1.21591752       1.59060423      -0.50229934
14
Frame=4 idx=005511 GeodesicLength=0.4040780897309253 rxn_smarts="[C:1]([C:2]1([O:3][H:10])[C:4]([H:11])([H:12])[O:5][C:6]1([H:13])[H:14])([H:7])([H:8])[H:9]>>[C:1]([C@@:2]1([C:4]([O:5][H:10])([H:11])[H:12])[O:3][C:6]1([H:13])[H:14])([H:7])([H:8])[H:9]"
C        1.68010013       0.09453656      -0.14479240
C        0.23648723      -0.05920406       0.23861745
O       -0.05733865      -0.42333872       1.53112937
C       -0.70396025      -0.85067481      -0.68104146
O       -1.90993431      -0.44447265       0.00400672
C       -0.65979573       1.14265422       0.32253146
H        1.78556403       0.46073663      -1.16906331
H        2.16419359      -0.88038160      -0.06002345
H        2.17689146       0.78036199       0.54179732
H       -1.56948088      -0.70959685       1.02414810
H       -0.57236092      -1.93404335      -0.62052365
H       -0.72482705      -0.52048795      -1.71973445
H       -0.63834215       1.74276747       1.22699452
H       -1.20719650       1.60114312      -0.49404622
14
Frame=5 idx=005511 GeodesicLength=0.5049757249501714 rxn_smarts="[C:1]([C:2]1([O:3][H:10])[C:4]([H:11])([H:12])[O:5][C:6]1([H:13])[H:14])([H:7])([H:8])[H:9]>>[C:1]([C@@:2]1([C:4]([O:5][H:10])([H:11])[H:12])[O:3][C:6]1([H:13])[H:14])([H:7])([H:8])[H:9]"
C        1.67648666       0.09415957      -0.14587993
C        0.23389197      -0.06150559       0.23483471
O       -0.06689280      -0.41248530       1.53277830
C       -0.70432878      -0.85198966      -0.68748718
O       -1.90956945      -0.44192332      -0.00623305
C       -0.66183426       1.13800480       0.32970205
H        1.77953084       0.46157738      -1.16985353
H        2.16147240      -0.88037528      -0.06201264
H        2.17092783       0.78079745       0.54160107
H       -1.55862731      -0.72111603       1.03864941
H       -0.57451401      -1.93546325      -0.61864363
H       -0.71411407      -0.53045553      -1.72888486
H       -0.63448068       1.74895418       1.22715274
H       -1.19794835       1.61182057      -0.48572346
14
Frame=6 idx=005511 GeodesicLength=0.6059487201096316 rxn_smarts="[C:1]([C:2]1([O:3][H:10])[C:4]([H:11])([H:12])[O:5][C:6]1([H:13])[H:14])([H:7])([H:8])[H:9]>>[C:1]([C@@:2]1([C:4]([O:5][H:10])([H:11])[H:12])[O:3][C:6]1([H:13])[H:14])([H:7])([H:8])[H:9]"
C        1.67273007       0.09387693      -0.14700159
C        0.23116104      -0.06375634       0.23113815
O       -0.07624988      -0.40179790       1.53437082
C       -0.70472678      -0.85331206      -0.69388233
O       -1.90940140      -0.43881537      -0.01719025
C       -0.66399806       1.13337052       0.33688712
H        1.77330557       0.46264472      -1.17062842
H        2.15865535      -0.88026477      -0.06422959
H        2.16486950       0.78125966       0.54139401
H       -1.54745497      -0.73299928       1.05360819
H       -0.57702609      -1.93684757      -0.61648391
H       -0.70295159      -0.54094279      -1.73794959
H       -0.63076317       1.75494082       1.22728054
H       -1.18814958       1.62264342      -0.47731316
14
Frame=7 idx=005511 GeodesicLength=0.7070096647558356 rxn_smarts="[C:1]([C:2]1([O:3][H:10])[C:4]([H:11])([H:12])[O:5][C:6]1([H:13])[H:14])([H:7])([H:8])[H:9]>>[C:1]([C@@:2]1([C:4]([O:5][H:10])([H:11])[H:12])[O:3][C:6]1([H:13])[H:14])([H:7])([H:8])[H:9]"
C        1.66882550       0.09369214      -0.14816193
C        0.22828822      -0.06595155       0.22751788
O       -0.08540478      -0.39126665       1.53590989
C       -0.70515607      -0.85464236      -0.70023341
O       -1.90942918      -0.43509707      -0.02893371
C       -0.66629671       1.12875335       0.34408497
H        1.76688306       0.46393810      -1.17139230
H        2.15573617      -0.88004527      -0.06667333
H        2.15870920       0.78175762       0.54116824
H       -1.53591991      -0.74528538       1.06905693
H       -0.57993296      -1.93819043      -0.61402405
H       -0.69131691      -0.55198812      -1.74691949
H       -0.62720816       1.76070821       1.22740009
H       -1.17777748       1.63361742      -0.46879977
14
Frame=8 idx=005511 GeodesicLength=0.8081923723854529 rxn_smarts="[C:1]([C:2]1([O:3][H:10])[C:4]([H:11])([H:12])[O:5][C:6]1([H:13])[H:14])([H:7])([H:8])[H:9]>>[C:1]([C@@:2]1([C:4]([O:5][H:10])([H:11])[H:12])[O:3][C:6]1([H:13])[H:14])([H:7])([H:8])[H:9]"
C        1.66476833       0.09360884      -0.14936538
C        0.22526608      -0.06808522       0.22396299
O       -0.09435842      -0.38088095       1.53739897
C       -0.70561788      -0.85598083      -0.70654809
O       -1.90964854      -0.43071159      -0.04154441
C       -0.66874055       1.12415673       0.35129219
H        1.76025977       0.46545777      -1.17215071
H        2.15270978      -0.87971275      -0.06934229
H        2.15243985       0.78230045       0.54091611
H       -1.52396455      -0.75802168       1.08503452
H       -0.58327843      -1.93948226      -0.61124437
H       -0.67918983      -0.56363567      -1.75577819
H       -0.62383737       1.76623875       1.22753317
H       -1.16680823       1.64474841      -0.46016450
14
Frame=9 idx=005511 GeodesicLength=0.9095267241055704 rxn_smarts="[C:1]([C:2]1([O:3][H:10])[C:4]([H:11])([H:12])[O:5][C:6]1([H:13])[H:14])([H:7])([H:8])[H:9]>>[C:1]([C@@:2]1([C:4]([O:5][H:10])([H:11])[H:12])[O:3][C:6]1([H:13])[H:14])([H:7])([H:8])[H:9]"
C        1.66055155       0.09362904      -0.15061440
C        0.22208514      -0.07015013       0.22046302
O       -0.10310846      -0.37063222       1.53883960
C       -0.70611787      -0.85732441      -0.71283292
O       -1.91005561      -0.42559624      -0.05510063
C       -0.67133788       1.11958801       0.35850759
H        1.75343165       0.46720254      -1.17290585
H        2.14956498      -0.87926574      -0.07223441
H        2.14605375       0.78289217       0.54063408
H       -1.51150874      -0.77126474       1.10159027
H       -0.58710778      -1.94071254      -0.60812695
H       -0.66654494      -0.57592605      -1.76451275
H       -0.62068020       1.77151110       1.22769571
H       -1.15522557       1.65604921      -0.45140237
14
Frame=10 idx=005511 GeodesicLength=1.010977705322933 rxn_smarts="[C:1]([C:2]1([O:3][H:10])[C:4]([H:11])([H:12])[O:5][C:6]1([H:13])[H:14])([H:7])([H:8])[H:9]>>[C:1]([C@@:2]1([C:4]([O:5][H:10])([H:11])[H:12])[O:3][C:6]1([H:13])[H:14])([H:7])([H:8])[H:9]"
C        1.65616947       0.09375796      -0.15191597
C        0.21873802      -0.07214209       0.21700730
O       -0.11165664      -0.36050346       1.54023465
C       -0.70665564      -0.85867626      -0.71909574
O       -1.91063961      -0.41968260      -0.06970669
C       -0.67410270       1.11504671       0.36572464
H        1.74639087       0.46917091      -1.17366641
H        2.14629680      -0.87869667      -0.07534774
H        2.13954095       0.78354881       0.54030775
H       -1.49849478      -0.78506109       1.11875501
H       -0.59147455      -1.94187104      -0.60464484
H       -0.65335689      -0.58891835      -1.77310141
H       -0.61775697       1.77650998       1.22792170
H       -1.14299835       1.66751718      -0.44247225
14
Frame=11 idx=005511 GeodesicLength=1.1125427220564335 rxn_smarts="[C:1]([C:2]1([O:3][H:10])[C:4]([H:11])([H:12])[O:5][C:6]1([H:13])[H:14])([H:7])([H:8])[H:9]>>[C:1]([C@@:2]1([C:4]([O:5][H:10])([H:11])[H:12])[O:3][C:6]1([H:13])[H:14])([H:7])([H:8])[H:9]"
C        1.65161427       0.09399925      -0.15327387
C        0.21521388      -0.07405454       0.21358429
O       -0.12000659      -0.35048079       1.54158290
C       -0.70723419      -0.86003578      -0.72534651
O       -1.91139280      -0.41289139      -0.08546573
C       -0.67704746       1.11053823       0.37293664
H        1.73913165       0.47136123      -1.17443667
H        2.14289504      -0.87800086      -0.07867878
H        2.13289110       0.78428048       0.53992908
H       -1.48482908      -0.79947525       1.13657726
H       -0.59643830      -1.94294640      -0.60077354
H       -0.63959839      -0.60266888      -1.78152293
H       -0.61509719       1.78121763       1.22823640
H       -1.13010192       1.67915708      -0.43334854
14
Frame=12 idx=005511 GeodesicLength=1.2142059434993326 rxn_smarts="[C:1]([C:2]1([O:3][H:10])[C:4]([H:11])([H:12])[O:5][C:6]1([H:13])[H:14])([H:7])([H:8])[H:9]>>[C:1]([C@@:2]1([C:4]([O:5][H:10])([H:11])[H:12])[O:3][C:6]1([H:13])[H:14])([H:7])([H:8])[H:9]"
C        1.64687673       0.09435800      -0.15469326
C        0.21150115      -0.07588112       0.21018252
O       -0.12816017      -0.34054947       1.54288462
C       -0.70785715      -0.86140292      -0.73159489
O       -1.91229385      -0.40513583      -0.10250252
C       -0.68018752       1.10606480       0.38013835
H        1.73164483       0.47377434      -1.17522247
H        2.13934827      -0.87717320      -0.08222721
H        2.12609113       0.78509908       0.53948903
H       -1.47040938      -0.81457564       1.15510668
H       -0.60207366      -1.94391982      -0.59648297
H       -0.62523834      -0.61724858      -1.78974720
H       -0.61273507       1.78561488       1.22867164
H       -1.11650696       1.69097548      -0.42400230
14
Frame=13 idx=005511 GeodesicLength=1.3158909226221207 rxn_smarts="[C:1]([C:2]1([O:3][H:10])[C:4]([H:11])([H:12])[O:5][C:6]1([H:13])[H:14])([H:7])([H:8])[H:9]>>[C:1]([C@@:2]1([C:4]([O:5][H:10])([H:11])[H:12])[O:3][C:6]1([H:13])[H:14])([H:7])([H:8])[H:9]"
C        1.64194778       0.09483783      -0.15617801
C        0.20758776      -0.07761523       0.20679129
O       -0.13612392      -0.33069414       1.54413849
C       -0.70852926      -0.86277638      -0.73784979
O       -1.91332342      -0.39632423      -0.12093772
C       -0.68353699       1.10163138       0.38732278
H        1.72392238       0.47640831      -1.17602884
H        2.13564476      -0.87620992      -0.08598959
H        2.11912853       0.78601519       0.53897939
H       -1.45512125      -0.83043251       1.17438916
H       -0.60845170      -1.94477643      -0.59174707
H       -0.61024821      -0.63272467      -1.79774296
H       -0.61070415       1.78968550       1.22925682
H       -1.10219231       1.70297529      -0.41440396
14
Frame=14 idx=005511 GeodesicLength=1.4175646616219884 rxn_smarts="[C:1]([C:2]1([O:3][H:10])[C:4]([H:11])([H:12])[O:5][C:6]1([H:13])[H:14])([H:7])([H:8])[H:9]>>[C:1]([C@@:2]1([C:4]([O:5][H:10])([H:11])[H:12])[O:3][C:6]1([H:13])[H:14])([H:7])([H:8])[H:9]"
C        1.63681559       0.09544370      -0.15773200
C        0.20345861      -0.07924979       0.20339806
O       -0.14390632      -0.32089843       1.54534275
C       -0.70925540      -0.86415540      -0.74412390
O       -1.91444889      -0.38634943      -0.14092143
C       -0.68711556       1.09724140       0.39448218
H        1.71595413       0.47926284      -1.17686087
H        2.13176947      -0.87510605      -0.08996299
H        2.11198686       0.78704180       0.53839168
H       -1.43881955      -0.84713080       1.19448353
H       -0.61566980      -1.94548973      -0.58653313
H       -0.59459388      -0.64918095      -1.80546993
H       -0.60904680       1.79341098       1.23002307
H       -1.08712846       1.71515986      -0.40451703
14
Frame=15 idx=005511 GeodesicLength=1.5191431377026434 rxn_smarts="[C:1]([C:2]1([O:3][H:10])[C:4]([H:11])([H:12])[O:5][C:6]1([H:13])[H:14])([H:7])([H:8])[H:9]>>[C:1]([C@@:2]1([C:4]([O:5][H:10])([H:11])[H:12])[O:3][C:6]1([H:13])[H:14])([H:7])([H:8])[H:9]"
C        1.63146817       0.09617987      -0.15935787
C        0.19909759      -0.08077700       0.19998995
O       -0.15152197      -0.31114744       1.54649321
C       -0.71004181      -0.86553821      -0.75043005
O       -1.91563416      -0.37509948      -0.16260488
C       -0.69094306       1.09289966       0.40160629
H        1.70773061       0.48233595      -1.17772240
H        2.12770661      -0.87385803      -0.09414190
H        2.10464843       0.78819039       0.53772012
H       -1.42133917      -0.86475797       1.21544750
H       -0.62382787      -1.94603241      -0.58081161
H       -0.57824561      -0.66670176      -1.81288261
H       -0.60780645       1.79677572       1.23100155
H       -1.07129130       1.72753070      -0.39430730
14
Frame=16 idx=005511 GeodesicLength=1.6205377335444877 rxn_smarts="[C:1]([C:2]1([O:3][H:10])[C:4]([H:11])([H:12])[O:5][C:6]1([H:13])[H:14])([H:7])([H:8])[H:9]>>[C:1]([C@@:2]1([C:4]([O:5][H:10])([H:11])[H:12])[O:3][C:6]1([H:13])[H:14])([H:7])([H:8])[H:9]"
C        1.62589151       0.09705070      -0.16105799
C        0.19448653      -0.08218909       0.19655429
O       -0.15898894      -0.30142594       1.54758515
C       -0.71089692      -0.86692182      -0.75678140
O       -1.91682964      -0.36244972      -0.18616225
C       -0.69504221       1.08861131       0.40868476
H        1.69924047       0.48562607      -1.17861773
H        2.12343731      -0.87246284      -0.09852107
H        2.09709297       0.78947288       0.53695907
H       -1.40248622      -0.88340813       1.23734232
H       -0.63304400      -1.94636999      -0.57455008
H       -0.56116962      -0.68538450      -1.81992509
H       -0.60703271       1.79976233       1.23222623
H       -1.05465853       1.74008874      -0.38373620
