16
Frame=0 idx=000752 GeodesicLength=0.0 rxn_smarts="[C:1]([C@@:2]([O:3][H:11])([C:4]1([H:12])[C:5]([H:13])([H:14])[C:6]1([H:15])[H:16])[H:10])([H:7])([H:8])[H:9]>>[C:1]([C@@:2]([O:3][H:11])([C:4][C:5]([C:6]([H:12])([H:15])[H:16])([H:13])[H:14])[H:10])([H:7])([H:8])[H:9]"
C       -1.97232571      -0.36378850       0.06586939
C       -0.71723048       0.33208697      -0.45794491
O       -0.99595959       1.65774301      -0.87241691
C        0.29070158       0.31403566       0.66608325
C        1.12267691      -0.90230459       0.67204156
C        1.94933826       0.10129437      -0.11760789
H       -2.31152252       0.10557184       0.99174543
H       -1.79185240      -1.42247957       0.26251578
H       -2.76341686      -0.27527974      -0.67889325
H       -0.38475168      -0.18650296      -1.36889943
H       -1.00971031       2.19142635      -0.07148770
H        1.34563293       1.10782483       0.05451114
H        1.55444509      -1.21243357       1.61807767
H        0.79902575      -1.75011281       0.06760778
H        2.00107554      -0.08400303      -1.18481753
H        2.88387348       0.38692170       0.35361563
16
Frame=1 idx=000752 GeodesicLength=0.060039505200504995 rxn_smarts="[C:1]([C@@:2]([O:3][H:11])([C:4]1([H:12])[C:5]([H:13])([H:14])[C:6]1([H:15])[H:16])[H:10])([H:7])([H:8])[H:9]>>[C:1]([C@@:2]([O:3][H:11])([C:4][C:5]([C:6]([H:12])([H:15])[H:16])([H:13])[H:14])[H:10])([H:7])([H:8])[H:9]"
C       -1.97460609      -0.36709781       0.07031673
C       -0.72358148       0.33055373      -0.46239461
O       -1.01393984       1.65159102      -0.88184367
C        0.28837089       0.31306941       0.65459472
C        1.12195567      -0.90242267       0.66626236
C        1.95372953       0.10458663      -0.11345151
H       -2.30788390       0.10210057       0.99842709
H       -1.79272899      -1.42597681       0.26413477
H       -2.77115065      -0.27906897      -0.66864614
H       -0.39319229      -0.19218075      -1.37189445
H       -0.99008743       2.20015190      -0.09164738
H        1.35662860       1.12642471       0.08791744
H        1.54464539      -1.21030730       1.61714210
H        0.80284416      -1.74965310       0.05871935
H        2.00279297      -0.06876561      -1.18299630
H        2.89620345       0.36699504       0.35535948
16
Frame=2 idx=000752 GeodesicLength=0.12007889705329278 rxn_smarts="[C:1]([C@@:2]([O:3][H:11])([C:4]1([H:12])[C:5]([H:13])([H:14])[C:6]1([H:15])[H:16])[H:10])([H:7])([H:8])[H:9]>>[C:1]([C@@:2]([O:3][H:11])([C:4][C:5]([C:6]([H:12])([H:15])[H:16])([H:13])[H:14])[H:10])([H:7])([H:8])[H:9]"
C       -1.97691084      -0.37036920       0.07503177
C       -0.73008332       0.32888263      -0.46691372
O       -1.03203683       1.64526018      -0.89112438
C        0.28609459       0.31211561       0.64284891
C        1.12126781      -0.90257130       0.66015147
C        1.95810608       0.10818161      -0.10914784
H       -2.30403403       0.09886432       1.00532243
H       -1.79365207      -1.42941115       0.26614766
H       -2.77900505      -0.28289151      -0.65795095
H       -0.40192245      -0.19804655      -1.37495776
H       -0.96948040       2.20862926      -0.11393487
H        1.36739315       1.14423398       0.12372935
H        1.53471802      -1.20843352       1.61575778
H        0.80688505      -1.74907127       0.04923373
H        2.00450491      -0.05258139      -1.18098436
H        2.90815538       0.34720828       0.35679078
16
Frame=3 idx=000752 GeodesicLength=0.1800461739639647 rxn_smarts="[C:1]([C@@:2]([O:3][H:11])([C:4]1([H:12])[C:5]([H:13])([H:14])[C:6]1([H:15])[H:16])[H:10])([H:7])([H:8])[H:9]>>[C:1]([C@@:2]([O:3][H:11])([C:4][C:5]([C:6]([H:12])([H:15])[H:16])([H:13])[H:14])[H:10])([H:7])([H:8])[H:9]"
C       -1.97919249      -0.37359591       0.08003069
C       -0.73673485       0.32709405      -0.47149947
O       -1.05028135       1.63877989      -0.90020265
C        0.28388301       0.31119809       0.63082272
C        1.12059265      -0.90273207       0.65369633
C        1.96243664       0.11208861      -0.10469068
H       -2.29990099       0.09583515       1.01245319
H       -1.79456425      -1.43276972       0.26855266
H       -2.78693357      -0.28672640      -0.64676972
H       -0.41095304      -0.20404274      -1.37809242
H       -0.94780196       2.21676180      -0.13851154
H        1.37782913       1.16107435       0.16200260
H        1.52462937      -1.20681756       1.61390773
H        0.81113099      -1.74832224       0.03913936
H        2.00619571      -0.03544889      -1.17874520
H        2.91966499       0.32762358       0.35790639
16
Frame=4 idx=000752 GeodesicLength=0.2400335454797967 rxn_smarts="[C:1]([C@@:2]([O:3][H:11])([C:4]1([H:12])[C:5]([H:13])([H:14])[C:6]1([H:15])[H:16])[H:10])([H:7])([H:8])[H:9]>>[C:1]([C@@:2]([O:3][H:11])([C:4][C:5]([C:6]([H:12])([H:15])[H:16])([H:13])[H:14])[H:10])([H:7])([H:8])[H:9]"
C       -1.98148773      -0.37676408       0.08535798
C       -0.74356153       0.32517571      -0.47614779
O       -1.06870010       1.63215867      -0.90906314
C        0.28173975       0.31032683       0.61851252
C        1.11995385      -0.90291477       0.64683975
C        1.96675318       0.11636002      -0.10004834
H       -2.29549260       0.09305929       1.01987135
H       -1.79550679      -1.43605254       0.27139582
H       -2.79500541      -0.29055723      -0.63503076
H       -0.42032079      -0.21020748      -1.38130176
H       -0.92492916       2.22448793      -0.16565099
H        1.38785169       1.17679554       0.20288750
H        1.51438092      -1.20552127       1.61153047
H        0.81563095      -1.74740189       0.02832132
H        2.00793340      -0.01727750      -1.17623804
H        2.93076037       0.30833278       0.35876412
16
Frame=5 idx=000752 GeodesicLength=0.2999700639735926 rxn_smarts="[C:1]([C@@:2]([O:3][H:11])([C:4]1([H:12])[C:5]([H:13])([H:14])[C:6]1([H:15])[H:16])[H:10])([H:7])([H:8])[H:9]>>[C:1]([C@@:2]([O:3][H:11])([C:4][C:5]([C:6]([H:12])([H:15])[H:16])([H:13])[H:14])[H:10])([H:7])([H:8])[H:9]"
C       -1.98376195      -0.37985939       0.09103020
C       -0.75055056       0.32315111      -0.48083655
O       -1.08726108       1.62544009      -0.91760904
C        0.27968099       0.30953529       0.60591041
C        1.11933649      -0.90309318       0.63956767
C        1.97103841       0.12100738      -0.09522190
H       -2.29076774       0.09051826       1.02759397
H       -1.79644307      -1.43923839       0.27467060
H       -2.80317021      -0.29434954      -0.62270541
H       -0.43001905      -0.21647901      -1.38457331
H       -0.90088947       2.23167161      -0.19553567
H        1.39735637       1.19118580       0.24642126
H        1.50395642      -1.20454227       1.60859229
H        0.82036300      -1.74625989       0.01677408
H        2.00972468       0.00190911      -1.17342686
H        2.94140678       0.28940303       0.35934827
16
Frame=6 idx=000752 GeodesicLength=0.3598853443811136 rxn_smarts="[C:1]([C@@:2]([O:3][H:11])([C:4]1([H:12])[C:5]([H:13])([H:14])[C:6]1([H:15])[H:16])[H:10])([H:7])([H:8])[H:9]>>[C:1]([C@@:2]([O:3][H:11])([C:4][C:5]([C:6]([H:12])([H:15])[H:16])([H:13])[H:14])[H:10])([H:7])([H:8])[H:9]"
C       -1.98601722      -0.38286491       0.09709119
C       -0.75773036       0.32102907      -0.48555368
O       -1.10602174       1.61866752      -0.92575947
C        0.27771317       0.30883332       0.59301168
C        1.11875483      -0.90327115       0.63182792
C        1.97529698       0.12607555      -0.09016660
H       -2.28569371       0.08823273       1.03566976
H       -1.79736589      -1.44231461       0.27842195
H       -2.81145547      -0.29808603      -0.60972562
H       -0.44009828      -0.22283324      -1.38791085
H       -0.87548539       2.23817522      -0.22849177
H        1.40619062       1.20404243       0.29265986
H        1.49335077      -1.20395082       1.60503353
H        0.82536599      -1.74486361       0.00438885
H        2.01161087       0.02217200      -1.17024622
H        2.95158483       0.27095652       0.35974946
16
Frame=7 idx=000752 GeodesicLength=0.41981143617439104 rxn_smarts="[C:1]([C@@:2]([O:3][H:11])([C:4]1([H:12])[C:5]([H:13])([H:14])[C:6]1([H:15])[H:16])[H:10])([H:7])([H:8])[H:9]>>[C:1]([C@@:2]([O:3][H:11])([C:4][C:5]([C:6]([H:12])([H:15])[H:16])([H:13])[H:14])[H:10])([H:7])([H:8])[H:9]"
C       -1.98824707      -0.38577521       0.10355210
C       -0.76509710       0.31885257      -0.49027385
O       -1.12496643       1.61195371      -0.93335443
C        0.27586183       0.30828981       0.57981814
C        1.11820832      -0.90342483       0.62362010
C        1.97955858       0.13156116      -0.08487945
H       -2.28025628       0.08616382       1.04414569
H       -1.79826052      -1.44529853       0.28258722
H       -2.81986319      -0.30171537      -0.59605482
H       -0.45054504      -0.22919505      -1.39132420
H       -0.84879649       2.24384945      -0.26470639
H        1.41424512       1.21516607       0.34152669
H        1.48255298      -1.20373351       1.60084715
H        0.83062039      -1.74319687      -0.00882851
H        2.01366867       0.04341022      -1.16666490
H        2.96131623       0.25309255       0.35998947
16
Frame=8 idx=000752 GeodesicLength=0.47953369458610345 rxn_smarts="[C:1]([C@@:2]([O:3][H:11])([C:4]1([H:12])[C:5]([H:13])([H:14])[C:6]1([H:15])[H:16])[H:10])([H:7])([H:8])[H:9]>>[C:1]([C@@:2]([O:3][H:11])([C:4][C:5]([C:6]([H:12])([H:15])[H:16])([H:13])[H:14])[H:10])([H:7])([H:8])[H:9]"
C       -1.99034323      -0.38855015       0.11043252
C       -0.77262519       0.31665807      -0.49495842
O       -1.14403329       1.60536167      -0.94023936
C        0.27414796       0.30790138       0.56634301
C        1.11768088      -0.90352952       0.61492995
C        1.98374019       0.13747441      -0.07933258
H       -2.27430530       0.08427623       1.05303928
H       -1.79901738      -1.44812073       0.28716201
H       -2.82825628      -0.30514183      -0.58166611
H       -0.46137553      -0.23543732      -1.39479104
H       -0.82085890       2.24841213      -0.30445095
H        1.42128563       1.22428854       0.39291033
H        1.47155353      -1.20393094       1.59599615
H        0.83609651      -1.74115929      -0.02289020
H        2.01583625       0.06559543      -1.16261768
H        2.97047415       0.23590192       0.36013309
16
Frame=9 idx=000752 GeodesicLength=0.5392735467051862 rxn_smarts="[C:1]([C@@:2]([O:3][H:11])([C:4]1([H:12])[C:5]([H:13])([H:14])[C:6]1([H:15])[H:16])[H:10])([H:7])([H:8])[H:9]>>[C:1]([C@@:2]([O:3][H:11])([C:4][C:5]([C:6]([H:12])([H:15])[H:16])([H:13])[H:14])[H:10])([H:7])([H:8])[H:9]"
C       -1.99238867      -0.39116943       0.11778554
C       -0.78033328       0.31444764      -0.49957577
O       -1.16314570       1.59900384      -0.94631426
C        0.27258983       0.30770853       0.55261705
C        1.11722221      -0.90360716       0.60570141
C        1.98793233       0.14387822      -0.07346919
H       -2.26789278       0.08261889       1.06243004
H       -1.79974058      -1.45081518       0.29216175
H       -2.83676274      -0.30828989      -0.56646936
H       -0.47261796      -0.24160227      -1.39830232
H       -0.79175351       2.25168837      -0.34811378
H        1.42720101       1.23126444       0.44683273
H        1.46037738      -1.20464194       1.59040916
H        0.84186885      -1.73877710      -0.03792759
H        2.01825273       0.08881367      -1.15804187
H        2.97919085       0.21947937       0.36027646
16
Frame=10 idx=000752 GeodesicLength=0.5988058430889287 rxn_smarts="[C:1]([C@@:2]([O:3][H:11])([C:4]1([H:12])[C:5]([H:13])([H:14])[C:6]1([H:15])[H:16])[H:10])([H:7])([H:8])[H:9]>>[C:1]([C@@:2]([O:3][H:11])([C:4][C:5]([C:6]([H:12])([H:15])[H:16])([H:13])[H:14])[H:10])([H:7])([H:8])[H:9]"
C       -1.99428125      -0.39360577       0.12561353
C       -0.78817638       0.31228686      -0.50407652
O       -1.18220628       1.59300638      -0.95127921
C        0.27119916       0.30774809       0.53864053
C        1.11677696      -0.90359084       0.59594245
C        1.99209341       0.15072042      -0.06728363
H       -2.26090612       0.08107057       1.07235962
H       -1.80032844      -1.45331932       0.29747482
H       -2.84523966      -0.31104807      -0.55041873
H       -0.48421868      -0.24749314      -1.40185135
H       -0.76156518       2.25324308      -0.39582344
H        1.43174901       1.23585516       0.50289781
H        1.44893091      -1.20580096       1.58406956
H        0.84786594      -1.73592290      -0.05389902
H        2.02096338       0.11287110      -1.15288316
H        2.98734323       0.20397935       0.36051674
16
Frame=11 idx=000752 GeodesicLength=0.6582681229589027 rxn_smarts="[C:1]([C@@:2]([O:3][H:11])([C:4]1([H:12])[C:5]([H:13])([H:14])[C:6]1([H:15])[H:16])[H:10])([H:7])([H:8])[H:9]>>[C:1]([C@@:2]([O:3][H:11])([C:4][C:5]([C:6]([H:12])([H:15])[H:16])([H:13])[H:14])[H:10])([H:7])([H:8])[H:9]"
C       -1.99603601      -0.39581363       0.13393158
C       -0.79615543       0.31020818      -0.50842891
O       -1.20108765       1.58754980      -0.95500756
C        0.27002600       0.30804938       0.52446381
C        1.11641475      -0.90351267       0.58564642
C        1.99627548       0.15801621      -0.06071207
H       -2.25329640       0.07966392       1.08287283
H       -1.80081470      -1.45564300       0.30307142
H       -2.85373573      -0.31326898      -0.53349543
H       -0.49622787      -0.25308693      -1.40543674
H       -0.73065398       2.25282268      -0.44787543
H        1.43478772       1.23794613       0.56095930
H        1.43730898      -1.20751778       1.57696426
H        0.85413875      -1.73262395      -0.07085474
H        2.02402272       0.13776723      -1.14707848
H        2.99503339       0.18944341       0.36097975
16
Frame=12 idx=000752 GeodesicLength=0.7176256038965348 rxn_smarts="[C:1]([C@@:2]([O:3][H:11])([C:4]1([H:12])[C:5]([H:13])([H:14])[C:6]1([H:15])[H:16])[H:10])([H:7])([H:8])[H:9]>>[C:1]([C@@:2]([O:3][H:11])([C:4][C:5]([C:6]([H:12])([H:15])[H:16])([H:13])[H:14])[H:10])([H:7])([H:8])[H:9]"
C       -1.99760721      -0.39772820       0.14275296
C       -0.80421277       0.30823710      -0.51258965
O       -1.21955281       1.58275070      -0.95733273
C        0.26910023       0.30863040       0.51011553
C        1.11614557      -0.90335109       0.57479555
C        2.00049202       0.16575073      -0.05371195
H       -2.24498854       0.07840393       1.09400058
H       -1.80119275      -1.45771990       0.30890220
H       -2.86217786      -0.31477809      -0.51566186
H       -0.50860415      -0.25832726      -1.40903145
H       -0.69949016       2.25002012      -0.50441440
H        1.43612873       1.23739084       0.62074592
H        1.42548797      -1.20982072       1.56904763
H        0.86070182      -1.72881260      -0.08882458
H        2.02749820       0.16345592      -1.14056193
H        3.00227170       0.17589811       0.36176819
16
Frame=13 idx=000752 GeodesicLength=0.7767823559760325 rxn_smarts="[C:1]([C@@:2]([O:3][H:11])([C:4]1([H:12])[C:5]([H:13])([H:14])[C:6]1([H:15])[H:16])[H:10])([H:7])([H:8])[H:9]>>[C:1]([C@@:2]([O:3][H:11])([C:4][C:5]([C:6]([H:12])([H:15])[H:16])([H:13])[H:14])[H:10])([H:7])([H:8])[H:9]"
C       -1.99890785      -0.39927739       0.15198857
C       -0.81224652       0.30644664      -0.51658536
O       -1.23729307       1.57880310      -0.95820019
C        0.26851249       0.30957247       0.49556821
C        1.11597648      -0.90306960       0.56349168
C        2.00481182       0.17376844      -0.04631565
H       -2.23586508       0.07726395       1.10569242
H       -1.80142206      -1.45949674       0.31479183
H       -2.87045380      -0.31536492      -0.49700057
H       -0.52124752      -0.26312553      -1.41266757
H       -0.66914464       2.24452355      -0.56484524
H        1.43570314       1.23414936       0.68163268
H        1.41346747      -1.21258368       1.56043976
H        0.86748679      -1.72449368      -0.10759965
H        2.03150690       0.18954488      -1.13335134
H        3.00911544       0.16333914       0.36296043
16
Frame=14 idx=000752 GeodesicLength=0.8357901420160673 rxn_smarts="[C:1]([C@@:2]([O:3][H:11])([C:4]1([H:12])[C:5]([H:13])([H:14])[C:6]1([H:15])[H:16])[H:10])([H:7])([H:8])[H:9]>>[C:1]([C@@:2]([O:3][H:11])([C:4][C:5]([C:6]([H:12])([H:15])[H:16])([H:13])[H:14])[H:10])([H:7])([H:8])[H:9]"
C       -1.99989318      -0.40037914       0.16161269
C       -0.82017770       0.30485260      -0.52042917
O       -1.25405733       1.57577601      -0.95765960
C        0.26832460       0.31090653       0.48080542
C        1.11593959      -0.90266049       0.55174638
C        2.00930009       0.18200706      -0.03849580
H       -2.22585244       0.07632504       1.11791110
H       -1.80151015      -1.46089899       0.32071223
H       -2.87849448      -0.31487260      -0.47753618
H       -0.53409773      -0.26751011      -1.41633537
H       -0.64046638       2.23612638      -0.62887925
H        1.43342260       1.22817875       0.74331428
H        1.40123537      -1.21580465       1.55114734
H        0.87452088      -1.71965749      -0.12714852
H        2.03615248       0.21593761      -1.12541319
H        3.01565378       0.15167350       0.36464764
16
Frame=15 idx=000752 GeodesicLength=0.8946340674118287 rxn_smarts="[C:1]([C@@:2]([O:3][H:11])([C:4]1([H:12])[C:5]([H:13])([H:14])[C:6]1([H:15])[H:16])[H:10])([H:7])([H:8])[H:9]>>[C:1]([C@@:2]([O:3][H:11])([C:4][C:5]([C:6]([H:12])([H:15])[H:16])([H:13])[H:14])[H:10])([H:7])([H:8])[H:9]"
C       -2.00047818      -0.40093974       0.17153201
C       -0.82788737       0.30348011      -0.52420794
O       -1.26957964       1.57369186      -0.95597997
C        0.26863415       0.31269745       0.46574345
C        1.11605434      -0.90210232       0.53963990
C        2.01405146       0.19030934      -0.03028740
H       -2.21485108       0.07570155       1.13053523
H       -1.80143032      -1.46183556       0.32660600
H       -2.88618174      -0.31316468      -0.45737730
H       -0.54703752      -0.27154644      -1.42006306
H       -0.61468702       2.22483128      -0.69553581
H        1.42927672       1.21949675       0.80529587
H        1.38876700      -1.21936257       1.54127770
H        0.88178381      -1.71434103      -0.14728772
H        2.04157779       0.24231004      -1.11678428
H        3.02198760       0.14077395       0.36689332
16
Frame=16 idx=000752 GeodesicLength=0.953351586139764 rxn_smarts="[C:1]([C@@:2]([O:3][H:11])([C:4]1([H:12])[C:5]([H:13])([H:14])[C:6]1([H:15])[H:16])[H:10])([H:7])([H:8])[H:9]>>[C:1]([C@@:2]([O:3][H:11])([C:4][C:5]([C:6]([H:12])([H:15])[H:16])([H:13])[H:14])[H:10])([H:7])([H:8])[H:9]"
C       -2.00058751      -0.40087665       0.18168512
C       -0.83527687       0.30232893      -0.52801468
O       -1.28370813       1.57247398      -0.95353445
C        0.26951939       0.31498950       0.45028514
C        1.11633681      -0.90138404       0.52721125
C        2.01914686       0.19855720      -0.02170692
H       -2.20278074       0.07555440       1.14344346
H       -1.80115358      -1.46221500       0.33250790
H       -2.89340992      -0.31018806      -0.43660308
H       -0.55997264      -0.27535600      -1.42386635
H       -0.59276618       2.21081053      -0.76390253
H        1.42323057       1.20811429       0.86723520
H        1.37601193      -1.22318123       1.53088881
H        0.88928751      -1.70857641      -0.16791021
H        2.04791678       0.26845711      -1.10748807
H        3.02820574       0.13049148       0.36976942
