12
Frame=0 idx=010752 GeodesicLength=0.0 rxn_smarts="[N:1]([c:2]1[c:3]([H:10])[o:4][n:5][c:6]1[N:7]([H:11])[H:12])([H:8])[H:9]>>[N-:1]([C:2]1=[C:3]([H:10])[O+:4]=[N:5][C@@:6]1([N:7]([H:11])[H:12])[H:8])[H:9]"
N        0.13701839       1.72777196      -0.70925842
C        0.42010950       0.57507285      -0.27311887
C        1.57201595      -0.17861134       0.20203721
O        1.30603473      -1.47792521       0.17406561
N       -0.02133155      -1.70075232       0.13411469
C       -0.57044860      -0.47287015       0.14925022
N       -1.92534115      -0.26353587       0.12065411
H        0.18984384      -0.05546923       1.24199825
H        0.95092615       2.32939708      -0.78240017
H        2.62324307       0.07138175       0.19517386
H       -2.19377755       0.53156885      -0.43809063
H       -2.48829279      -1.08602840      -0.01442587
12
Frame=1 idx=010752 GeodesicLength=0.10730654337764964 rxn_smarts="[N:1]([c:2]1[c:3]([H:10])[o:4][n:5][c:6]1[N:7]([H:11])[H:12])([H:8])[H:9]>>[N-:1]([C:2]1=[C:3]([H:10])[O+:4]=[N:5][C@@:6]1([N:7]([H:11])[H:12])[H:8])[H:9]"
N        0.13658588       1.75256984      -0.61110166
C        0.42727042       0.55074291      -0.32173620
C        1.57874494      -0.18982716       0.16483007
O        1.30257825      -1.48622633       0.19758312
N       -0.02598055      -1.70205955       0.18183408
C       -0.57018525      -0.47022309       0.14685136
N       -1.92706194      -0.26526191       0.10170307
H        0.17245068       0.02122652       1.23669276
H        0.95713045       2.33621191      -0.73509265
H        2.63166033       0.05090763       0.13400874
H       -2.19427227       0.49619182      -0.50267796
H       -2.48892094      -1.09425259       0.00710526
12
Frame=2 idx=010752 GeodesicLength=0.21620029085552614 rxn_smarts="[N:1]([c:2]1[c:3]([H:10])[o:4][n:5][c:6]1[N:7]([H:11])[H:12])([H:8])[H:9]>>[N-:1]([C:2]1=[C:3]([H:10])[O+:4]=[N:5][C@@:6]1([N:7]([H:11])[H:12])[H:8])[H:9]"
N        0.14147441       1.76426317      -0.52588042
C        0.43230586       0.53359471      -0.35585761
C        1.58435418      -0.19990612       0.13076304
O        1.29981341      -1.49163884       0.21277405
N       -0.02948766      -1.70034964       0.22141095
C       -0.56975398      -0.46644001       0.14750048
N       -1.92840340      -0.26616421       0.08447104
H        0.15337394       0.09166771       1.23456842
H        0.95923291       2.34061682      -0.69351226
H        2.63830714       0.03217121       0.07876640
H       -2.19209356       0.46160666      -0.56156677
H       -2.48912325      -1.09942146       0.02656269
12
Frame=3 idx=010752 GeodesicLength=0.3258091008978431 rxn_smarts="[N:1]([c:2]1[c:3]([H:10])[o:4][n:5][c:6]1[N:7]([H:11])[H:12])([H:8])[H:9]>>[N-:1]([C:2]1=[C:3]([H:10])[O+:4]=[N:5][C@@:6]1([N:7]([H:11])[H:12])[H:8])[H:9]"
N        0.14888864       1.76812922      -0.45353250
C        0.43615669       0.52069851      -0.38058832
C        1.58928131      -0.20953746       0.09872069
O        1.29763235      -1.49566084       0.22217836
N       -0.03200442      -1.69690102       0.25587770
C       -0.56921035      -0.46194179       0.15065017
N       -1.92941682      -0.26677402       0.06869263
H        0.13220552       0.15878628       1.23460936
H        0.95978736       2.34384960      -0.65283828
H        2.64371374       0.01458644       0.02736627
H       -2.18804382       0.42731118      -0.61537476
H       -2.48899019      -1.10254611       0.04423866
12
Frame=4 idx=010752 GeodesicLength=0.4358421911145991 rxn_smarts="[N:1]([c:2]1[c:3]([H:10])[o:4][n:5][c:6]1[N:7]([H:11])[H:12])([H:8])[H:9]>>[N-:1]([C:2]1=[C:3]([H:10])[O+:4]=[N:5][C@@:6]1([N:7]([H:11])[H:12])[H:8])[H:9]"
N        0.15745526       1.76793508      -0.39106673
C        0.43920780       0.51068616      -0.39862941
C        1.59373961      -0.21899017       0.06802521
O        1.29593121      -1.49919927       0.22693431
N       -0.03365791      -1.69256472       0.28667835
C       -0.56862340      -0.45697270       0.15588514
N       -1.93022765      -0.26743912       0.05397178
H        0.10867594       0.22408242       1.23616311
H        0.96067199       2.34616121      -0.61257900
H        2.64824677      -0.00201729      -0.02103282
H       -2.18265199       0.39269412      -0.66523078
H       -2.48876762      -1.10437572       0.06088084
12
Frame=5 idx=010752 GeodesicLength=0.5460533749570773 rxn_smarts="[N:1]([c:2]1[c:3]([H:10])[o:4][n:5][c:6]1[N:7]([H:11])[H:12])([H:8])[H:9]>>[N-:1]([C:2]1=[C:3]([H:10])[O+:4]=[N:5][C@@:6]1([N:7]([H:11])[H:12])[H:8])[H:9]"
N        0.16657587       1.76540888      -0.33653340
C        0.44160960       0.50262679      -0.41165600
C        1.59757137      -0.22840242       0.03803326
O        1.29440913      -1.50249916       0.22774296
N       -0.03451651      -1.68748452       0.31489013
C       -0.56796296      -0.45155604       0.16299844
N       -1.93057720      -0.26838948       0.04016939
H        0.08227455       0.28870292       1.23865713
H        0.96286942       2.34733001      -0.57211789
H        2.65168152      -0.01779545      -0.06720465
H       -2.17586337       0.35740019      -0.71147684
H       -2.48807141      -1.10534172       0.07649745
12
Frame=6 idx=010752 GeodesicLength=0.6563670745730613 rxn_smarts="[N:1]([c:2]1[c:3]([H:10])[o:4][n:5][c:6]1[N:7]([H:11])[H:12])([H:8])[H:9]>>[N-:1]([C:2]1=[C:3]([H:10])[O+:4]=[N:5][C@@:6]1([N:7]([H:11])[H:12])[H:8])[H:9]"
N        0.17602480       1.76199733      -0.28806486
C        0.44356948       0.49615708      -0.42048829
C        1.60093912      -0.23786815       0.00834208
O        1.29299286      -1.50599393       0.22485489
N       -0.03466270      -1.68201862       0.34121340
C       -0.56727605      -0.44578298       0.17194588
N       -1.93064895      -0.26980227       0.02709491
H        0.05274071       0.35311203       1.24178820
H        0.96701423       2.34754370      -0.53185997
H        2.65439868      -0.03273378      -0.11144206
H       -2.16789200       0.32122048      -0.75472222
H       -2.48720019      -1.10583087       0.09133803
12
Frame=7 idx=010752 GeodesicLength=0.7667381008047701 rxn_smarts="[N:1]([c:2]1[c:3]([H:10])[o:4][n:5][c:6]1[N:7]([H:11])[H:12])([H:8])[H:9]>>[N-:1]([C:2]1=[C:3]([H:10])[O+:4]=[N:5][C@@:6]1([N:7]([H:11])[H:12])[H:8])[H:9]"
N        0.18571440       1.75838045      -0.24447380
C        0.44516233       0.49092943      -0.42574148
C        1.60374687      -0.24749949      -0.02155502
O        1.29146419      -1.50983446       0.21843183
N       -0.03409993      -1.67617122       0.36626834
C       -0.56653503      -0.43961540       0.18272642
N       -1.93030759      -0.27175275       0.01465262
H        0.01965102       0.41786988       1.24516882
H        0.97343106       2.34675621      -0.49155513
H        2.65635027      -0.04692627      -0.15410452
H       -2.15857271       0.28387746      -0.79533113
H       -2.48600487      -1.10601385       0.10551304
12
Frame=8 idx=010752 GeodesicLength=0.8771419140798495 rxn_smarts="[N:1]([c:2]1[c:3]([H:10])[o:4][n:5][c:6]1[N:7]([H:11])[H:12])([H:8])[H:9]>>[N-:1]([C:2]1=[C:3]([H:10])[O+:4]=[N:5][C@@:6]1([N:7]([H:11])[H:12])[H:8])[H:9]"
N        0.19567144       1.75504733      -0.20482661
C        0.44645630       0.48673746      -0.42783249
C        1.60591409      -0.25741070      -0.05217568
O        1.28961665      -1.51416829       0.20855364
N       -0.03280303      -1.66993560       0.39062246
C       -0.56571800      -0.43301175       0.19538069
N       -1.92947059      -0.27432782       0.00276472
H       -0.01742321       0.48343513       1.24836590
H        0.98237355       2.34498615      -0.45095617
H        2.65756500      -0.06044939      -0.19544021
H       -2.14776803       0.24516680      -0.83355981
H       -2.48441416      -1.10606932       0.11910356
12
Frame=9 idx=010752 GeodesicLength=0.9875722748582887 rxn_smarts="[N:1]([c:2]1[c:3]([H:10])[o:4][n:5][c:6]1[N:7]([H:11])[H:12])([H:8])[H:9]>>[N-:1]([C:2]1=[C:3]([H:10])[O+:4]=[N:5][C@@:6]1([N:7]([H:11])[H:12])[H:8])[H:9]"
N        0.20600356       1.75231041      -0.16836560
C        0.44750021       0.48343863      -0.42708857
C        1.60729251      -0.26772635      -0.08413828
O        1.28720349      -1.51908011       0.19527022
N       -0.03070975      -1.66322347       0.41480832
C       -0.56479268      -0.42590032       0.20996167
N       -1.92802475      -0.27761920      -0.00861685
H       -0.05894585       0.55025257       1.25081800
H        0.99407005       2.34220846      -0.40966666
H        2.65802172      -0.07337793      -0.23560514
H       -2.13530551       0.20488001      -0.86956528
H       -2.48231301      -1.10616271       0.13218817
12
Frame=10 idx=010752 GeodesicLength=1.0980186951326745 rxn_smarts="[N:1]([c:2]1[c:3]([H:10])[o:4][n:5][c:6]1[N:7]([H:11])[H:12])([H:8])[H:9]>>[N-:1]([C:2]1=[C:3]([H:10])[O+:4]=[N:5][C@@:6]1([N:7]([H:11])[H:12])[H:8])[H:9]"
N        0.21684872       1.75039268      -0.13445968
C        0.44834086       0.48095312      -0.42379636
C        1.60766306      -0.27858867      -0.11819585
O        1.28395407      -1.52461434       0.17860968
N       -0.02768716      -1.65588186       0.43940798
C       -0.56371804      -0.41818688       0.22654984
N       -1.92586714      -0.28175515      -0.01950450
H       -0.10543778       0.61875467       1.25179752
H        1.00880593       2.33834756      -0.36715096
H        2.65767634      -0.08578318      -0.27466864
H       -2.12100700       0.16288217      -0.90339026
H       -2.47957186      -1.10652012       0.14480124
12
Frame=11 idx=010752 GeodesicLength=1.2084907845676032 rxn_smarts="[N:1]([c:2]1[c:3]([H:10])[o:4][n:5][c:6]1[N:7]([H:11])[H:12])([H:8])[H:9]>>[N-:1]([C:2]1=[C:3]([H:10])[O+:4]=[N:5][C@@:6]1([N:7]([H:11])[H:12])[H:8])[H:9]"
N        0.22845247       1.74941055      -0.10252517
C        0.44900101       0.47923303      -0.41824870
C        1.60667581      -0.29015623      -0.15533154
O        1.27954469      -1.53071904       0.15865221
N       -0.02354475      -1.64766121       0.46494683
C       -0.56243913      -0.40972818       0.24520537
N       -1.92284803      -0.28686954      -0.02986621
H       -0.15744879       0.68939097       1.25031632
H        1.02689035       2.33321755      -0.32264799
H        2.65638453      -0.09773115      -0.31253846
H       -2.10469177       0.11898799      -0.93499335
H       -2.47597639      -1.10737475       0.15703069
12
Frame=12 idx=010752 GeodesicLength=1.3190051400082201 rxn_smarts="[N:1]([c:2]1[c:3]([H:10])[o:4][n:5][c:6]1[N:7]([H:11])[H:12])([H:8])[H:9]>>[N-:1]([C:2]1=[C:3]([H:10])[O+:4]=[N:5][C@@:6]1([N:7]([H:11])[H:12])[H:8])[H:9]"
N        0.24112125       1.74944677      -0.07190497
C        0.44952492       0.47829993      -0.41069495
C        1.60384439      -0.30256228      -0.19661947
O        1.27365129      -1.53724129       0.13568302
N       -0.01799764      -1.63820437       0.49203253
C       -0.56089455      -0.40032109       0.26602205
N       -1.91880547      -0.29313635      -0.03968546
H       -0.21563836       0.76262554       1.24511687
H        1.04873059       2.32653139      -0.27510024
H        2.65382893      -0.10939174      -0.34942626
H       -2.08610746       0.07299178      -0.96434752
H       -2.47125789      -1.10903830       0.16892439
12
Frame=13 idx=010752 GeodesicLength=1.429611871206111 rxn_smarts="[N:1]([c:2]1[c:3]([H:10])[o:4][n:5][c:6]1[N:7]([H:11])[H:12])([H:8])[H:9]>>[N-:1]([C:2]1=[C:3]([H:10])[O+:4]=[N:5][C@@:6]1([N:7]([H:11])[H:12])[H:8])[H:9]"
N        0.25524279       1.75052664      -0.04178942
C        0.45001510       0.47823534      -0.40125695
C        1.59852923      -0.31580138      -0.24281128
O        1.26599923      -1.54377393       0.11060056
N       -0.01068208      -1.62693070       0.52146317
C       -0.55903612      -0.38963254       0.28913364
N       -1.91348848      -0.30076315      -0.04909479
H       -0.28098155       0.83905728       1.23451633
H        1.07486329       2.31775116      -0.22259259
H        2.64930124      -0.12126637      -0.38698367
H       -2.06474540       0.02443616      -0.99163135
H       -2.46501725      -1.11183850       0.18044634
12
Frame=14 idx=010752 GeodesicLength=1.5403142397992808 rxn_smarts="[N:1]([c:2]1[c:3]([H:10])[o:4][n:5][c:6]1[N:7]([H:11])[H:12])([H:8])[H:9]>>[N-:1]([C:2]1=[C:3]([H:10])[O+:4]=[N:5][C@@:6]1([N:7]([H:11])[H:12])[H:8])[H:9]"
N        0.27130272       1.75278755      -0.01099401
C        0.45074307       0.47927621      -0.38981153
C        1.59012816      -0.32967398      -0.29367323
O        1.25659615      -1.54977995       0.08525230
N       -0.00120671      -1.61316032       0.55440316
C       -0.55693573      -0.37723190       0.31480658
N       -1.90673133      -0.31006764      -0.05843028
H       -0.35492649       0.91940151       1.21620129
H        1.10601099       2.30625761      -0.16238397
H        2.64185232      -0.13432753      -0.42935158
H       -2.03988019      -0.02712148      -1.01722118
H       -2.45695297      -1.11636009       0.19120246
12
Frame=15 idx=010752 GeodesicLength=1.6511659510338739 rxn_smarts="[N:1]([c:2]1[c:3]([H:10])[o:4][n:5][c:6]1[N:7]([H:11])[H:12])([H:8])[H:9]>>[N-:1]([C:2]1=[C:3]([H:10])[O+:4]=[N:5][C@@:6]1([N:7]([H:11])[H:12])[H:8])[H:9]"
N        0.28994954       1.75597725       0.02230400
C        0.45192691       0.48157207      -0.37624996
C        1.57771150      -0.34384898      -0.34817045
O        1.24557235      -1.55432711       0.06226219
N        0.01061774      -1.59597936       0.59154109
C       -0.55468463      -0.36255608       0.34319174
N       -1.89811436      -0.32133335      -0.06798025
H       -0.43849718       1.00422570       1.18672914
H        1.14256654       2.29077478      -0.09149191
H        2.62996906      -0.14940249      -0.48159043
H       -2.01055773      -0.08198998      -1.04119709
H       -2.44645973      -1.12311244       0.20065194
12
Frame=16 idx=010752 GeodesicLength=1.762179629884552 rxn_smarts="[N:1]([c:2]1[c:3]([H:10])[o:4][n:5][c:6]1[N:7]([H:11])[H:12])([H:8])[H:9]>>[N-:1]([C:2]1=[C:3]([H:10])[O+:4]=[N:5][C@@:6]1([N:7]([H:11])[H:12])[H:8])[H:9]"
N        0.31179968       1.75903451       0.06004542
C        0.45342300       0.48512226      -0.36119179
C        1.55980512      -0.35794227      -0.40559511
O        1.23322589      -1.55589045       0.04408350
N        0.02499007      -1.57397985       0.63294874
C       -0.55225765      -0.34481641       0.37413037
N       -1.88697141      -0.33469761      -0.07775044
H       -0.53130402       1.09358333       1.14100525
H        1.18441311       2.26855361      -0.00635456
H        2.61150645      -0.16648617      -0.54697914
H       -1.97611818      -0.14034328      -1.06322961
H       -2.43251205      -1.13213767       0.20888737
