16
Frame=0 idx=011776 GeodesicLength=0.0 rxn_smarts="[C:1]([C:2]1([C:3]([H:11])([H:12])[H:13])[C:4]([H:14])([H:15])[N:5]([H:16])[C:6]1=[O:7])([H:8])([H:9])[H:10]>>[C:1]([C@:2]1([C:4]([N:5]([H:12])[H:16])([H:14])[H:15])[C:3]([H:11])([H:13])[C:6]1=[O:7])([H:8])([H:9])[H:10]"
C        1.62458593       0.85769598       0.16913338
C        0.35173896       0.04710094       0.11098455
C        0.11560570      -1.19503657       0.97899517
C       -1.01836372       0.77411031       0.09156201
N       -1.58830665      -0.34689527      -0.71473296
C       -0.08045282      -0.61914358      -1.15443839
O        0.27280497      -1.11626480      -2.15591985
H        2.47961141       0.21208102      -0.03288319
H        1.74740612       1.26348023       1.17464579
H        1.63594643       1.68364102      -0.54953304
H        0.94540439      -1.89628771       0.89088726
H       -1.57221196      -1.15324734      -0.00937491
H       -0.03646757      -0.90041300       2.02205358
H       -1.51080370       0.90235933       1.05212877
H       -1.02654060       1.69350170      -0.49406796
H       -2.33995684      -0.20668229      -1.37944027
16
Frame=1 idx=011776 GeodesicLength=0.11620567857141592 rxn_smarts="[C:1]([C:2]1([C:3]([H:11])([H:12])[H:13])[C:4]([H:14])([H:15])[N:5]([H:16])[C:6]1=[O:7])([H:8])([H:9])[H:10]>>[C:1]([C@:2]1([C:4]([N:5]([H:12])[H:16])([H:14])[H:15])[C:3]([H:11])([H:13])[C:6]1=[O:7])([H:8])([H:9])[H:10]"
C        1.62326165       0.85866063       0.16669199
C        0.34916057       0.05106500       0.11224748
C        0.12097629      -1.20295376       0.96465575
C       -1.01914901       0.78014495       0.08939587
N       -1.59603777      -0.34158927      -0.70869802
C       -0.07423238      -0.62891581      -1.14896974
O        0.27862160      -1.12034015      -2.15529331
H        2.47696903       0.21297445      -0.04218970
H        1.74952495       1.26224311       1.17298787
H        1.63150233       1.68500737      -0.55127822
H        0.97282080      -1.88057346       0.90759187
H       -1.58014636      -1.17213674       0.01030727
H       -0.07143424      -0.92356226       2.00481985
H       -1.50428517       0.91319372       1.05354240
H       -1.02027368       1.70227377      -0.49232645
H       -2.33727863      -0.19549155      -1.38348491
16
Frame=2 idx=011776 GeodesicLength=0.23204285601479968 rxn_smarts="[C:1]([C:2]1([C:3]([H:11])([H:12])[H:13])[C:4]([H:14])([H:15])[N:5]([H:16])[C:6]1=[O:7])([H:8])([H:9])[H:10]>>[C:1]([C@:2]1([C:4]([N:5]([H:12])[H:16])([H:14])[H:15])[C:3]([H:11])([H:13])[C:6]1=[O:7])([H:8])([H:9])[H:10]"
C        1.62192613       0.85960696       0.16415182
C        0.34659622       0.05492046       0.11339882
C        0.12639321      -1.21061330       0.95036302
C       -1.01989248       0.78616596       0.08730060
N       -1.60378686      -0.33604042      -0.70275684
C       -0.06784558      -0.63837978      -1.14372039
O        0.28456698      -1.12428602      -2.15477385
H        2.47431381       0.21382152      -0.05130111
H        1.75153502       1.26124269       1.17112690
H        1.62714139       1.68625033      -0.55322936
H        0.99842471      -1.86417883       0.92533976
H       -1.58773682      -1.19173585       0.03053929
H       -0.10552441      -0.94731604       1.98626916
H       -1.49767580       0.92376727       1.05500618
H       -1.01398931       1.71116276      -0.49019166
H       -2.33444621      -0.18438771      -1.38752234
16
Frame=3 idx=011776 GeodesicLength=0.3476487754712104 rxn_smarts="[C:1]([C:2]1([C:3]([H:11])([H:12])[H:13])[C:4]([H:14])([H:15])[N:5]([H:16])[C:6]1=[O:7])([H:8])([H:9])[H:10]>>[C:1]([C@:2]1([C:4]([N:5]([H:12])[H:16])([H:14])[H:15])[C:3]([H:11])([H:13])[C:6]1=[O:7])([H:8])([H:9])[H:10]"
C        1.62057529       0.86052867       0.16151173
C        0.34403551       0.05867186       0.11442995
C        0.13183581      -1.21801527       0.93612215
C       -1.02060602       0.79217125       0.08528731
N       -1.61156325      -0.33021510      -0.69694991
C       -0.06129162      -0.64753755      -1.13870381
O        0.29064491      -1.12813110      -2.15436464
H        2.47164195       0.21459964      -0.06019501
H        1.75342636       1.26048626       1.16905922
H        1.62286680       1.68735734      -0.55539612
H        1.02212173      -1.84714648       0.94407853
H       -1.59494851      -1.21213542       0.05134725
H       -0.13859030      -0.97154057       1.96646255
H       -1.49100016       0.93403706       1.05653226
H       -1.00768836       1.72018184      -0.48762089
H       -2.33146014      -0.17331242      -1.39160058
16
Frame=4 idx=011776 GeodesicLength=0.46317483006112625 rxn_smarts="[C:1]([C:2]1([C:3]([H:11])([H:12])[H:13])[C:4]([H:14])([H:15])[N:5]([H:16])[C:6]1=[O:7])([H:8])([H:9])[H:10]>>[C:1]([C@:2]1([C:4]([N:5]([H:12])[H:16])([H:14])[H:15])[C:3]([H:11])([H:13])[C:6]1=[O:7])([H:8])([H:9])[H:10]"
C        1.61920311       0.86141721       0.15877038
C        0.34146609       0.06232206       0.11533005
C        0.13728064      -1.22516087       0.92193721
C       -1.02130210       0.79815992       0.08336624
N       -1.61937803      -0.32407421      -0.69132622
C       -0.05457320      -0.65639611      -1.13393208
O        0.29685872      -1.13190262      -2.15406996
H        2.46894748       0.21528485      -0.06885184
H        1.75518733       1.25997571       1.16678152
H        1.61868032       1.68831447      -0.55778701
H        1.04383082      -1.82952175       0.96374481
H       -1.60174306      -1.23344138       0.07276274
H       -0.17048359      -0.99608651       1.94548725
H       -1.48428693       0.94396010       1.05813096
H       -1.00137078       1.72934647      -0.48456761
H       -2.32831681      -0.16219736      -1.39577644
16
Frame=5 idx=011776 GeodesicLength=0.5786793271309835 rxn_smarts="[C:1]([C:2]1([C:3]([H:11])([H:12])[H:13])[C:4]([H:14])([H:15])[N:5]([H:16])[C:6]1=[O:7])([H:8])([H:9])[H:10]>>[C:1]([C@:2]1([C:4]([N:5]([H:12])[H:16])([H:14])[H:15])[C:3]([H:11])([H:13])[C:6]1=[O:7])([H:8])([H:9])[H:10]"
C        1.61780535       0.86226452       0.15592864
C        0.33887641       0.06587690       0.11608811
C        0.14270575      -1.23204902       0.90781407
C       -1.02199184       0.80413414       0.08154370
N       -1.62724147      -0.31758493      -0.68592447
C       -0.04769369      -0.66496070      -1.12941544
O        0.30321028      -1.13562235      -2.15389481
H        2.46622720       0.21585314      -0.07724907
H        1.75680788       1.25971075       1.16429390
H        1.61458586       1.68911017      -0.56040738
H        1.06345740      -1.81135861       0.98425122
H       -1.60807506      -1.25576894       0.09479938
H       -0.20105866      -1.02079275       1.92345111
H       -1.47756351       0.95350414       1.05981225
H       -0.99503730       1.73866823      -0.48099625
H       -2.32501460      -0.15098469      -1.40009496
16
Frame=6 idx=011776 GeodesicLength=0.6942535919474928 rxn_smarts="[C:1]([C:2]1([C:3]([H:11])([H:12])[H:13])[C:4]([H:14])([H:15])[N:5]([H:16])[C:6]1=[O:7])([H:8])([H:9])[H:10]>>[C:1]([C@:2]1([C:4]([N:5]([H:12])[H:16])([H:14])[H:15])[C:3]([H:11])([H:13])[C:6]1=[O:7])([H:8])([H:9])[H:10]"
C        1.61637485       0.86306055       0.15298688
C        0.33625217       0.06933802       0.11668987
C        0.14808486      -1.23868399       0.89375024
C       -1.02268724       0.81009631       0.07982521
N       -1.63516680      -0.31071061      -0.68079304
C       -0.04065989      -0.67324162      -1.12516623
O        0.30970013      -1.13930871      -2.15384883
H        2.46347507       0.21628091      -0.08537020
H        1.75827525       1.25968536       1.16159849
H        1.61058488       1.68973207      -0.56325943
H        1.08092246      -1.79270857       1.00551543
H       -1.61390079      -1.27924634       0.11749054
H       -0.23016706      -1.04548649       1.90047965
H       -1.47085978       0.96263454       1.06158256
H       -0.98868665       1.74816012      -0.47686705
H       -2.32154146      -0.13960155      -1.40461410
16
Frame=7 idx=011776 GeodesicLength=0.8100000254858124 rxn_smarts="[C:1]([C:2]1([C:3]([H:11])([H:12])[H:13])[C:4]([H:14])([H:15])[N:5]([H:16])[C:6]1=[O:7])([H:8])([H:9])[H:10]>>[C:1]([C@:2]1([C:4]([N:5]([H:12])[H:16])([H:14])[H:15])[C:3]([H:11])([H:13])[C:6]1=[O:7])([H:8])([H:9])[H:10]"
C        1.61490633       0.86379599       0.14994544
C        0.33357901       0.07271173       0.11712185
C        0.15339931      -1.24506298       0.87975150
C       -1.02339804       0.81605485       0.07821510
N       -1.64316562      -0.30340327      -0.67597942
C       -0.03348133      -0.68124955      -1.12119082
O        0.31632719      -1.14298131      -2.15393671
H        2.46068671       0.21654451      -0.09319965
H        1.75958005       1.25989339       1.15869710
H        1.60668050       1.69016919      -0.56634787
H        1.09613483      -1.77362907       1.02742905
H       -1.61914854      -1.30403992       0.14086029
H       -0.25768596      -1.06999018       1.87671510
H       -1.46420714       0.97132730       1.06344741
H       -0.98231241       1.75783839      -0.47214129
H       -2.31789488      -0.12797906      -1.40938710
16
Frame=8 idx=011776 GeodesicLength=0.925909775252123 rxn_smarts="[C:1]([C:2]1([C:3]([H:11])([H:12])[H:13])[C:4]([H:14])([H:15])[N:5]([H:16])[C:6]1=[O:7])([H:8])([H:9])[H:10]>>[C:1]([C@:2]1([C:4]([N:5]([H:12])[H:16])([H:14])[H:15])[C:3]([H:11])([H:13])[C:6]1=[O:7])([H:8])([H:9])[H:10]"
C        1.61339361       0.86445969       0.14680560
C        0.33084001       0.07600547       0.11736906
C        0.15861380      -1.25118799       0.86583064
C       -1.02413698       0.82202190       0.07671221
N       -1.65126302      -0.29562015      -0.67151838
C       -0.02617334      -0.68899463      -1.11749275
O        0.32309003      -1.14665907      -2.15416390
H        2.45785860       0.21661874      -0.10072573
H        1.76071033       1.26031638       1.15559774
H        1.60287590       1.69041709      -0.56967474
H        1.10904368      -1.75420580       1.04986427
H       -1.62371119      -1.33031824       0.16490939
H       -0.28351787      -1.09409713       1.85233064
H       -1.45763866       0.97956903       1.06540593
H       -0.97591421       1.76771132      -0.46679156
H       -2.31407070      -0.11603662      -1.41445842
16
Frame=9 idx=011776 GeodesicLength=1.0428124614088383 rxn_smarts="[C:1]([C:2]1([C:3]([H:11])([H:12])[H:13])[C:4]([H:14])([H:15])[N:5]([H:16])[C:6]1=[O:7])([H:8])([H:9])[H:10]>>[C:1]([C@:2]1([C:4]([N:5]([H:12])[H:16])([H:14])[H:15])[C:3]([H:11])([H:13])[C:6]1=[O:7])([H:8])([H:9])[H:10]"
C        1.61180336       0.86503030       0.14355814
C        0.32799654       0.07919424       0.11744594
C        0.16368879      -1.25701251       0.85203886
C       -1.02490877       0.82801799       0.07534519
N       -1.65944005      -0.28717668      -0.66760363
C       -0.01877413      -0.69656540      -1.11402460
O        0.32996381      -1.15046422      -2.15444011
H        2.45494273       0.21649283      -0.10798311
H        1.76166674       1.26095397       1.15227609
H        1.59913421       1.69042482      -0.57324638
H        1.11985490      -1.73439909       1.07261051
H       -1.62757765      -1.35840635       0.18986519
H       -0.30767872      -1.11768739       1.82742824
H       -1.45124612       0.98729749       1.06746146
H       -0.96943367       1.77784888      -0.46068248
H       -2.30999197      -0.10354887      -1.42004932
16
Frame=10 idx=011776 GeodesicLength=1.1599285483191617 rxn_smarts="[C:1]([C:2]1([C:3]([H:11])([H:12])[H:13])[C:4]([H:14])([H:15])[N:5]([H:16])[C:6]1=[O:7])([H:8])([H:9])[H:10]>>[C:1]([C@:2]1([C:4]([N:5]([H:12])[H:16])([H:14])[H:15])[C:3]([H:11])([H:13])[C:6]1=[O:7])([H:8])([H:9])[H:10]"
C        1.61015097       0.86551118       0.14021710
C        0.32505024       0.08231980       0.11731176
C        0.16859952      -1.26256277       0.83835248
C       -1.02572739       0.83406195       0.07408069
N       -1.66773472      -0.27813839      -0.66415348
C       -0.01128140      -0.70390941      -1.11082613
O        0.33696166      -1.15433182      -2.15483690
H        2.45196755       0.21613948      -0.11492016
H        1.76243002       1.26177669       1.14876616
H        1.59549408       1.69022599      -0.57705112
H        1.12832150      -1.71441165       1.09553874
H       -1.63057749      -1.38838976       0.21560678
H       -0.33003444      -1.14050415       1.80226974
H       -1.44501503       0.99455981       1.06959547
H       -0.96290881       1.78822146      -0.45388567
H       -2.30569625      -0.09056840      -1.42606546
16
Frame=11 idx=011776 GeodesicLength=1.277183563787887 rxn_smarts="[C:1]([C:2]1([C:3]([H:11])([H:12])[H:13])[C:4]([H:14])([H:15])[N:5]([H:16])[C:6]1=[O:7])([H:8])([H:9])[H:10]>>[C:1]([C@:2]1([C:4]([N:5]([H:12])[H:16])([H:14])[H:15])[C:3]([H:11])([H:13])[C:6]1=[O:7])([H:8])([H:9])[H:10]"
C        1.60842885       0.86589547       0.13679453
C        0.32198337       0.08539322       0.11695519
C        0.17331460      -1.26782125       0.82477915
C       -1.02659785       0.84018126       0.07290547
N       -1.67615127      -0.26846116      -0.66120830
C       -0.00371078      -0.71104264      -1.10789330
O        0.34407430      -1.15828239      -2.15534409
H        2.44892395       0.21554799      -0.12152445
H        1.76299343       1.26276343       1.14508557
H        1.59195845       1.68981539      -0.58106901
H        1.13445165      -1.69433771       1.11842652
H       -1.63263988      -1.42046916       0.24219489
H       -0.35056843      -1.16236542       1.77705642
H       -1.43897511       1.00137802       1.07179018
H       -0.95632353       1.79884863      -0.44639896
H       -2.30116175      -0.07704368      -1.43254981
16
Frame=12 idx=011776 GeodesicLength=1.3945652848625254 rxn_smarts="[C:1]([C:2]1([C:3]([H:11])([H:12])[H:13])[C:4]([H:14])([H:15])[N:5]([H:16])[C:6]1=[O:7])([H:8])([H:9])[H:10]>>[C:1]([C@:2]1([C:4]([N:5]([H:12])[H:16])([H:14])[H:15])[C:3]([H:11])([H:13])[C:6]1=[O:7])([H:8])([H:9])[H:10]"
C        1.60662663       0.86617585       0.13329625
C        0.31877353       0.08842737       0.11636429
C        0.17779649      -1.27277061       0.81133782
C       -1.02752675       0.84640999       0.07180842
N       -1.68470127      -0.25807531      -0.65882208
C        0.00391217      -0.71798662      -1.10521321
O        0.35128946      -1.16234788      -2.15594278
H        2.44579986       0.21470655      -0.12779721
H        1.76335066       1.26388958       1.14124654
H        1.58852723       1.68919010      -0.58528843
H        1.13828693      -1.67427496       1.14106045
H       -1.63364377      -1.45490018       0.26969690
H       -0.36930701      -1.18308790       1.75199853
H       -1.43316455       1.00777203       1.07402761
H       -0.94965858       1.80975623      -0.43820818
H       -2.29636102      -0.06288424      -1.43956492
16
Frame=13 idx=011776 GeodesicLength=1.5119472996723147 rxn_smarts="[C:1]([C:2]1([C:3]([H:11])([H:12])[H:13])[C:4]([H:14])([H:15])[N:5]([H:16])[C:6]1=[O:7])([H:8])([H:9])[H:10]>>[C:1]([C@:2]1([C:4]([N:5]([H:12])[H:16])([H:14])[H:15])[C:3]([H:11])([H:13])[C:6]1=[O:7])([H:8])([H:9])[H:10]"
C        1.60473364       0.86634551       0.12973414
C        0.31539761       0.09143763       0.11553088
C        0.18198320      -1.27739084       0.79805072
C       -1.02851908       0.85279041       0.07076829
N       -1.69339726      -0.24691609      -0.65703649
C        0.01156149      -0.72475780      -1.10276912
O        0.35859224      -1.16655653      -2.15660825
H        2.44258088       0.21360701      -0.13374340
H        1.76349681       1.26512070       1.13727073
H        1.58520175       1.68835441      -0.58968522
H        1.13994464      -1.65434721       1.16321628
H       -1.63346211      -1.49192547       0.29817628
H       -0.38632585      -1.20249593       1.72729684
H       -1.42761674       1.01378622       1.07627783
H       -0.94289311       1.82096992      -0.42932190
H       -2.29127811      -0.04802194      -1.44715761
16
Frame=14 idx=011776 GeodesicLength=1.6292316836097245 rxn_smarts="[C:1]([C:2]1([C:3]([H:11])([H:12])[H:13])[C:4]([H:14])([H:15])[N:5]([H:16])[C:6]1=[O:7])([H:8])([H:9])[H:10]>>[C:1]([C@:2]1([C:4]([N:5]([H:12])[H:16])([H:14])[H:15])[C:3]([H:11])([H:13])[C:6]1=[O:7])([H:8])([H:9])[H:10]"
C        1.60273913       0.86639699       0.12611140
C        0.31183032       0.09444064       0.11444565
C        0.18582877      -1.28165891       0.78494285
C       -1.02957840       0.85936929       0.06976955
N       -1.70225702      -0.23490293      -0.65589758
C        0.01920101      -0.73137516      -1.10054165
O        0.36596122      -1.17093993      -2.15731713
H        2.43925101       0.21223695      -0.13937327
H        1.76342865       1.26643065       1.13316905
H        1.58198293       1.68730570      -0.59425195
H        1.13949417      -1.63464194       1.18471070
H       -1.63190787      -1.53184461       0.32769784
H       -0.40172467      -1.22044060       1.70313073
H       -1.42236450       1.01946169       1.07851915
H       -0.93600033       1.83251916      -0.41973474
H       -2.28588441      -0.03235698      -1.45538059
16
Frame=15 idx=011776 GeodesicLength=1.746269140439813 rxn_smarts="[C:1]([C:2]1([C:3]([H:11])([H:12])[H:13])[C:4]([H:14])([H:15])[N:5]([H:16])[C:6]1=[O:7])([H:8])([H:9])[H:10]>>[C:1]([C@:2]1([C:4]([N:5]([H:12])[H:16])([H:14])[H:15])[C:3]([H:11])([H:13])[C:6]1=[O:7])([H:8])([H:9])[H:10]"
C        1.60063061       0.86632330       0.12243360
C        0.30804439       0.09745565       0.11310174
C        0.18926655      -1.28555002       0.77204350
C       -1.03070768       0.86620080       0.06879047
N       -1.71129763      -0.22194852      -0.65545232
C        0.02679285      -0.73785595      -1.09850641
O        0.37337307      -1.17553431      -2.15803707
H        2.43579048       0.21058663      -0.14470235
H        1.76314464       1.26778662       1.12895536
H        1.57887123       1.68604582      -0.59897462
H        1.13707350      -1.61525691       1.20536331
H       -1.62878601      -1.57495685       0.35834286
H       -0.41564789      -1.23679404       1.67966054
H       -1.41744108       1.02485255       1.08072099
H       -0.92895112       1.84443741      -0.40945147
H       -2.28015590      -0.01579218      -1.46428813
16
Frame=16 idx=011776 GeodesicLength=1.8629237511265182 rxn_smarts="[C:1]([C:2]1([C:3]([H:11])([H:12])[H:13])[C:4]([H:14])([H:15])[N:5]([H:16])[C:6]1=[O:7])([H:8])([H:9])[H:10]>>[C:1]([C@:2]1([C:4]([N:5]([H:12])[H:16])([H:14])[H:15])[C:3]([H:11])([H:13])[C:6]1=[O:7])([H:8])([H:9])[H:10]"
C        1.59839358       0.86611598       0.11870037
C        0.30400954       0.10050150       0.11149171
C        0.19222979      -1.28903948       0.75938088
C       -1.03190798       0.87334511       0.06781170
N       -1.72053726      -0.20794624      -0.65575941
C        0.03429052      -0.74421913      -1.09663801
O        0.38079522      -1.18037962      -2.15873510
H        2.43217591       0.20864311      -0.14975372
H        1.76264341       1.26915909       1.12463656
H        1.57586545       1.68457149      -0.60384889
H        1.13282660      -1.59626417       1.22503645
H       -1.62385870      -1.62160388       0.39021039
H       -0.42827641      -1.25145497       1.65702300
H       -1.41288138       1.03001153       1.08285559
H       -0.92170962       1.85676411      -0.39846582
H       -2.27405868       0.00179557      -1.47394571
