13
Frame=0 idx=009295 GeodesicLength=0.0 rxn_smarts="[C:1]([O:2][C:3](=[O:4])[C:5]([C:6](=[O:7])[H:13])([H:11])[H:12])([H:8])([H:9])[H:10]>>[C:1]1([H:8])([H:10])[O:2][C@@:3]12[O:4][C@:6]([O:7][H:9])([H:13])[C:5]2([H:11])[H:12]"
C       -1.61056546       0.00476613       0.00956897
O       -1.30319618      -0.13856014      -1.41942234
C       -0.13404139       0.18112102      -0.86923721
O        0.44850522       1.30942910      -0.94964914
C        0.92637373      -0.75714133      -0.32704436
C        1.31045044       0.35798325       0.62553834
O        0.50236809       0.59102699       1.56892793
H       -2.01128496      -0.93040117       0.39602765
H       -0.47499737       0.30470379       1.05949479
H       -2.24048789       0.87797343       0.15254618
H        1.69040287      -0.94713632      -1.07642638
H        0.60231023      -1.67156235       0.16696184
H        2.29416273       0.81779764       0.66271369
13
Frame=1 idx=009295 GeodesicLength=0.11778475974669475 rxn_smarts="[C:1]([O:2][C:3](=[O:4])[C:5]([C:6](=[O:7])[H:13])([H:11])[H:12])([H:8])([H:9])[H:10]>>[C:1]1([H:8])([H:10])[O:2][C@@:3]12[O:4][C@:6]([O:7][H:9])([H:13])[C:5]2([H:11])[H:12]"
C       -1.61957109       0.00858343       0.00564499
O       -1.29737821      -0.16741473      -1.41475193
C       -0.13237820       0.17421092      -0.86989193
O        0.44052547       1.30947085      -0.93906487
C        0.93677966      -0.75548428      -0.32971220
C        1.31882575       0.35958738       0.62518894
O        0.52334506       0.57386516       1.58597029
H       -2.05793931      -0.91325440       0.38286853
H       -0.49429766       0.29309618       1.08857842
H       -2.23052789       0.89646168       0.14088247
H        1.69784599      -0.94472259      -1.08238315
H        0.62006463      -1.67214282       0.16471366
H        2.29470580       0.83774322       0.64195678
13
Frame=2 idx=009295 GeodesicLength=0.23555578974188301 rxn_smarts="[C:1]([O:2][C:3](=[O:4])[C:5]([C:6](=[O:7])[H:13])([H:11])[H:12])([H:8])([H:9])[H:10]>>[C:1]1([H:8])([H:10])[O:2][C@@:3]12[O:4][C@:6]([O:7][H:9])([H:13])[C:5]2([H:11])[H:12]"
C       -1.62844165       0.01231068       0.00188485
O       -1.29170115      -0.19672901      -1.40897887
C       -0.13070481       0.16690017      -0.87073724
O        0.43238969       1.30899612      -0.92879230
C        0.94751252      -0.75374677      -0.33256505
C        1.32723125       0.36138722       0.62466462
O        0.54481580       0.55642926       1.60256111
H       -2.10556435      -0.89421576       0.36878914
H       -0.51431168       0.28100490       1.11826920
H       -2.21986624       0.91454395       0.12945571
H        1.70562319      -0.94208078      -1.08852785
H        0.63858600      -1.67269841       0.16234015
H        2.29443143       0.85789844       0.62163652
13
Frame=3 idx=009295 GeodesicLength=0.35324697178262615 rxn_smarts="[C:1]([O:2][C:3](=[O:4])[C:5]([C:6](=[O:7])[H:13])([H:11])[H:12])([H:8])([H:9])[H:10]>>[C:1]1([H:8])([H:10])[O:2][C@@:3]12[O:4][C@:6]([O:7][H:9])([H:13])[C:5]2([H:11])[H:12]"
C       -1.63718066       0.01591531      -0.00167214
O       -1.28616187      -0.22653223      -1.40203568
C       -0.12903027       0.15917458      -0.87176981
O        0.42410858       1.30797966      -0.91884908
C        0.95856504      -0.75192955      -0.33560695
C        1.33564582       0.36337466       0.62397179
O        0.56679929       0.53875835       1.61867729
H       -2.15406850      -0.87318005       0.35364437
H       -0.53511835       0.26844924       1.14860556
H       -2.20849776       0.93216459       0.11832551
H        1.71372371      -0.93920729      -1.09486840
H        0.65788380      -1.67322263       0.15983510
H        2.29333118       0.87825536       0.60174244
13
Frame=4 idx=009295 GeodesicLength=0.4708140884519628 rxn_smarts="[C:1]([O:2][C:3](=[O:4])[C:5]([C:6](=[O:7])[H:13])([H:11])[H:12])([H:8])([H:9])[H:10]>>[C:1]1([H:8])([H:10])[O:2][C@@:3]12[O:4][C@:6]([O:7][H:9])([H:13])[C:5]2([H:11])[H:12]"
C       -1.64579646       0.01936814      -0.00498772
O       -1.28076201      -0.25685513      -1.39384398
C       -0.12736436       0.15102231      -0.87298407
O        0.41569458       1.30640093      -0.90925502
C        0.96992651      -0.75003327      -0.33884338
C        1.34405306       0.36554161       0.62311411
O        0.58931701       0.52089691       1.63429904
H       -2.20332977      -0.85006416       0.33727210
H       -0.55681210       0.25545598       1.17962674
H       -2.19642231       0.94927681       0.10755907
H        1.72213088      -0.93610112      -1.10141592
H        0.67796340      -1.67370735       0.15719684
H        2.29140156       0.89879833       0.58226221
13
Frame=5 idx=009295 GeodesicLength=0.5881431896715743 rxn_smarts="[C:1]([O:2][C:3](=[O:4])[C:5]([C:6](=[O:7])[H:13])([H:11])[H:12])([H:8])([H:9])[H:10]>>[C:1]1([H:8])([H:10])[O:2][C@@:3]12[O:4][C@:6]([O:7][H:9])([H:13])[C:5]2([H:11])[H:12]"
C       -1.65430168       0.02264438      -0.00802093
O       -1.27550764      -0.28772476      -1.38431777
C       -0.12572168       0.14243495      -0.87437717
O        0.40715433       1.30424336      -0.90003030
C        0.98157821      -0.74805687      -0.34227840
C        1.35242989       0.36787962       0.62209399
O        0.61237830       0.50289676       1.64941092
H       -2.25317604      -0.82480859       0.31948886
H       -0.57947509       0.24207411       1.21137228
H       -2.18364764       0.96583184       0.09723221
H        1.73081882      -0.93276416      -1.10818010
H        0.69882213      -1.67414135       0.15442438
H        2.28864808       0.91949070       0.56318203
13
Frame=6 idx=009295 GeodesicLength=0.7053331286213447 rxn_smarts="[C:1]([O:2][C:3](=[O:4])[C:5]([C:6](=[O:7])[H:13])([H:11])[H:12])([H:8])([H:9])[H:10]>>[C:1]1([H:8])([H:10])[O:2][C@@:3]12[O:4][C@:6]([O:7][H:9])([H:13])[C:5]2([H:11])[H:12]"
C       -1.66272422       0.02569197      -0.01072881
O       -1.27039515      -0.31916731      -1.37335840
C       -0.12412240       0.13339812      -0.87591949
O        0.39848406       1.30148866      -0.89118018
C        0.99350210      -0.74600197      -0.34590583
C        1.36077538       0.37038945       0.62090169
O        0.63606508       0.48482292       1.66399909
H       -2.30342917      -0.79729716       0.30003389
H       -0.60324614       0.22830947       1.24389568
H       -2.17018479       0.98176683       0.08743826
H        1.73974599      -0.92920727      -1.11517407
H        0.72046099      -1.67450910       0.15153691
H        2.28506826       0.94031540       0.54446127
13
Frame=7 idx=009295 GeodesicLength=0.8223322715455603 rxn_smarts="[C:1]([O:2][C:3](=[O:4])[C:5]([C:6](=[O:7])[H:13])([H:11])[H:12])([H:8])([H:9])[H:10]>>[C:1]1([H:8])([H:10])[O:2][C@@:3]12[O:4][C@:6]([O:7][H:9])([H:13])[C:5]2([H:11])[H:12]"
C       -1.67109125       0.02846421      -0.01306219
O       -1.26542699      -0.35120783      -1.36085719
C       -0.12259066       0.12389715      -0.87758621
O        0.38967178       1.29812188      -0.88270466
C        1.00567417      -0.74387205      -0.34972911
C        1.36908097       0.37306242       0.61953091
O        0.66042141       0.46672976       1.67806068
H       -2.35385251      -0.76743710       0.27864693
H       -0.62824879       0.21422714       1.27724323
H       -2.15605587       0.99701441       0.07827351
H        1.74886756      -0.92543871      -1.12241710
H        0.74287753      -1.67479923       0.14854105
H        2.28067265       0.96123795       0.52606014
13
Frame=8 idx=009295 GeodesicLength=0.9391614619279727 rxn_smarts="[C:1]([O:2][C:3](=[O:4])[C:5]([C:6](=[O:7])[H:13])([H:11])[H:12])([H:8])([H:9])[H:10]>>[C:1]1([H:8])([H:10])[O:2][C@@:3]12[O:4][C@:6]([O:7][H:9])([H:13])[C:5]2([H:11])[H:12]"
C       -1.67944383       0.03091153      -0.01498073
O       -1.26060248      -0.38385659      -1.34670096
C       -0.12115047       0.11392388      -0.87934093
O        0.38070359       1.29413370      -0.87459383
C        1.01806258      -0.74166966      -0.35374297
C        1.37733982       0.37589757       0.61796159
O        0.68553638       0.44869302       1.69157475
H       -2.40416454      -0.73516675       0.25502318
H       -0.65463716       0.19987659       1.31148813
H       -2.14128195       1.01151553       0.06985484
H        1.75812104      -0.92147997      -1.12992521
H        0.76605609      -1.67499258       0.14545534
H        2.27546095       0.98221372       0.50792680
13
Frame=9 idx=009295 GeodesicLength=1.0565950251676255 rxn_smarts="[C:1]([O:2][C:3](=[O:4])[C:5]([C:6](=[O:7])[H:13])([H:11])[H:12])([H:8])([H:9])[H:10]>>[C:1]1([H:8])([H:10])[O:2][C@@:3]12[O:4][C@:6]([O:7][H:9])([H:13])[C:5]2([H:11])[H:12]"
C       -1.68784886       0.03295977      -0.01657132
O       -1.25584257      -0.41714229      -1.33086226
C       -0.11980105       0.10349818      -0.88111384
O        0.37156006       1.28959584      -0.86679596
C        1.03066616      -0.73937207      -0.35792786
C        1.38568772       0.37895574       0.61616529
O        0.71159255       0.43077471       1.70464685
H       -2.45426572      -0.70021023       0.22927182
H       -0.68290579       0.18486921       1.34656719
H       -2.12595171       1.02517635       0.06211062
H        1.76744681      -0.91733094      -1.13773257
H        0.79000652      -1.67502448       0.14233796
H        2.26965587       1.00325020       0.48990409
13
Frame=10 idx=009295 GeodesicLength=1.1740166544614958 rxn_smarts="[C:1]([O:2][C:3](=[O:4])[C:5]([C:6](=[O:7])[H:13])([H:11])[H:12])([H:8])([H:9])[H:10]>>[C:1]1([H:8])([H:10])[O:2][C@@:3]12[O:4][C@:6]([O:7][H:9])([H:13])[C:5]2([H:11])[H:12]"
C       -1.69635220       0.03463217      -0.01770398
O       -1.25118241      -0.45098619      -1.31317407
C       -0.11860322       0.09260959      -0.88288045
O        0.36222955       1.28445341      -0.85931788
C        1.04339987      -0.73700419      -0.36227938
C        1.39402505       0.38219074       0.61412086
O        0.73867981       0.41306464       1.71719033
H       -2.50360071      -0.66283486       0.20075139
H       -0.71304132       0.16959031       1.38263564
H       -2.11006608       1.03798924       0.05533102
H        1.77674233      -0.91306010      -1.14583119
H        0.81464492      -1.67490606       0.13919845
H        2.26312441       1.02426129       0.47195928
13
Frame=11 idx=009295 GeodesicLength=1.2913904405121843 rxn_smarts="[C:1]([O:2][C:3](=[O:4])[C:5]([C:6](=[O:7])[H:13])([H:11])[H:12])([H:8])([H:9])[H:10]>>[C:1]1([H:8])([H:10])[O:2][C@@:3]12[O:4][C@:6]([O:7][H:9])([H:13])[C:5]2([H:11])[H:12]"
C       -1.70501895       0.03592548      -0.01836271
O       -1.24660469      -0.48533363      -1.29353560
C       -0.11759681       0.08126518      -0.88459372
O        0.35269174       1.27871131      -0.85213217
C        1.05620615      -0.73457044      -0.36678985
C        1.40236269       0.38560327       0.61180021
O        0.76692891       0.39564053       1.72920672
H       -2.55170422      -0.62309461       0.16920614
H       -0.74529877       0.15405548       1.41973959
H       -2.09368544       1.04992237       0.04963596
H        1.78590898      -0.90870925      -1.15423800
H        0.83991216      -1.67460932       0.13606171
H        2.25589825       1.04519363       0.45400172
13
Frame=12 idx=009295 GeodesicLength=1.408760595179311 rxn_smarts="[C:1]([O:2][C:3](=[O:4])[C:5]([C:6](=[O:7])[H:13])([H:11])[H:12])([H:8])([H:9])[H:10]>>[C:1]1([H:8])([H:10])[O:2][C@@:3]12[O:4][C@:6]([O:7][H:9])([H:13])[C:5]2([H:11])[H:12]"
C       -1.71392148       0.03684133      -0.01853850
O       -1.24208462      -0.52011344      -1.27184906
C       -0.11681694       0.06947836      -0.88618572
O        0.34292259       1.27239228      -0.84518502
C        1.06902535      -0.73207880      -0.37144351
C        1.41072727       0.38920572       0.60915901
O        0.79653733       0.37858517       1.74066704
H       -2.59811102      -0.58108513       0.13432917
H       -0.78000871       0.13827256       1.45797023
H       -2.07687991       1.06094729       0.04517230
H        1.79483469      -0.90433787      -1.16296637
H        0.86574328      -1.67410653       0.13296396
H        2.24803219       1.06599906       0.43590649
13
Frame=13 idx=009295 GeodesicLength=1.5266136976050504 rxn_smarts="[C:1]([O:2][C:3](=[O:4])[C:5]([C:6](=[O:7])[H:13])([H:11])[H:12])([H:8])([H:9])[H:10]>>[C:1]1([H:8])([H:10])[O:2][C@@:3]12[O:4][C@:6]([O:7][H:9])([H:13])[C:5]2([H:11])[H:12]"
C       -1.72313990       0.03733452      -0.01828699
O       -1.23757445      -0.55530493      -1.24801205
C       -0.11629477       0.05724499      -0.88759915
O        0.33289698       1.26551518      -0.83846376
C        1.08182924      -0.72951601      -0.37622603
C        1.41924007       0.39307125       0.60614992
O        0.82780608       0.36204982       1.75168872
H       -2.64247947      -0.53656965       0.09607413
H       -0.81781437       0.12180184       1.49722569
H       -2.05970624       1.07098002       0.04202793
H        1.80342738      -0.89997986      -1.17206269
H        0.89211499      -1.67332241       0.12997801
H        2.23969444       1.08669524       0.41750627
13
Frame=14 idx=009295 GeodesicLength=1.6443010866314942 rxn_smarts="[C:1]([O:2][C:3](=[O:4])[C:5]([C:6](=[O:7])[H:13])([H:11])[H:12])([H:8])([H:9])[H:10]>>[C:1]1([H:8])([H:10])[O:2][C@@:3]12[O:4][C@:6]([O:7][H:9])([H:13])[C:5]2([H:11])[H:12]"
C       -1.73275074       0.03748874      -0.01752714
O       -1.23309112      -0.59073683      -1.22189219
C       -0.11609027       0.04459963      -0.88875403
O        0.32258641       1.25810152      -0.83188484
C        1.09451405      -0.72691104      -0.38112824
C        1.42785220       0.39715907       0.60271719
O        0.86089959       0.34607296       1.76212248
H       -2.68407867      -0.49003615       0.05384418
H       -0.85885435       0.10501953       1.53772534
H       -2.04224843       1.08006713       0.04049501
H        1.81153426      -0.89573564      -1.18151975
H        0.91889734      -1.67227194       0.12710779
H        2.23082973       1.10718302       0.39869421
13
Frame=15 idx=009295 GeodesicLength=1.7617169413446707 rxn_smarts="[C:1]([O:2][C:3](=[O:4])[C:5]([C:6](=[O:7])[H:13])([H:11])[H:12])([H:8])([H:9])[H:10]>>[C:1]1([H:8])([H:10])[O:2][C@@:3]12[O:4][C@:6]([O:7][H:9])([H:13])[C:5]2([H:11])[H:12]"
C       -1.74281906       0.03734125      -0.01628101
O       -1.22860920      -0.62628266      -1.19338973
C       -0.11624514       0.03156579      -0.88958531
O        0.31196515       1.25018096      -0.82538878
C        1.10701727      -0.72426928      -0.38614578
C        1.43661770       0.40148632       0.59880372
O        0.89606678       0.33074223       1.77196227
H       -2.72231014      -0.44161889       0.00748519
H       -0.90363960       0.08783034       1.57947434
H       -2.02460216       1.08819279       0.04072875
H        1.81903475      -0.89166671      -1.19136345
H        0.94601123      -1.67091976       0.12437813
H        2.22151242       1.12741759       0.37932167
13
Frame=16 idx=009295 GeodesicLength=1.87882861299038 rxn_smarts="[C:1]([O:2][C:3](=[O:4])[C:5]([C:6](=[O:7])[H:13])([H:11])[H:12])([H:8])([H:9])[H:10]>>[C:1]1([H:8])([H:10])[O:2][C@@:3]12[O:4][C@:6]([O:7][H:9])([H:13])[C:5]2([H:11])[H:12]"
C       -1.75342947       0.03692114      -0.01456994
O       -1.22411083      -0.66181599      -1.16238384
C       -0.11680393       0.01816648      -0.89001100
O        0.30100151       1.24179348      -0.81890835
C        1.11928149      -0.72159625      -0.39127316
C        1.44562198       0.40609050       0.59433685
O        0.93364435       0.31615714       1.78119322
H       -2.75654511      -0.39141722      -0.04316598
H       -0.95282231       0.07006894       1.62246820
H       -2.00688144       1.09533117       0.04290137
H        1.82579902      -0.88784434      -1.20163293
H        0.97338371      -1.66923153       0.12182553
H        2.21186103       1.14737648       0.35922003
