12
Frame=0 idx=001407 GeodesicLength=0.0 rxn_smarts="[C:1]([C:2](=[O:3])[C:4]([C:5](=[O:6])[H:12])([H:10])[H:11])([H:7])([H:8])[H:9]>>[C:1]([C:2]12[O:3][C:5]([H:12])([C:4]1([H:10])[H:11])[O:6]2)([H:7])([H:8])[H:9]"
C        1.49548922       0.16164924      -0.74232079
C        0.18460614       0.25786694      -0.06456069
O       -0.45025155       1.39520148       0.14493662
C       -0.50506890      -0.59417727       0.97914741
C       -1.56165514       0.11253244       0.14627683
O       -1.24662150      -0.30071770      -1.05970514
H        1.71135426      -0.86883314      -1.01557102
H        2.25812933       0.51142339      -0.04107786
H        1.50170679       0.79842249      -1.62442547
H       -0.50829741      -1.67448126       0.86238031
H       -0.31683624      -0.25100995       1.99470260
H       -2.56255497       0.45212335       0.42021720
12
Frame=1 idx=001407 GeodesicLength=0.05187412419410649 rxn_smarts="[C:1]([C:2](=[O:3])[C:4]([C:5](=[O:6])[H:12])([H:10])[H:11])([H:7])([H:8])[H:9]>>[C:1]([C:2]12[O:3][C:5]([H:12])([C:4]1([H:10])[H:11])[O:6]2)([H:7])([H:8])[H:9]"
C        1.49849463       0.16223472      -0.74113698
C        0.18386845       0.26203911      -0.07056463
O       -0.45069004       1.39986707       0.13850990
C       -0.50253338      -0.59071369       0.97653063
C       -1.57018092       0.10373110       0.14705128
O       -1.26319165      -0.31678583      -1.05854157
H        1.70499831      -0.86673705      -1.02781580
H        2.26129265       0.49234415      -0.03080636
H        1.51657187       0.81092137      -1.61438536
H       -0.49244677      -1.67120755       0.86201392
H       -0.32166948      -0.24227196       1.99160259
H       -2.56451367       0.45657855       0.42754237
12
Frame=2 idx=001407 GeodesicLength=0.10372098456987619 rxn_smarts="[C:1]([C:2](=[O:3])[C:4]([C:5](=[O:6])[H:12])([H:10])[H:11])([H:7])([H:8])[H:9]>>[C:1]([C:2]12[O:3][C:5]([H:12])([C:4]1([H:10])[H:11])[O:6]2)([H:7])([H:8])[H:9]"
C        1.50151351       0.16284351      -0.73990641
C        0.18308235       0.26621548      -0.07671541
O       -0.45104085       1.40460349       0.13200220
C       -0.50000875      -0.58719612       0.97382586
C       -1.57875486       0.09482235       0.14799274
O       -1.27995419      -0.33315184      -1.05708130
H        1.69876252      -0.86429638      -1.04015178
H        2.26411732       0.47305445      -0.02066650
H        1.53161700       0.82332387      -1.60396660
H       -0.47666557      -1.66771724       0.86158682
H       -0.32637687      -0.23360799       1.98835774
H       -2.56629162       0.46110643       0.43472265
12
Frame=3 idx=001407 GeodesicLength=0.1555183878608809 rxn_smarts="[C:1]([C:2](=[O:3])[C:4]([C:5](=[O:6])[H:12])([H:10])[H:11])([H:7])([H:8])[H:9]>>[C:1]([C:2]12[O:3][C:5]([H:12])([C:4]1([H:10])[H:11])[O:6]2)([H:7])([H:8])[H:9]"
C        1.50454752       0.16347785      -0.73862376
C        0.18226017       0.27039229      -0.08299226
O       -0.45126326       1.40941366       0.12547685
C       -0.49750941      -0.58365680       0.97101171
C       -1.58736826       0.08583228       0.14911163
O       -1.29690446      -0.34975087      -1.05532108
H        1.69274397      -0.86153327      -1.05241507
H        2.26659653       0.45373752      -0.01073225
H        1.54674724       0.83549079      -1.59326662
H       -0.46101200      -1.66404065       0.86103143
H       -0.33096334      -0.22510178       1.98496650
H       -2.56787469       0.46573898       0.44175292
12
Frame=4 idx=001407 GeodesicLength=0.20728974841288678 rxn_smarts="[C:1]([C:2](=[O:3])[C:4]([C:5](=[O:6])[H:12])([H:10])[H:11])([H:7])([H:8])[H:9]>>[C:1]([C:2]12[O:3][C:5]([H:12])([C:4]1([H:10])[H:11])[O:6]2)([H:7])([H:8])[H:9]"
C        1.50759433       0.16413618      -0.73729190
C        0.18139423       0.27457330      -0.08941266
O       -0.45137716       1.41430094       0.11889104
C       -0.49502768      -0.58007092       0.96809913
C       -1.59602690       0.07674408       0.15040930
O       -1.31404754      -0.36664230      -1.05323938
H        1.68688302      -0.85842822      -1.06472490
H        2.26873548       0.43426547      -0.00096171
H        1.56202070       0.84752029      -1.58220345
H       -0.44545584      -1.66015936       0.86038651
H       -0.33541891      -0.21668899       1.98143244
H       -2.56927374       0.47044953       0.44861558
12
Frame=5 idx=001407 GeodesicLength=0.25905136883683555 rxn_smarts="[C:1]([C:2](=[O:3])[C:4]([C:5](=[O:6])[H:12])([H:10])[H:11])([H:7])([H:8])[H:9]>>[C:1]([C:2]12[O:3][C:5]([H:12])([C:4]1([H:10])[H:11])[O:6]2)([H:7])([H:8])[H:9]"
C        1.51064864       0.16481764      -0.73591504
C        0.18047765       0.27876088      -0.09599543
O       -0.45140111       1.41926616       0.11219466
C       -0.49255565      -0.57641008       0.96510140
C       -1.60473306       0.06753862       0.15188803
O       -1.33138316      -0.38389375      -1.05080710
H        1.68110814      -0.85494740      -1.07721644
H        2.27053134       0.41448685       0.00868060
H        1.57750354       0.85952003      -1.57067542
H       -0.42996051      -1.65604885       0.85969812
H       -0.33974084      -0.20829834       1.97775909
H       -2.57049498       0.47520826       0.45528752
12
Frame=6 idx=001407 GeodesicLength=0.31078688912929764 rxn_smarts="[C:1]([C:2](=[O:3])[C:4]([C:5](=[O:6])[H:12])([H:10])[H:11])([H:7])([H:8])[H:9]>>[C:1]([C:2]12[O:3][C:5]([H:12])([C:4]1([H:10])[H:11])[O:6]2)([H:7])([H:8])[H:9]"
C        1.51371314       0.16552436      -0.73448790
C        0.17952216       0.28295382      -0.10271776
O       -0.45129657       1.42431545       0.10545503
C       -0.49010740      -0.57270672       0.96199710
C       -1.61347943       0.05824263       0.15355793
O       -1.34890776      -0.40143847      -1.04802225
H        1.67551587      -0.85111828      -1.08972664
H        2.27198201       0.39458554       0.01812592
H        1.59310060       0.87134961      -1.55878621
H       -0.41457709      -1.65174112       0.85889624
H       -0.34393641      -0.20001223       1.97394593
H       -2.57152912       0.48004541       0.46176261
12
Frame=7 idx=001407 GeodesicLength=0.3625149270231417 rxn_smarts="[C:1]([C:2](=[O:3])[C:4]([C:5](=[O:6])[H:12])([H:10])[H:11])([H:7])([H:8])[H:9]>>[C:1]([C:2]12[O:3][C:5]([H:12])([C:4]1([H:10])[H:11])[O:6]2)([H:7])([H:8])[H:9]"
C        1.51678285       0.16625416      -0.73301533
C        0.17851997       0.28715615      -0.10959600
O       -0.45108253       1.42945274       0.09862786
C       -0.48767677      -0.56893432       0.95880007
C       -1.62226854       0.04883780       0.15542099
O       -1.36661833      -0.41934239      -1.04485699
H        1.67004140      -0.84690415      -1.10238707
H        2.27308431       0.37441630       0.02740162
H        1.60887598       0.88310737      -1.54643630
H       -0.39927207      -1.64721498       0.85802790
H       -0.34800076      -0.19176397       1.96999858
H       -2.57238551       0.48493528       0.46801466
12
Frame=8 idx=001407 GeodesicLength=0.4142151713232693 rxn_smarts="[C:1]([C:2](=[O:3])[C:4]([C:5](=[O:6])[H:12])([H:10])[H:11])([H:7])([H:8])[H:9]>>[C:1]([C:2]12[O:3][C:5]([H:12])([C:4]1([H:10])[H:11])[O:6]2)([H:7])([H:8])[H:9]"
C        1.51985896       0.16700851      -0.73149121
C        0.17748733       0.29136095      -0.11660816
O       -0.45071054       1.43467653       0.09178084
C       -0.48527910      -0.56512610       0.95548546
C       -1.63109297       0.03935138       0.15748648
O       -1.38451437      -0.43753591      -1.04130687
H        1.66478221      -0.84234526      -1.11502546
H        2.27383990       0.35417985       0.03644280
H        1.62472331       0.89466123      -1.53373149
H       -0.38410758      -1.64250103       0.85701992
H       -0.35193703      -0.18363567       1.96590963
H       -2.57305013       0.48990552       0.47403804
12
Frame=9 idx=001407 GeodesicLength=0.46591112199208773 rxn_smarts="[C:1]([C:2](=[O:3])[C:4]([C:5](=[O:6])[H:12])([H:10])[H:11])([H:7])([H:8])[H:9]>>[C:1]([C:2]12[O:3][C:5]([H:12])([C:4]1([H:10])[H:11])[O:6]2)([H:7])([H:8])[H:9]"
C        1.52293761       0.16778661      -0.72992049
C        0.17641537       0.29557841      -0.12376820
O       -0.45020332       1.43999769       0.08487454
C       -0.48290777      -0.56125580       0.95206792
C       -1.63995521       0.02976658       0.15975527
O       -1.40258996      -0.45608306      -1.03734682
H        1.65967533      -0.83740080      -1.12776903
H        2.27424799       0.33372744       0.04527345
H        1.64070585       0.90609808      -1.52057984
H       -0.36904598      -1.63758051       0.85591764
H       -0.35574373      -0.17556429       1.96168890
H       -2.57353617       0.49492965       0.47980666
12
Frame=10 idx=001407 GeodesicLength=0.5175838298798008 rxn_smarts="[C:1]([C:2](=[O:3])[C:4]([C:5](=[O:6])[H:12])([H:10])[H:11])([H:7])([H:8])[H:9]>>[C:1]([C:2]12[O:3][C:5]([H:12])([C:4]1([H:10])[H:11])[O:6]2)([H:7])([H:8])[H:9]"
C        1.52602080       0.16859125      -0.72829877
C        0.17531823       0.29980739      -0.13105249
O       -0.44951880       1.44541934       0.07797496
C       -0.48057763      -0.55735309       0.94852713
C       -1.64884843       0.02010678       0.16223368
O       -1.42083913      -0.47492183      -1.03297267
H        1.65480227      -0.83210767      -1.14046812
H        2.27431741       0.31323673       0.05383864
H        1.65672922       0.91730020      -1.50708655
H       -0.35414182      -1.63248396       0.85465904
H       -0.35942838      -0.16762426       1.95733457
H       -2.57383373       0.50002913       0.48531057
12
Frame=11 idx=001407 GeodesicLength=0.5692633799198081 rxn_smarts="[C:1]([C:2](=[O:3])[C:4]([C:5](=[O:6])[H:12])([H:10])[H:11])([H:7])([H:8])[H:9]>>[C:1]([C:2]12[O:3][C:5]([H:12])([C:4]1([H:10])[H:11])[O:6]2)([H:7])([H:8])[H:9]"
C        1.52910436       0.16941835      -0.72663173
C        0.17418924       0.30405239      -0.13847613
O       -0.44867642       1.45094726       0.07103682
C       -0.47828122      -0.55338881       0.94487849
C       -1.65777682       0.01035479       0.16492531
O       -1.43926163      -0.49412483      -1.02815210
H        1.65010042      -0.82642522      -1.15326938
H        2.27404259       0.29255059       0.06216204
H        1.67286045       0.92836751      -1.49313806
H       -0.33935543      -1.62718720       0.85329376
H       -0.36298802      -0.15974409       1.95285282
H       -2.57395754       0.50517925       0.49051815
12
Frame=12 idx=001407 GeodesicLength=0.6209442544610801 rxn_smarts="[C:1]([C:2](=[O:3])[C:4]([C:5](=[O:6])[H:12])([H:10])[H:11])([H:7])([H:8])[H:9]>>[C:1]([C:2]12[O:3][C:5]([H:12])([C:4]1([H:10])[H:11])[O:6]2)([H:7])([H:8])[H:9]"
C        1.53217576       0.17026819      -0.72492425
C        0.17302373       0.30831746      -0.14605796
O       -0.44768823       1.45658179       0.06401355
C       -0.47601357      -0.54933542       0.94113197
C       -1.66673421       0.00049216       0.16783410
O       -1.45784113      -0.51375111      -1.02284683
H        1.64549709      -0.82029582      -1.16628308
H        2.27340639       0.27150781       0.07024642
H        1.68915956       0.93938839      -1.47862187
H       -0.32465895      -1.62166136       0.85186639
H       -0.36642015      -0.15185442       1.94824221
H       -2.57390630       0.51034235       0.49539935
12
Frame=13 idx=001407 GeodesicLength=0.6726261295137856 rxn_smarts="[C:1]([C:2](=[O:3])[C:4]([C:5](=[O:6])[H:12])([H:10])[H:11])([H:7])([H:8])[H:9]>>[C:1]([C:2]12[O:3][C:5]([H:12])([C:4]1([H:10])[H:11])[O:6]2)([H:7])([H:8])[H:9]"
C        1.53524326       0.17114094      -0.72317262
C        0.17183228       0.31260497      -0.15376971
O       -0.44652124       1.46233241       0.05697237
C       -0.47378744      -0.54521943       0.93727015
C       -1.67572020      -0.00945614       0.17096630
O       -1.47657790      -0.53374994      -1.01705086
H        1.64107871      -0.81375965      -1.17938492
H        2.27242558       0.25027926       0.07804396
H        1.70553953       0.95024612      -1.46363565
H       -0.31009332      -1.61593734       0.85031673
H       -0.36973335      -0.14402820       1.94350402
H       -2.57368593       0.51554702       0.49994023
12
Frame=14 idx=001407 GeodesicLength=0.7243023207675058 rxn_smarts="[C:1]([C:2](=[O:3])[C:4]([C:5](=[O:6])[H:12])([H:10])[H:11])([H:7])([H:8])[H:9]>>[C:1]([C:2]12[O:3][C:5]([H:12])([C:4]1([H:10])[H:11])[O:6]2)([H:7])([H:8])[H:9]"
C        1.53830504       0.17204029      -0.72137457
C        0.17063031       0.31692171      -0.16158760
O       -0.44513247       1.46821325       0.04997968
C       -0.47161661      -0.54107025       0.93327899
C       -1.68472602      -0.01946954       0.17432061
O       -1.49545999      -0.55406457      -1.01077295
H        1.63690652      -0.80686311      -1.19243578
H        2.27111528       0.22902681       0.08551677
H        1.72190599       0.96084540      -1.44829579
H       -0.29570693      -1.61005245       0.84859494
H       -0.37293771      -0.13633466       1.93864829
H       -2.57328340       0.52080712       0.50412740
12
Frame=15 idx=001407 GeodesicLength=0.7759540804158305 rxn_smarts="[C:1]([C:2](=[O:3])[C:4]([C:5](=[O:6])[H:12])([H:10])[H:11])([H:7])([H:8])[H:9]>>[C:1]([C:2]12[O:3][C:5]([H:12])([C:4]1([H:10])[H:11])[O:6]2)([H:7])([H:8])[H:9]"
C        1.54136355       0.17296782      -0.71952775
C        0.16943348       0.32127574      -0.16948133
O       -0.44348802       1.47422948       0.04310351
C       -0.46951374      -0.53690589       0.92914367
C       -1.69374746      -0.02953147       0.17789622
O       -1.51447251      -0.57464551      -1.00401090
H        1.63302484      -0.79964680      -1.20532744
H        2.26950460       0.20788236       0.09262996
H        1.73818087       0.97110327      -1.43270088
H       -0.28153638      -1.60402573       0.84665726
H       -0.37604929      -0.12882764       1.93367471
H       -2.57269994       0.52612436       0.50794298
12
Frame=16 idx=001407 GeodesicLength=0.8275894572687926 rxn_smarts="[C:1]([C:2](=[O:3])[C:4]([C:5](=[O:6])[H:12])([H:10])[H:11])([H:7])([H:8])[H:9]>>[C:1]([C:2]12[O:3][C:5]([H:12])([C:4]1([H:10])[H:11])[O:6]2)([H:7])([H:8])[H:9]"
C        1.54441171       0.17392327      -0.71763755
C        0.16823637       0.32567102      -0.17746634
O       -0.44159339       1.48038456       0.03630592
C       -0.46747729      -0.53270511       0.92487099
C       -1.70278361      -0.03965365       0.18169908
O       -1.53361224      -0.59554660      -0.99672601
H        1.62938498      -0.79207616      -1.21815335
H        2.26758239       0.18672837       0.09939275
H        1.75441661       0.98109435      -1.41676500
H       -0.26756067      -1.59783780       0.84453535
H       -0.37906683      -0.12145598       1.92858174
H       -2.57193804       0.53147375       0.51136243
