13
Frame=0 idx=008531 GeodesicLength=0.0 rxn_smarts="[O:1]=[C:2]1[C:3]([H:8])([H:9])[O:4][C@@:5]2([H:10])[C:6]([H:11])([H:12])[C@@:7]12[H:13]>>[O:1]1[C@:2]2([C:3]1([H:8])[H:9])[O:4][C@@:5]1([H:10])[C:6]([H:11])([H:12])[C@@:7]21[H:13]"
O        1.34045970       1.84265650      -0.42473801
C        0.72718307       0.79019709      -0.13632315
C        1.70035283      -0.06897673       0.47647220
O        0.45923414      -0.43482977      -1.30236845
C       -0.89506092      -0.34059414      -0.94156290
C       -1.16740678      -0.72100152       0.47325105
C       -0.76419438       0.69093018       0.12543924
H        1.68266741      -0.40729382       1.51174107
H        2.58971548      -0.22988443      -0.11776109
H       -1.63275571      -0.44000650      -1.72865442
H       -0.47201428      -1.40004470       0.95774877
H       -2.20226161      -0.84275796       0.76857025
H       -1.36591896       1.56160583       0.33818540
13
Frame=1 idx=008531 GeodesicLength=0.05591654550467752 rxn_smarts="[O:1]=[C:2]1[C:3]([H:8])([H:9])[O:4][C@@:5]2([H:10])[C:6]([H:11])([H:12])[C@@:7]12[H:13]>>[O:1]1[C@:2]2([C:3]1([H:8])[H:9])[O:4][C@@:5]1([H:10])[C:6]([H:11])([H:12])[C@@:7]21[H:13]"
O        1.35182781       1.84501782      -0.38464596
C        0.71942747       0.79403579      -0.13110122
C        1.70433661      -0.07159684       0.45576339
O        0.46534415      -0.44706839      -1.28756117
C       -0.89229583      -0.34755459      -0.93801535
C       -1.17692144      -0.71878003       0.47616934
C       -0.76953812       0.69113230       0.12421299
H        1.70088329      -0.40344658       1.49323498
H        2.59536632      -0.22401469      -0.13869137
H       -1.62261510      -0.44765976      -1.73160666
H       -0.48712442      -1.39412278       0.97309429
H       -2.21462571      -0.83817242       0.76230706
H       -1.37406503       1.56223018       0.32683968
13
Frame=2 idx=008531 GeodesicLength=0.11176023282813466 rxn_smarts="[O:1]=[C:2]1[C:3]([H:8])([H:9])[O:4][C@@:5]2([H:10])[C:6]([H:11])([H:12])[C@@:7]12[H:13]>>[O:1]1[C@:2]2([C:3]1([H:8])[H:9])[O:4][C@@:5]1([H:10])[C:6]([H:11])([H:12])[C@@:7]21[H:13]"
O        1.36265228       1.84668986      -0.34370633
C        0.71198030       0.79777999      -0.12632801
C        1.70822949      -0.07359115       0.43519565
O        0.47127735      -0.45940172      -1.27283974
C       -0.88953259      -0.35458328      -0.93439072
C       -1.18624278      -0.71643839       0.47908641
C       -0.77462025       0.69136763       0.12279372
H        1.71863298      -0.39996385       1.47433814
H        2.60077653      -0.21785136      -0.15952854
H       -1.61253508      -0.45545663      -1.73429885
H       -0.50212097      -1.38799475       0.98826878
H       -2.22666961      -0.83342270       0.75618201
H       -1.38182765       1.56286635       0.31522749
13
Frame=3 idx=008531 GeodesicLength=0.1675128196704125 rxn_smarts="[O:1]=[C:2]1[C:3]([H:8])([H:9])[O:4][C@@:5]2([H:10])[C:6]([H:11])([H:12])[C@@:7]12[H:13]>>[O:1]1[C@:2]2([C:3]1([H:8])[H:9])[O:4][C@@:5]1([H:10])[C:6]([H:11])([H:12])[C@@:7]21[H:13]"
O        1.37293438       1.84761398      -0.30201584
C        0.70482618       0.80145490      -0.12198667
C        1.71204223      -0.07497048       0.41478283
O        0.47704635      -0.47183025      -1.25816299
C       -0.88676815      -0.36167086      -0.93068174
C       -1.19537176      -0.71397179       0.48200030
C       -0.77944895       0.69163407       0.12119135
H        1.73590489      -0.39686694       1.45506729
H        2.60595786      -0.21134187      -0.18028025
H       -1.60251007      -0.46337712      -1.73673421
H       -0.51700562      -1.38166626       1.00326420
H       -2.23839792      -0.82851388       0.75017965
H       -1.38920941       1.56350649       0.30337608
13
Frame=4 idx=008531 GeodesicLength=0.223194832563253 rxn_smarts="[O:1]=[C:2]1[C:3]([H:8])([H:9])[O:4][C@@:5]2([H:10])[C:6]([H:11])([H:12])[C@@:7]12[H:13]>>[O:1]1[C@:2]2([C:3]1([H:8])[H:9])[O:4][C@@:5]1([H:10])[C:6]([H:11])([H:12])[C@@:7]21[H:13]"
O        1.38261694       1.84771490      -0.25956013
C        0.69796529       0.80510599      -0.11805985
C        1.71580405      -0.07574651       0.39449251
O        0.48268390      -0.48434862      -1.24351330
C       -0.88398085      -0.36882299      -0.92688162
C       -1.20432414      -0.71136870       0.48492961
C       -0.78402660       0.69194676       0.11941243
H        1.75269881      -0.39425158       1.43543082
H        2.61093332      -0.20440234      -0.20101853
H       -1.59249908      -0.47145040      -1.73892574
H       -0.53180710      -1.37511648       1.01813526
H       -2.24983924      -0.82342946       0.74430349
H       -1.39622529       1.56416943       0.29125504
13
Frame=5 idx=008531 GeodesicLength=0.27878422851257284 rxn_smarts="[O:1]=[C:2]1[C:3]([H:8])([H:9])[O:4][C@@:5]2([H:10])[C:6]([H:11])([H:12])[C@@:7]12[H:13]>>[O:1]1[C@:2]2([C:3]1([H:8])[H:9])[O:4][C@@:5]1([H:10])[C:6]([H:11])([H:12])[C@@:7]21[H:13]"
O        1.39169707       1.84692276      -0.21646598
C        0.69138308       0.80875561      -0.11452390
C        1.71952156      -0.07592881       0.37433738
O        0.48820752      -0.49694675      -1.22884648
C       -0.88116346      -0.37602442      -0.92298109
C       -1.21310117      -0.70862718       0.48786769
C       -0.78836255       0.69230264       0.11747192
H        1.76900537      -0.39212109       1.41545578
H        2.61570904      -0.19699636      -0.22174805
H       -1.58248946      -0.47964816      -1.74087233
H       -0.54652663      -1.36835203       1.03286774
H       -2.26099862      -0.81817972       0.73853175
H       -1.40288175       1.56484350       0.27890557
13
Frame=6 idx=008531 GeodesicLength=0.3342730322030407 rxn_smarts="[O:1]=[C:2]1[C:3]([H:8])([H:9])[O:4][C@@:5]2([H:10])[C:6]([H:11])([H:12])[C@@:7]12[H:13]>>[O:1]1[C@:2]2([C:3]1([H:8])[H:9])[O:4][C@@:5]1([H:10])[C:6]([H:11])([H:12])[C@@:7]21[H:13]"
O        1.40016244       1.84513480      -0.17284197
C        0.68507058       0.81244280      -0.11136878
C        1.72319148      -0.07551287       0.35433053
O        0.49363199      -0.50961127      -1.21412383
C       -0.87830727      -0.38326177      -0.91897391
C       -1.22169817      -0.70574411       0.49080917
C       -0.79246075       0.69270144       0.11538240
H        1.78481200      -0.39048609       1.39516816
H        2.62028163      -0.18908645      -0.24247132
H       -1.57246814      -0.48794731      -1.74257630
H       -0.56115993      -1.36137437       1.04745095
H       -2.27187243      -0.81277288       0.73284933
H       -1.40918344       1.56551807       0.26636555
13
Frame=7 idx=008531 GeodesicLength=0.38968114075699123 rxn_smarts="[O:1]=[C:2]1[C:3]([H:8])([H:9])[O:4][C@@:5]2([H:10])[C:6]([H:11])([H:12])[C@@:7]12[H:13]>>[O:1]1[C@:2]2([C:3]1([H:8])[H:9])[O:4][C@@:5]1([H:10])[C:6]([H:11])([H:12])[C@@:7]21[H:13]"
O        1.40804460       1.84237031      -0.12873423
C        0.67900619       0.81617464      -0.10856398
C        1.72683711      -0.07451492       0.33445547
O        0.49897906      -0.52236146      -1.19932937
C       -0.87540549      -0.39054104      -0.91486902
C       -1.23013950      -0.70273335       0.49376296
C       -0.79633747       0.69314942       0.11315175
H        1.80014135      -0.38930603       1.37457836
H        2.62464682      -0.18067137      -0.26321189
H       -1.56241370      -0.49634146      -1.74407067
H       -0.57573733      -1.35421246       1.06190529
H       -2.28249336      -0.80723018       0.72725872
H       -1.41512829       1.56621790       0.25366662
13
Frame=8 idx=008531 GeodesicLength=0.44497744862901883 rxn_smarts="[O:1]=[C:2]1[C:3]([H:8])([H:9])[O:4][C@@:5]2([H:10])[C:6]([H:11])([H:12])[C@@:7]12[H:13]>>[O:1]1[C@:2]2([C:3]1([H:8])[H:9])[O:4][C@@:5]1([H:10])[C:6]([H:11])([H:12])[C@@:7]21[H:13]"
O        1.41529954       1.83850494      -0.08430907
C        0.67318520       0.81997872      -0.10604893
C        1.73045867      -0.07294896       0.31472886
O        0.50427159      -0.53514310      -1.18440532
C       -0.87243950      -0.39783625      -0.91064145
C       -1.23842962      -0.69958542       0.49671769
C       -0.80000133       0.69364029       0.11081041
H        1.81502139      -0.38862924       1.35371719
H        2.62880896      -0.17169592      -0.28399639
H       -1.55228845      -0.50480885      -1.74533975
H       -0.59026939      -1.34684224       1.07623072
H       -2.29287247      -0.80155106       0.72171314
H       -1.42074459       1.56691709       0.24082289
13
Frame=9 idx=008531 GeodesicLength=0.5001845680423497 rxn_smarts="[O:1]=[C:2]1[C:3]([H:8])([H:9])[O:4][C@@:5]2([H:10])[C:6]([H:11])([H:12])[C@@:7]12[H:13]>>[O:1]1[C@:2]2([C:3]1([H:8])[H:9])[O:4][C@@:5]1([H:10])[C:6]([H:11])([H:12])[C@@:7]21[H:13]"
O        1.42192867       1.83347054      -0.03967017
C        0.66758692       0.82386973      -0.10375146
C        1.73406517      -0.07083692       0.29514543
O        0.50953665      -0.54791945      -1.16930968
C       -0.86938979      -0.40513643      -0.90627545
C       -1.24658980      -0.69630128       0.49967337
C       -0.80346995       0.69417737       0.10838159
H        1.82950531      -0.38849426       1.33258934
H        2.63275821      -0.16210545      -0.30486651
H       -1.54204490      -0.51335271      -1.74638624
H       -0.60478638      -1.33924517       1.09045936
H       -2.30303886      -0.79573922       0.71617678
H       -1.42606126       1.56761323       0.22783362
13
Frame=10 idx=008531 GeodesicLength=0.5553532291883402 rxn_smarts="[O:1]=[C:2]1[C:3]([H:8])([H:9])[O:4][C@@:5]2([H:10])[C:6]([H:11])([H:12])[C@@:7]12[H:13]>>[O:1]1[C@:2]2([C:3]1([H:8])[H:9])[O:4][C@@:5]1([H:10])[C:6]([H:11])([H:12])[C@@:7]21[H:13]"
O        1.42792953       1.82719244       0.00517513
C        0.66220643       0.82787966      -0.10166029
C        1.73766473      -0.06816096       0.27569388
O        0.51478554      -0.56070163      -1.15402197
C       -0.86625270      -0.41244296      -0.90177968
C       -1.25463058      -0.69288770       0.50263407
C       -0.80674972       0.69476860       0.10586774
H        1.84362226      -0.38883944       1.31119038
H        2.63647930      -0.15191413      -0.32583217
H       -1.53167443      -0.52197199      -1.74723496
H       -0.61930316      -1.33143763       1.10460025
H       -2.31300651      -0.78981212       0.71064908
H       -1.43107068       1.56832786       0.21471856
13
Frame=11 idx=008531 GeodesicLength=0.6104461219560308 rxn_smarts="[O:1]=[C:2]1[C:3]([H:8])([H:9])[O:4][C@@:5]2([H:10])[C:6]([H:11])([H:12])[C@@:7]12[H:13]>>[O:1]1[C@:2]2([C:3]1([H:8])[H:9])[O:4][C@@:5]1([H:10])[C:6]([H:11])([H:12])[C@@:7]21[H:13]"
O        1.43335089       1.81966668       0.05000276
C        0.65701792       0.83199261      -0.09967109
C        1.74125436      -0.06496130       0.25640085
O        0.52003824      -0.57344168      -1.13848749
C       -0.86301453      -0.41973357      -0.89713400
C       -1.26257826      -0.68935696       0.50558461
C       -0.80986378       0.69540099       0.10331030
H        1.85744277      -0.38965853       1.28955320
H        2.63995331      -0.14109856      -0.34691541
H       -1.52113168      -0.53063403      -1.74788509
H       -0.63385745      -1.32342188       1.11865465
H       -2.32280810      -0.78379049       0.70507080
H       -1.43580370       1.56903673       0.20151590
13
Frame=12 idx=008531 GeodesicLength=0.6654872372893951 rxn_smarts="[O:1]=[C:2]1[C:3]([H:8])([H:9])[O:4][C@@:5]2([H:10])[C:6]([H:11])([H:12])[C@@:7]12[H:13]>>[O:1]1[C@:2]2([C:3]1([H:8])[H:9])[O:4][C@@:5]1([H:10])[C:6]([H:11])([H:12])[C@@:7]21[H:13]"
O        1.43819832       1.81085345       0.09476868
C        0.65201017       0.83620681      -0.09771144
C        1.74484307      -0.06125238       0.23725929
O        0.52531196      -0.58611841      -1.12266433
C       -0.85966389      -0.42700627      -0.89232426
C       -1.27045761      -0.68571035       0.50852300
C       -0.81282844       0.69607306       0.10072363
H        1.87104250      -0.39095276       1.26766058
H        2.64316285      -0.12962925      -0.36816010
H       -1.51038146      -0.53934805      -1.74833842
H       -0.64848586      -1.31518107       1.13264772
H       -2.33247408      -0.77767395       0.69941105
H       -1.44027752       1.56973917       0.18820459
13
Frame=13 idx=008531 GeodesicLength=0.7205267104549431 rxn_smarts="[O:1]=[C:2]1[C:3]([H:8])([H:9])[O:4][C@@:5]2([H:10])[C:6]([H:11])([H:12])[C@@:7]12[H:13]>>[O:1]1[C@:2]2([C:3]1([H:8])[H:9])[O:4][C@@:5]1([H:10])[C:6]([H:11])([H:12])[C@@:7]21[H:13]"
O        1.44248510       1.80068152       0.13941409
C        0.64716313       0.84052716      -0.09570730
C        1.74843269      -0.05704577       0.21826588
O        0.53062705      -0.59871436      -1.10651397
C       -0.85618361      -0.43425846      -0.88734102
C       -1.27829592      -0.68195152       0.51144859
C       -0.81566031       0.69678662       0.09812429
H        1.88451313      -0.39270401       1.24549463
H        2.64606868      -0.11747499      -0.38960643
H       -1.49937540      -0.54811641      -1.74860553
H       -0.66323187      -1.30669836       1.14661085
H       -2.34203585      -0.77147002       0.69363533
H       -1.44450683       1.57043861       0.17478058
13
Frame=14 idx=008531 GeodesicLength=0.7755359044306642 rxn_smarts="[O:1]=[C:2]1[C:3]([H:8])([H:9])[O:4][C@@:5]2([H:10])[C:6]([H:11])([H:12])[C@@:7]12[H:13]>>[O:1]1[C@:2]2([C:3]1([H:8])[H:9])[O:4][C@@:5]1([H:10])[C:6]([H:11])([H:12])[C@@:7]21[H:13]"
O        1.44629792       1.78917296       0.18372353
C        0.64245944       0.84494580      -0.09359379
C        1.75201019      -0.05235568       0.19945127
O        0.53599121      -0.61121410      -1.08999213
C       -0.85257441      -0.44146877      -0.88218038
C       -1.28611427      -0.67810751       0.51434190
C       -0.81837570       0.69753127       0.09554988
H        1.89790453      -0.39480036       1.22311018
H        2.64864427      -0.10469063      -0.41124255
H       -1.48809964      -0.55689072      -1.74869704
H       -0.67812544      -1.29802895       1.16050610
H       -2.35151736      -0.76522025       0.68769826
H       -1.44850074       1.57112693       0.16132478
13
Frame=15 idx=008531 GeodesicLength=0.8305603894779301 rxn_smarts="[O:1]=[C:2]1[C:3]([H:8])([H:9])[O:4][C@@:5]2([H:10])[C:6]([H:11])([H:12])[C@@:7]12[H:13]>>[O:1]1[C@:2]2([C:3]1([H:8])[H:9])[O:4][C@@:5]1([H:10])[C:6]([H:11])([H:12])[C@@:7]21[H:13]"
O        1.44965388       1.77627640       0.22761816
C        0.63788260       0.84944894      -0.09127795
C        1.75556740      -0.04719869       0.18081442
O        0.54142216      -0.62359999      -1.07305076
C       -0.84881556      -0.44863112      -0.87682558
C       -1.29393887      -0.67418066       0.51719870
C       -0.82098831       0.69830028       0.09302746
H        1.91129844      -0.39720724       1.20047762
H        2.65084418      -0.09125275      -0.43310935
H       -1.47649367      -0.56566671      -1.74861462
H       -0.69321907      -1.28916120       1.17434968
H       -2.36094343      -0.75892319       0.68156180
H       -1.45226977       1.57179592       0.14783042
13
Frame=16 idx=008531 GeodesicLength=0.8855636522100521 rxn_smarts="[O:1]=[C:2]1[C:3]([H:8])([H:9])[O:4][C@@:5]2([H:10])[C:6]([H:11])([H:12])[C@@:7]12[H:13]>>[O:1]1[C@:2]2([C:3]1([H:8])[H:9])[O:4][C@@:5]1([H:10])[C:6]([H:11])([H:12])[C@@:7]21[H:13]"
O        1.45264701       1.76204422       0.27088451
C        0.63341448       0.85402275      -0.08870526
C        1.75908357      -0.04159445       0.16238819
O        0.54692895      -0.63585794      -1.05565010
C       -0.84490512      -0.45572670      -0.87127611
C       -1.30179330      -0.67020086       0.51999742
C       -0.82351118       0.69908129       0.09058994
H        1.92475768      -0.39980541       1.17765619
H        2.65262147      -0.07723263      -0.45518783
H       -1.46454019      -0.57439032      -1.74836795
H       -0.70854867      -1.28015148       1.18810224
H       -2.37033919      -0.75262134       0.67518421
H       -1.45581550       1.57243288       0.13438454
