8
Frame=0 idx=006175 GeodesicLength=0.0 rxn_smarts="[C:1]([C:2]#[C:3][C:4]#[N:5])([H:6])([H:7])[H:8]>>[C:1]([C:2](=[C-:3])[N+:5]#[C:4])([H:6])([H:7])[H:8]"
C       -1.15155891      -0.09776307      -0.04795315
C        0.23590724       0.32258484       0.09954775
C        1.26376330       1.03825034       0.33007678
C        2.63059963      -0.07536564       0.01958618
N        1.54986007      -0.61573381      -0.15831972
H       -1.78715080       0.75152437       0.20326984
H       -1.38190844      -0.92165985       0.62805749
H       -1.35951208      -0.40183718      -1.07426515
8
Frame=1 idx=006175 GeodesicLength=0.08943573382587135 rxn_smarts="[C:1]([C:2]#[C:3][C:4]#[N:5])([H:6])([H:7])[H:8]>>[C:1]([C:2](=[C-:3])[N+:5]#[C:4])([H:6])([H:7])[H:8]"
C       -1.15635070      -0.09664211      -0.04741562
C        0.23830992       0.31259059       0.06466573
C        1.24696511       1.03994092       0.33079711
C        2.63983572      -0.07449508       0.06980984
N        1.58574337      -0.62017690      -0.19949425
H       -1.78262971       0.75718649       0.21234696
H       -1.38201228      -0.91507271       0.63667877
H       -1.38986142      -0.40333119      -1.06738854
8
Frame=2 idx=006175 GeodesicLength=0.17881022105045086 rxn_smarts="[C:1]([C:2]#[C:3][C:4]#[N:5])([H:6])([H:7])[H:8]>>[C:1]([C:2](=[C-:3])[N+:5]#[C:4])([H:6])([H:7])[H:8]"
C       -1.16045598      -0.09538914      -0.04692210
C        0.24059283       0.30240265       0.03191963
C        1.22919403       1.04091960       0.33260041
C        2.64558069      -0.07427260       0.11513299
N        1.62326703      -0.62374097      -0.23748239
H       -1.77774160       0.76293024       0.22012648
H       -1.38244722      -0.90823900       0.64490879
H       -1.41798978      -0.40461078      -1.06028381
8
Frame=3 idx=006175 GeodesicLength=0.2681919032369104 rxn_smarts="[C:1]([C:2]#[C:3][C:4]#[N:5])([H:6])([H:7])[H:8]>>[C:1]([C:2](=[C-:3])[N+:5]#[C:4])([H:6])([H:7])[H:8]"
C       -1.16406870      -0.09404797      -0.04639187
C        0.24273145       0.29170779       0.00189900
C        1.21056765       1.04135194       0.33468103
C        2.64874193      -0.07450591       0.15601781
N        1.66232365      -0.62651368      -0.27260471
H       -1.77263809       0.76874806       0.22680675
H       -1.38366061      -0.90128020       0.65266898
H       -1.44399728      -0.40546002      -1.05307699
8
Frame=4 idx=006175 GeodesicLength=0.35755357775706287 rxn_smarts="[C:1]([C:2]#[C:3][C:4]#[N:5])([H:6])([H:7])[H:8]>>[C:1]([C:2](=[C-:3])[N+:5]#[C:4])([H:6])([H:7])[H:8]"
C       -1.16746230      -0.09265319      -0.04579616
C        0.24469133       0.28002123      -0.02432334
C        1.19131210       1.04122542       0.33686571
C        2.65057323      -0.07427368       0.19132582
N        1.70267131      -0.62914327      -0.30402928
H       -1.76752239       0.77472866       0.23231158
H       -1.38655435      -0.89431964       0.65973856
H       -1.46770893      -0.40558554      -1.04609289
8
Frame=5 idx=006175 GeodesicLength=0.4469350575257493 rxn_smarts="[C:1]([C:2]#[C:3][C:4]#[N:5])([H:6])([H:7])[H:8]>>[C:1]([C:2](=[C-:3])[N+:5]#[C:4])([H:6])([H:7])[H:8]"
C       -1.17060583      -0.09124904      -0.04501988
C        0.24646718       0.26812667      -0.04816184
C        1.17161769       1.04072511       0.33909212
C        2.65048414      -0.07555115       0.22477950
N        1.74448277      -0.62987840      -0.33551021
H       -1.76258310       0.78074167       0.23658417
H       -1.39010336      -0.88694095       0.66705941
H       -1.48975950      -0.40597391      -1.03882327
8
Frame=6 idx=006175 GeodesicLength=0.5363295401367473 rxn_smarts="[C:1]([C:2]#[C:3][C:4]#[N:5])([H:6])([H:7])[H:8]>>[C:1]([C:2](=[C-:3])[N+:5]#[C:4])([H:6])([H:7])[H:8]"
C       -1.17371708      -0.08985672      -0.04410048
C        0.24807198       0.25542470      -0.06907884
C        1.15157689       1.03992716       0.34083968
C        2.64938880      -0.07719470       0.25507895
N        1.78770498      -0.62970700      -0.36523086
H       -1.75779094       0.78681197       0.24008757
H       -1.39497752      -0.87951007       0.67408331
H       -1.51025711      -0.40589532      -1.03167932
8
Frame=7 idx=006175 GeodesicLength=0.6257893565853956 rxn_smarts="[C:1]([C:2]#[C:3][C:4]#[N:5])([H:6])([H:7])[H:8]>>[C:1]([C:2](=[C-:3])[N+:5]#[C:4])([H:6])([H:7])[H:8]"
C       -1.17684966      -0.08847583      -0.04303280
C        0.24948694       0.24213519      -0.08732465
C        1.13122710       1.03848064       0.34321180
C        2.64748178      -0.07964271       0.28245725
N        1.83236096      -0.62797123      -0.39434609
H       -1.75332308       0.79308611       0.24215315
H       -1.40115786      -0.87150765       0.68138427
H       -1.52922618      -0.40610452      -1.02450293
8
Frame=8 idx=006175 GeodesicLength=0.7152580679575201 rxn_smarts="[C:1]([C:2]#[C:3][C:4]#[N:5])([H:6])([H:7])[H:8]>>[C:1]([C:2](=[C-:3])[N+:5]#[C:4])([H:6])([H:7])[H:8]"
C       -1.18014697      -0.08711428      -0.04182287
C        0.25070378       0.22799336      -0.10260949
C        1.11065963       1.03632884       0.34617192
C        2.64545585      -0.08230264       0.30631408
N        1.87832157      -0.62510450      -0.42221839
H       -1.74922353       0.79959713       0.24289354
H       -1.40903650      -0.86303004       0.68876143
H       -1.54673383      -0.40636787      -1.01749022
8
Frame=9 idx=006175 GeodesicLength=0.804744782342849 rxn_smarts="[C:1]([C:2]#[C:3][C:4]#[N:5])([H:6])([H:7])[H:8]>>[C:1]([C:2](=[C-:3])[N+:5]#[C:4])([H:6])([H:7])[H:8]"
C       -1.18365880      -0.08577374      -0.04046406
C        0.25171166       0.21307499      -0.11507420
C        1.08991468       1.03329689       0.35017399
C        2.64349784      -0.08542860       0.32689929
N        1.92558465      -0.62072589      -0.44944974
H       -1.74556894       0.80641739       0.24201127
H       -1.41862290      -0.85379925       0.69647957
H       -1.56285819      -0.40706179      -1.01057614
8
Frame=10 idx=006175 GeodesicLength=0.8942350729501856 rxn_smarts="[C:1]([C:2]#[C:3][C:4]#[N:5])([H:6])([H:7])[H:8]>>[C:1]([C:2](=[C-:3])[N+:5]#[C:4])([H:6])([H:7])[H:8]"
C       -1.18745630      -0.08447842      -0.03895262
C        0.25252314       0.19709335      -0.12489149
C        1.06901698       1.02959621       0.35430684
C        2.64188084      -0.08854821       0.34448411
N        1.97416792      -0.61535224      -0.47540270
H       -1.74221557       0.81341865       0.24022021
H       -1.42993923      -0.84417293       0.70414273
H       -1.57797780      -0.40755641      -1.00390708
8
Frame=11 idx=006175 GeodesicLength=0.9837300904860024 rxn_smarts="[C:1]([C:2]#[C:3][C:4]#[N:5])([H:6])([H:7])[H:8]>>[C:1]([C:2](=[C-:3])[N+:5]#[C:4])([H:6])([H:7])[H:8]"
C       -1.19155296      -0.08320974      -0.03728082
C        0.25310267       0.18029701      -0.13203326
C        1.04801794       1.02485254       0.35974379
C        2.64067037      -0.09224776       0.35911007
N        2.02401273      -0.60819949      -0.50115888
H       -1.73932096       0.82078712       0.23664417
H       -1.44302569      -0.83354537       0.71229306
H       -1.59190410      -0.40873430      -0.99731813
8
Frame=12 idx=006175 GeodesicLength=1.0732297681764666 rxn_smarts="[C:1]([C:2]#[C:3][C:4]#[N:5])([H:6])([H:7])[H:8]>>[C:1]([C:2](=[C-:3])[N+:5]#[C:4])([H:6])([H:7])[H:8]"
C       -1.19600699      -0.08199769      -0.03543493
C        0.25345216       0.16236785      -0.13648392
C        1.02694077       1.01922712       0.36575232
C        2.64012513      -0.09601126       0.37084986
N        2.07511457      -0.59975745      -0.52615058
H       -1.73673264       0.82841877       0.23185735
H       -1.45799073      -0.82221013       0.72056164
H       -1.60490226      -0.41003721      -0.99095175
8
Frame=13 idx=006175 GeodesicLength=1.1628133139494534 rxn_smarts="[C:1]([C:2]#[C:3][C:4]#[N:5])([H:6])([H:7])[H:8]>>[C:1]([C:2](=[C-:3])[N+:5]#[C:4])([H:6])([H:7])[H:8]"
C       -1.20074846      -0.08083994      -0.03342260
C        0.25354757       0.14357808      -0.13886715
C        1.00577604       1.01285627       0.37207952
C        2.63979163      -0.10045328       0.38049189
N        2.12761012      -0.58966001      -0.55070145
H       -1.73438472       0.83622875       0.22602557
H       -1.47435482      -0.81011650       0.72905834
H       -1.61723737      -0.41159337      -0.98466412
8
Frame=14 idx=006175 GeodesicLength=1.2523249111836936 rxn_smarts="[C:1]([C:2]#[C:3][C:4]#[N:5])([H:6])([H:7])[H:8]>>[C:1]([C:2](=[C-:3])[N+:5]#[C:4])([H:6])([H:7])[H:8]"
C       -1.20587855      -0.07972256      -0.03122081
C        0.25335227       0.12373020      -0.13832762
C        0.98461793       1.00516064       0.38009314
C        2.64028944      -0.10539088       0.38711469
N        2.18122816      -0.57752542      -0.57535093
H       -1.73236633       0.84447293       0.21810010
H       -1.49279230      -0.79664823       0.73804418
H       -1.62845062      -0.41407667      -0.97845275
8
Frame=15 idx=006175 GeodesicLength=1.3418417993191503 rxn_smarts="[C:1]([C:2]#[C:3][C:4]#[N:5])([H:6])([H:7])[H:8]>>[C:1]([C:2](=[C-:3])[N+:5]#[C:4])([H:6])([H:7])[H:8]"
C       -1.21140348      -0.07866884      -0.02881997
C        0.25284109       0.10264453      -0.13493712
C        0.96346668       0.99636114       0.38913560
C        2.64167591      -0.11044741       0.39087198
N        2.23594922      -0.56381490      -0.59965744
H       -1.73050492       0.85302535       0.20864263
H       -1.51323839      -0.78207914       0.74718663
H       -1.63878610      -0.41702072      -0.97242232
8
Frame=16 idx=006175 GeodesicLength=1.431433684342861 rxn_smarts="[C:1]([C:2]#[C:3][C:4]#[N:5])([H:6])([H:7])[H:8]>>[C:1]([C:2](=[C-:3])[N+:5]#[C:4])([H:6])([H:7])[H:8]"
C       -1.21718086      -0.07767179      -0.02624380
C        0.25195568       0.08091839      -0.12985020
C        0.94230239       0.98677564       0.39855037
C        2.64301897      -0.11667390       0.39288627
N        2.29207938      -0.54805386      -0.62369371
H       -1.72871635       0.86165733       0.19807303
H       -1.53475439      -0.76646880       0.75656685
H       -1.64870482      -0.42048300      -0.96628881
