15
Frame=0 idx=000976 GeodesicLength=0.0 rxn_smarts="[C:1]([N:2]([C:3]([H:10])([H:11])[H:12])[C:4]([C:5](=[O:6])[H:15])([H:13])[H:14])([H:7])([H:8])[H:9]>>[C:1]([N:2]([C:3]([H:10])([H:11])[H:12])[C:4](=[C:5]=[O:6])[H:13])([H:7])([H:8])[H:9].[H:14][H:15]"
C       -1.45562553      -0.88234204      -0.14294841
N       -0.33760803      -0.01573041       0.19248701
C       -0.70754020       1.39481917       0.11906106
C        0.83493269      -0.33629483      -0.51251373
C        2.06325543      -0.25690985       0.12488021
O        3.25081540      -0.28114156      -0.14709427
H       -1.78781685      -0.75641202      -1.18500763
H       -2.29840644      -0.65711651       0.51200253
H       -1.17461331      -1.92461740       0.00762876
H       -1.51895373       1.58930080       0.82252598
H        0.14373277       2.01491990       0.39319294
H       -1.04366389       1.68768957      -0.88710464
H        0.79301614      -0.53190897      -1.58630452
H        1.51124573      -1.00959306       0.96610494
H        1.72722982      -0.03466281       1.32308978
15
Frame=1 idx=000976 GeodesicLength=0.11340802407121152 rxn_smarts="[C:1]([N:2]([C:3]([H:10])([H:11])[H:12])[C:4]([C:5](=[O:6])[H:15])([H:13])[H:14])([H:7])([H:8])[H:9]>>[C:1]([N:2]([C:3]([H:10])([H:11])[H:12])[C:4](=[C:5]=[O:6])[H:13])([H:7])([H:8])[H:9].[H:14][H:15]"
C       -1.45548108      -0.88305319      -0.13947589
N       -0.33844107      -0.01389688       0.19021244
C       -0.70632435       1.39576020       0.11275029
C        0.83580172      -0.34042351      -0.51108073
C        2.06768668      -0.24598143       0.12118947
O        3.25079778      -0.26364945      -0.15952305
H       -1.79130098      -0.75901719      -1.18073603
H       -2.29541523      -0.65818359       0.51932578
H       -1.17335422      -1.92523914       0.00983530
H       -1.51595990       1.59257832       0.81768870
H        0.14585890       2.01602002       0.38431732
H       -1.04226160       1.68519426      -0.89458652
H        0.79625124      -0.51646134      -1.58856639
H        1.49024457      -1.02616490       0.96936445
H        1.73189754      -0.05748219       1.34928486
15
Frame=2 idx=000976 GeodesicLength=0.22685372439505527 rxn_smarts="[C:1]([N:2]([C:3]([H:10])([H:11])[H:12])[C:4]([C:5](=[O:6])[H:15])([H:13])[H:14])([H:7])([H:8])[H:9]>>[C:1]([N:2]([C:3]([H:10])([H:11])[H:12])[C:4](=[C:5]=[O:6])[H:13])([H:7])([H:8])[H:9].[H:14][H:15]"
C       -1.45534895      -0.88366513      -0.13593133
N       -0.33920238      -0.01205593       0.18790874
C       -0.70504134       1.39669755       0.10629636
C        0.83675858      -0.34471288      -0.50957747
C        2.07210892      -0.23416312       0.11726175
O        3.25070742      -0.24471361      -0.17200183
H       -1.79479658      -0.76158066      -1.17638292
H       -2.29237618      -0.65904658       0.52672577
H       -1.17226386      -1.92579417       0.01216280
H       -1.51294354       1.59594295       0.81261586
H        0.14800310       2.01712644       0.37540193
H       -1.04064669       1.68263025      -0.90226441
H        0.79945258      -0.50153891      -1.59036071
H        1.46844755      -1.04310647       0.97274045
H        1.73714137      -0.08201973       1.37540502
15
Frame=3 idx=000976 GeodesicLength=0.34033823452669615 rxn_smarts="[C:1]([N:2]([C:3]([H:10])([H:11])[H:12])[C:4]([C:5](=[O:6])[H:15])([H:13])[H:14])([H:7])([H:8])[H:9]>>[C:1]([N:2]([C:3]([H:10])([H:11])[H:12])[C:4](=[C:5]=[O:6])[H:13])([H:7])([H:8])[H:9].[H:14][H:15]"
C       -1.45521608      -0.88417192      -0.13231751
N       -0.33989100      -0.01019094       0.18558951
C       -0.70371540       1.39764007       0.09969754
C        0.83782545      -0.34913111      -0.50795848
C        2.07652318      -0.22134499       0.11308782
O        3.25053676      -0.22441958      -0.18454487
H       -1.79827915      -0.76409982      -1.17195483
H       -2.28928599      -0.65971179       0.53419075
H       -1.17132429      -1.92627615       0.01460596
H       -1.50994235       1.59939381       0.80729312
H        0.15012030       2.01827265       0.36645694
H       -1.03882815       1.67999386      -0.91014750
H        0.80262290      -0.48718846      -1.59165694
H        1.44577038      -1.06039352       0.97629504
H        1.74308344      -0.10837211       1.40136345
15
Frame=4 idx=000976 GeodesicLength=0.45386324259605143 rxn_smarts="[C:1]([N:2]([C:3]([H:10])([H:11])[H:12])[C:4]([C:5](=[O:6])[H:15])([H:13])[H:14])([H:7])([H:8])[H:9]>>[C:1]([N:2]([C:3]([H:10])([H:11])[H:12])[C:4](=[C:5]=[O:6])[H:13])([H:7])([H:8])[H:9].[H:14][H:15]"
C       -1.45506913      -0.88456605      -0.12863651
N       -0.34050731      -0.00828254       0.18327290
C       -0.70237376       1.39859859       0.09295037
C        0.83902745      -0.35364314      -0.50616640
C        2.08092910      -0.20739891       0.10866058
O        3.25027923      -0.20284925      -0.19717456
H       -1.80171992      -0.76657242      -1.16745930
H       -2.28614387      -0.66018413       0.54170662
H       -1.17051797      -1.92667694       0.01716206
H       -1.50700356       1.60293322       0.80169711
H        0.15215879       2.01949670       0.35749730
H       -1.03680920       1.67728048      -0.91825012
H        0.80576609      -0.47346519      -1.59241602
H        1.42212175      -1.07800447       0.98009617
H        1.74986231      -0.13666595       1.42705978
15
Frame=5 idx=000976 GeodesicLength=0.5674313143556002 rxn_smarts="[C:1]([N:2]([C:3]([H:10])([H:11])[H:12])[C:4]([C:5](=[O:6])[H:15])([H:13])[H:14])([H:7])([H:8])[H:9]>>[C:1]([N:2]([C:3]([H:10])([H:11])[H:12])[C:4](=[C:5]=[O:6])[H:13])([H:7])([H:8])[H:9].[H:14][H:15]"
C       -1.45489445      -0.88483817      -0.12489002
N       -0.34105325      -0.00630831       0.18098281
C       -0.70104738       1.39958598       0.08604981
C        0.84039306      -0.35821021      -0.50412912
C        2.08532458      -0.19217700       0.10397544
O        3.24992888      -0.18008246      -0.20992223
H       -1.80508451      -0.76899660      -1.16290570
H       -2.28295253      -0.66046675       0.54925549
H       -1.16982764      -1.92698636       0.01983080
H       -1.50418555       1.60656676       0.79579435
H        0.15405860       2.02084187       0.34854361
H       -1.03458672       1.67448429      -0.92659185
H        0.80888744      -0.46043382      -1.59258794
H        1.39740098      -1.09591762       0.98422191
H        1.75763850      -0.16706160       1.45237264
15
Frame=6 idx=000976 GeodesicLength=0.6810458432365902 rxn_smarts="[C:1]([N:2]([C:3]([H:10])([H:11])[H:12])[C:4]([C:5](=[O:6])[H:15])([H:13])[H:14])([H:7])([H:8])[H:9]>>[C:1]([N:2]([C:3]([H:10])([H:11])[H:12])[C:4](=[C:5]=[O:6])[H:13])([H:7])([H:8])[H:9].[H:14][H:15]"
C       -1.45467851      -0.88497708      -0.12108017
N       -0.34153288      -0.00424277       0.17874956
C       -0.69977112       1.40061711       0.07898959
C        0.84195465      -0.36279010      -0.50175666
C        2.08970515      -0.17551069       0.09903014
O        3.24948016      -0.15619666      -0.22282919
H       -1.80833187      -0.77137084      -1.15830663
H       -2.27971961      -0.66056102       0.55681382
H       -1.16923730      -1.92719232       0.02261397
H       -1.50155877       1.61030289       0.78954095
H        0.15575099       2.02235703       0.33962332
H       -1.03215012       1.67159806      -0.93519755
H        0.81199420      -0.44817057      -1.59210892
H        1.37149525      -1.11410555       0.98876705
H        1.76659978      -0.19975749       1.47715071
15
Frame=7 idx=000976 GeodesicLength=0.7947116082356155 rxn_smarts="[C:1]([N:2]([C:3]([H:10])([H:11])[H:12])[C:4]([C:5](=[O:6])[H:15])([H:13])[H:14])([H:7])([H:8])[H:9]>>[C:1]([N:2]([C:3]([H:10])([H:11])[H:12])[C:4](=[C:5]=[O:6])[H:13])([H:7])([H:8])[H:9].[H:14][H:15]"
C       -1.45440897      -0.88496841      -0.11720816
N       -0.34195269      -0.00205708       0.17661158
C       -0.69858262       1.40170898       0.07176057
C        0.84374873      -0.36733865      -0.49893709
C        2.09406199      -0.15721095       0.09382621
O        3.24892565      -0.13124470      -0.23594458
H       -1.81141376      -0.77369371      -1.15367719
H       -2.27645944      -0.66046342       0.56435252
H       -1.16873460      -1.92727956       0.02551828
H       -1.49920684       1.61415535       0.78287790
H        0.15715890       2.02409626       0.33077132
H       -1.02947645       1.66861199      -0.94410001
H        0.81509629      -0.43676965      -1.59089796
H        1.34427658      -1.13253898       0.99384536
H        1.77696722      -0.23500744       1.50120125
15
Frame=8 idx=000976 GeodesicLength=0.9084340405606591 rxn_smarts="[C:1]([N:2]([C:3]([H:10])([H:11])[H:12])[C:4]([C:5](=[O:6])[H:15])([H:13])[H:14])([H:7])([H:8])[H:9]>>[C:1]([N:2]([C:3]([H:10])([H:11])[H:12])[C:4](=[C:5]=[O:6])[H:13])([H:7])([H:8])[H:9].[H:14][H:15]"
C       -1.45407588      -0.88479425      -0.11327461
N       -0.34232218       0.00028062       0.17461667
C       -0.69752116       1.40288053       0.06435009
C        0.84581631      -0.37181166      -0.49553143
C        2.09838066      -0.13707099       0.08836920
O        3.24825365      -0.10523945      -0.24932508
H       -1.81427427      -0.77596387      -1.14903621
H       -2.27319530      -0.66016414       0.57183540
H       -1.16831337      -1.92722961       0.02855604
H       -1.49722640       1.61814383       0.77572863
H        0.15819807       2.02611876       0.32203020
H       -1.02652689       1.66551265      -0.95334142
H        0.81820705      -0.42634723      -1.58885181
H        1.31559709      -1.15117964       0.99960064
H        1.78900263      -0.27313555       1.52427370
15
Frame=9 idx=000976 GeodesicLength=1.022230749649738 rxn_smarts="[C:1]([N:2]([C:3]([H:10])([H:11])[H:12])[C:4]([C:5](=[O:6])[H:15])([H:13])[H:14])([H:7])([H:8])[H:9]>>[C:1]([N:2]([C:3]([H:10])([H:11])[H:12])[C:4](=[C:5]=[O:6])[H:13])([H:7])([H:8])[H:9].[H:14][H:15]"
C       -1.45367280      -0.88443190      -0.10927768
N       -0.34265298       0.00280511       0.17282313
C       -0.69662404       1.40415173       0.05673937
C        0.84820408      -0.37616688      -0.49136968
C        2.10263937      -0.11487371       0.08266615
O        3.24743481      -0.07812221      -0.26303093
H       -1.81684954      -0.77817965      -1.14440459
H       -2.26996101      -0.65964370       0.57921981
H       -1.16797646      -1.92701956       0.03174915
H       -1.49572490       1.62229440       0.76799426
H        0.15878097       2.02848705       0.31344761
H       -1.02324030       1.66228122      -0.96297620
H        0.82134725      -0.41704652      -1.58583930
H        1.28528645      -1.16997530       1.00621352
H        1.80300910      -0.31456009       1.54604537
15
Frame=10 idx=000976 GeodesicLength=1.1361054016524639 rxn_smarts="[C:1]([N:2]([C:3]([H:10])([H:11])[H:12])[C:4]([C:5](=[O:6])[H:15])([H:13])[H:14])([H:7])([H:8])[H:9]>>[C:1]([N:2]([C:3]([H:10])([H:11])[H:12])[C:4](=[C:5]=[O:6])[H:13])([H:7])([H:8])[H:9].[H:14][H:15]"
C       -1.45320045      -0.88385145      -0.10521337
N       -0.34296363       0.00555443       0.17130548
C       -0.69592851       1.40554574       0.04890255
C        0.85096177      -0.38036910      -0.48623651
C        2.10680416      -0.09038988       0.07673920
O        3.24642914      -0.04972241      -0.27711911
H       -1.81906250      -0.78034039      -1.13980991
H       -2.26681025      -0.65886462       0.58644869
H       -1.16774252      -1.92662032       0.03513478
H       -1.49482707       1.62664848       0.75954513
H        0.15881231       2.03126789       0.30508196
H       -1.01952601       1.65889178      -0.97307506
H        0.82454331      -0.40906025      -1.58169260
H        1.25313859      -1.18886162       1.01392094
H        1.81937165      -0.35982827       1.56606784
15
Frame=11 idx=000976 GeodesicLength=1.250071853207913 rxn_smarts="[C:1]([N:2]([C:3]([H:10])([H:11])[H:12])[C:4]([C:5](=[O:6])[H:15])([H:13])[H:14])([H:7])([H:8])[H:9]>>[C:1]([N:2]([C:3]([H:10])([H:11])[H:12])[C:4](=[C:5]=[O:6])[H:13])([H:7])([H:8])[H:9].[H:14][H:15]"
C       -1.45266658      -0.88301498      -0.10107146
N       -0.34327797       0.00857260       0.17015500
C       -0.69546775       1.40708865       0.04079925
C        0.85414529      -0.38438797      -0.47986363
C        2.11082551      -0.06338899       0.07062483
O        3.24516248      -0.01972010      -0.29164508
H       -1.82082252      -0.78244950      -1.13528239
H       -2.26381665      -0.65776908       0.59345368
H       -1.16764567      -1.92599454       0.03877498
H       -1.49467331       1.63126186       0.75020915
H        0.15819346       2.03453351       0.29699373
H       -1.01525555       1.65530721      -0.98373334
H        0.82783795      -0.40262502      -1.57619256
H        1.21891042      -1.20773152       1.02303871
H        1.83855090      -0.40968212       1.58373911
15
Frame=12 idx=000976 GeodesicLength=1.3641647322728538 rxn_smarts="[C:1]([N:2]([C:3]([H:10])([H:11])[H:12])[C:4]([C:5](=[O:6])[H:15])([H:13])[H:14])([H:7])([H:8])[H:9]>>[C:1]([N:2]([C:3]([H:10])([H:11])[H:12])[C:4](=[C:5]=[O:6])[H:13])([H:7])([H:8])[H:9].[H:14][H:15]"
C       -1.45209012      -0.88187425      -0.09683576
N       -0.34363054       0.01191448       0.16948345
C       -0.69528129       1.40881436       0.03237175
C        0.85781903      -0.38819845      -0.47191602
C        2.11464461      -0.03363924       0.06438895
O        3.24353767       0.01236143      -0.30664407
H       -1.82202588      -0.78451932      -1.13086076
H       -2.26108555      -0.65627079       0.60015099
H       -1.16773357      -1.92509384       0.04276254
H       -1.49543595       1.63621576       0.73976333
H        0.15680954       2.03836658       0.28924777
H       -1.01026837       1.65147699      -0.99507703
H        0.83129743      -0.39803494      -1.56906111
H        1.18232091      -1.22640667       1.03399875
H        1.86112208      -0.46511210       1.59822721
15
Frame=13 idx=000976 GeodesicLength=1.4783434973273024 rxn_smarts="[C:1]([N:2]([C:3]([H:10])([H:11])[H:12])[C:4]([C:5](=[O:6])[H:15])([H:13])[H:14])([H:7])([H:8])[H:9]>>[C:1]([N:2]([C:3]([H:10])([H:11])[H:12])[C:4](=[C:5]=[O:6])[H:13])([H:7])([H:8])[H:9].[H:14][H:15]"
C       -1.45147571      -0.88037396      -0.09246075
N       -0.34405638       0.01565238       0.16942305
C       -0.69538697       1.41075701       0.02352856
C        0.86205194      -0.39175616      -0.46196980
C        2.11814115      -0.00089322       0.05814789
O        3.24136343       0.04720841      -0.32209525
H       -1.82251654      -0.78658427      -1.12655502
H       -2.25871840      -0.65426607       0.60645168
H       -1.16805090      -1.92385063       0.04726363
H       -1.49728097       1.64159847       0.72790891
H        0.15455054       2.04286009       0.28187968
H       -1.00433340       1.64731996      -1.00726665
H        0.83503087      -0.39561128      -1.55991822
H        1.14303765      -1.24457890       1.04738131
H        1.88764370      -0.52748182       1.60828098
15
Frame=14 idx=000976 GeodesicLength=1.5926601499903545 rxn_smarts="[C:1]([N:2]([C:3]([H:10])([H:11])[H:12])[C:4]([C:5](=[O:6])[H:15])([H:13])[H:14])([H:7])([H:8])[H:9]>>[C:1]([N:2]([C:3]([H:10])([H:11])[H:12])[C:4](=[C:5]=[O:6])[H:13])([H:7])([H:8])[H:9].[H:14][H:15]"
C       -1.45083087      -0.87844675      -0.08787683
N       -0.34461706       0.01990808       0.17014260
C       -0.69585297       1.41298818       0.01412687
C        0.86692695      -0.39497489      -0.44948471
C        2.12119177       0.03509536       0.05213788
O        3.23843421       0.08565921      -0.33791933
H       -1.82209667      -0.78873679      -1.12238588
H       -2.25686944      -0.65160508       0.61224303
H       -1.16861349      -1.92217477       0.05254510
H       -1.50046843       1.64756005       0.71423852
H        0.15123160       2.04816727       0.27489043
H       -0.99722199       1.64273015      -1.02053828
H        0.83921393      -0.39569853      -1.54827377
H        1.10070473      -1.26170111       1.06402494
H        1.91886774      -0.59877038       1.61212942
15
Frame=15 idx=000976 GeodesicLength=1.707127438384266 rxn_smarts="[C:1]([N:2]([C:3]([H:10])([H:11])[H:12])[C:4]([C:5](=[O:6])[H:15])([H:13])[H:14])([H:7])([H:8])[H:9]>>[C:1]([N:2]([C:3]([H:10])([H:11])[H:12])[C:4](=[C:5]=[O:6])[H:13])([H:7])([H:8])[H:9].[H:14][H:15]"
C       -1.45010962      -0.87602475      -0.08294514
N       -0.34538593       0.02487922       0.17184086
C       -0.69678644       1.41562124       0.00393943
C        0.87253747      -0.39767111      -0.43378374
C        2.12361726       0.07457226       0.04679380
O        3.23445278       0.12866981      -0.35382102
H       -1.82046193      -0.79117875      -1.11831994
H       -2.25567863      -0.64810775       0.61741162
H       -1.16932873      -1.91994334       0.05906618
H       -1.50531228       1.65430265       0.69820728
H        0.14659573       2.05452268       0.26815948
H       -0.98872147       1.63755169      -1.03521039
H        0.84413191      -0.39856654      -1.53347945
H        1.05499172      -1.27679422       1.08513208
H        1.95545816      -0.68183310       1.60700895
15
Frame=16 idx=000976 GeodesicLength=1.821713775519912 rxn_smarts="[C:1]([N:2]([C:3]([H:10])([H:11])[H:12])[C:4]([C:5](=[O:6])[H:15])([H:13])[H:14])([H:7])([H:8])[H:9]>>[C:1]([N:2]([C:3]([H:10])([H:11])[H:12])[C:4](=[C:5]=[O:6])[H:13])([H:7])([H:8])[H:9].[H:14][H:15]"
C       -1.44916671      -0.87308358      -0.07741573
N       -0.34643532       0.03087766       0.17471684
C       -0.69838119       1.41881962      -0.00734683
C        0.87901317      -0.39945570      -0.41413636
C        2.12527452       0.11772473       0.04282671
O        3.22924073       0.17684482      -0.36902941
H       -1.81720286      -0.79431947      -1.11422722
H       -2.25523483      -0.64363055       0.62191521
H       -1.16985687      -1.91700989       0.06754850
H       -1.51216068       1.66205134       0.67924427
H        0.14030102       2.06228223       0.26130378
H       -0.97883455       1.63155022      -1.05165421
H        0.85025245      -0.40415016      -1.51481817
H        1.00584922      -1.28815196       1.11237555
H        1.99734189      -0.78034929       1.58869707
