14
Frame=0 idx=010231 GeodesicLength=0.0 rxn_smarts="[C:1]([C:2]([N:3](/[C:4](=[N:5]/[H:14])[C:6]#[N:7])[H:13])([H:11])[H:12])([H:8])([H:9])[H:10]>>[C:1]([C:2]([N:3]([H:13])[H:14])([H:11])[H:12])([H:8])([H:9])[H:10].[C:4](#[N:5])[C:6]#[N:7]"
C       -2.01293722       0.32619232       0.03545145
C       -0.64579168      -0.20357199       0.41964656
N        0.38222757       0.21787325      -0.54852529
C        1.76334066      -0.37537090      -0.43010582
N        2.00339728      -1.05219032      -1.43919800
C        2.50688625      -0.07928241       0.77294619
N        3.06881136       0.16624677       1.74385831
H       -2.30793514      -0.02563358      -0.95412533
H       -2.02997583       1.41849361       0.03220251
H       -2.75946525      -0.01286109       0.75361821
H       -0.63414779      -1.29522084       0.42899840
H       -0.35676437       0.13934614       1.41636604
H        0.38715913       1.22909819      -0.67256716
H        0.63519504      -0.45311916      -1.55856606
14
Frame=1 idx=010231 GeodesicLength=0.11114610981205789 rxn_smarts="[C:1]([C:2]([N:3](/[C:4](=[N:5]/[H:14])[C:6]#[N:7])[H:13])([H:11])[H:12])([H:8])([H:9])[H:10]>>[C:1]([C:2]([N:3]([H:13])[H:14])([H:11])[H:12])([H:8])([H:9])[H:10].[C:4](#[N:5])[C:6]#[N:7]"
C       -2.01496013       0.35486804       0.04678311
C       -0.66799255      -0.24722063       0.39339583
N        0.37908507       0.19391400      -0.54274157
C        1.77458876      -0.40978159      -0.39556701
N        2.01110063      -1.11887292      -1.38088694
C        2.52886048      -0.01918591       0.77054614
N        3.11136422       0.31862219       1.70068603
H       -2.32104029       0.08079293      -0.96387922
H       -1.99385412       1.44476027       0.11806571
H       -2.77498107      -0.00449176       0.74061530
H       -0.70053105      -1.33741550       0.33752168
H       -0.37646581       0.01464306       1.41373730
H        0.38123678       1.20434238      -0.66791938
H        0.66358907      -0.47497457      -1.57035700
14
Frame=2 idx=010231 GeodesicLength=0.2200387966753796 rxn_smarts="[C:1]([C:2]([N:3](/[C:4](=[N:5]/[H:14])[C:6]#[N:7])[H:13])([H:11])[H:12])([H:8])([H:9])[H:10]>>[C:1]([C:2]([N:3]([H:13])[H:14])([H:11])[H:12])([H:8])([H:9])[H:10].[C:4](#[N:5])[C:6]#[N:7]"
C       -2.01453851       0.38249961       0.06138135
C       -0.68999902      -0.28842073       0.36464272
N        0.37591816       0.17014542      -0.53905958
C        1.78610291      -0.44216339      -0.35732360
N        2.02105805      -1.18184409      -1.31810790
C        2.54647949       0.04053475       0.76699670
N        3.14137978       0.46517945       1.65245940
H       -2.32987508       0.18753858      -0.96475745
H       -1.95516279       1.46360277       0.20648074
H       -2.78807775       0.00522631       0.73042952
H       -0.76577364      -1.37143353       0.24293722
H       -0.39807155      -0.10940730       1.40269318
H        0.37468284       1.17939371      -0.66841731
H        0.69587712      -0.50085155      -1.58035497
14
Frame=3 idx=010231 GeodesicLength=0.32736558462446763 rxn_smarts="[C:1]([C:2]([N:3](/[C:4](=[N:5]/[H:14])[C:6]#[N:7])[H:13])([H:11])[H:12])([H:8])([H:9])[H:10]>>[C:1]([C:2]([N:3]([H:13])[H:14])([H:11])[H:12])([H:8])([H:9])[H:10].[C:4](#[N:5])[C:6]#[N:7]"
C       -2.01209326       0.40856331       0.07853667
C       -0.71202079      -0.32675578       0.33371778
N        0.37264689       0.14720339      -0.53695428
C        1.79738459      -0.47208406      -0.31515632
N        2.03241722      -1.24089766      -1.25066596
C        2.55970280       0.09953645       0.76273796
N        3.16327575       0.60418399       1.59879741
H       -2.33452982       0.29297012      -0.95743801
H       -1.91477052       1.47474709       0.29560559
H       -2.79921018       0.01583559       0.72248951
H       -0.82955269      -1.39693181       0.14631442
H       -0.42226768      -0.23134262       1.38347577
H        0.36754413       1.15486961      -0.67331403
H        0.73147358      -0.52989762      -1.58814651
14
Frame=4 idx=010231 GeodesicLength=0.4335972874793557 rxn_smarts="[C:1]([C:2]([N:3](/[C:4](=[N:5]/[H:14])[C:6]#[N:7])[H:13])([H:11])[H:12])([H:8])([H:9])[H:10]>>[C:1]([C:2]([N:3]([H:13])[H:14])([H:11])[H:12])([H:8])([H:9])[H:10].[C:4](#[N:5])[C:6]#[N:7]"
C       -2.00737924       0.43323099       0.09827039
C       -0.73412089      -0.36267312       0.30040279
N        0.36943806       0.12479908      -0.53627968
C        1.80807866      -0.50008223      -0.26885067
N        2.04465099      -1.29668301      -1.17837134
C        2.56883827       0.15616393       0.75843507
N        3.17644982       0.73953017       1.53838693
H       -2.33467905       0.39814303      -0.94210264
H       -1.87203108       1.47825328       0.38624633
H       -2.80833624       0.02726905       0.71653658
H       -0.89229848      -1.41412588       0.04678896
H       -0.44936046      -0.35208535       1.35593288
H        0.36048030       1.13050798      -0.68187898
H        0.77026934      -0.56224792      -1.59351661
14
Frame=5 idx=010231 GeodesicLength=0.5389311923719882 rxn_smarts="[C:1]([C:2]([N:3](/[C:4](=[N:5]/[H:14])[C:6]#[N:7])[H:13])([H:11])[H:12])([H:8])([H:9])[H:10]>>[C:1]([C:2]([N:3]([H:13])[H:14])([H:11])[H:12])([H:8])([H:9])[H:10].[C:4](#[N:5])[C:6]#[N:7]"
C       -2.00094444       0.45578163       0.11986872
C       -0.75628992      -0.39558073       0.26507015
N        0.36614706       0.10374795      -0.53671261
C        1.81778270      -0.52503838      -0.21841367
N        2.05674016      -1.34876307      -1.10082798
C        2.57426984       0.21163822       0.75384670
N        3.18496414       0.86699645       1.47174173
H       -2.33074248       0.50072626      -0.91941563
H       -1.82829123       1.47387728       0.47621943
H       -2.81577004       0.03886276       0.71228180
H       -0.95319183      -1.42262883      -0.05420023
H       -0.47954248      -0.46961950       1.32035008
H        0.35313160       1.10705483      -0.69379803
H        0.81173693      -0.59705487      -1.59601046
14
Frame=6 idx=010231 GeodesicLength=0.6434817276473372 rxn_smarts="[C:1]([C:2]([N:3](/[C:4](=[N:5]/[H:14])[C:6]#[N:7])[H:13])([H:11])[H:12])([H:8])([H:9])[H:10]>>[C:1]([C:2]([N:3]([H:13])[H:14])([H:11])[H:12])([H:8])([H:9])[H:10].[C:4](#[N:5])[C:6]#[N:7]"
C       -1.99294975       0.47596245       0.14304776
C       -0.77844167      -0.42542584       0.22777670
N        0.36276343       0.08425149      -0.53817768
C        1.82612581      -0.54653648      -0.16385353
N        2.06790038      -1.39706342      -1.01775158
C        2.57653672       0.26623703       0.74860459
N        3.19004315       0.98594681       1.39921622
H       -2.32298852       0.60006429      -0.88977934
H       -1.78390824       1.46168732       0.56488101
H       -2.82154551       0.05022468       0.70961460
H       -1.01196406      -1.42245071      -0.15630561
H       -0.51264874      -0.58339177       1.27680128
H        0.34552500       1.08465846      -0.70880074
H        0.85555199      -0.63416430      -1.59527367
14
Frame=7 idx=010231 GeodesicLength=0.7474424858832718 rxn_smarts="[C:1]([C:2]([N:3](/[C:4](=[N:5]/[H:14])[C:6]#[N:7])[H:13])([H:11])[H:12])([H:8])([H:9])[H:10]>>[C:1]([C:2]([N:3]([H:13])[H:14])([H:11])[H:12])([H:8])([H:9])[H:10].[C:4](#[N:5])[C:6]#[N:7]"
C       -1.98321443       0.49376464       0.16782907
C       -0.80041973      -0.45229821       0.18839656
N        0.35937681       0.06616540      -0.54089449
C        1.83279357      -0.56448365      -0.10531444
N        2.07752122      -1.44176324      -0.92899324
C        2.57632304       0.31960296       0.74228066
N        3.19051394       1.09755632       1.32122517
H       -2.31135597       0.69638228      -0.85319699
H       -1.73861005       1.44170607       0.65245887
H       -2.82546553       0.06118389       0.70857940
H       -1.06859886      -1.41356077      -0.25958208
H       -0.54828715      -0.69338069       1.22509169
H        0.33795596       1.06315212      -0.72682215
H        0.90146716      -0.67402712      -1.59105803
14
Frame=8 idx=010231 GeodesicLength=0.8508256809169548 rxn_smarts="[C:1]([C:2]([N:3](/[C:4](=[N:5]/[H:14])[C:6]#[N:7])[H:13])([H:11])[H:12])([H:8])([H:9])[H:10]>>[C:1]([C:2]([N:3]([H:13])[H:14])([H:11])[H:12])([H:8])([H:9])[H:10].[C:4](#[N:5])[C:6]#[N:7]"
C       -1.97193656       0.50882796       0.19384726
C       -0.82199202      -0.47594593       0.14717266
N        0.35596371       0.04980095      -0.54496419
C        1.83742778      -0.57831060      -0.04322372
N        2.08465148      -1.48250535      -0.83472077
C        2.57443568       0.37189091       0.73384535
N        3.18724525       1.20045540       1.23937716
H       -2.29620054       0.78849060      -0.81015732
H       -1.69298149       1.41408999       0.73787180
H       -2.82751051       0.07124122       0.70914234
H       -1.12256734      -1.39601375      -0.36294488
H       -0.58579799      -0.79832852       1.16554089
H        0.33038788       1.04282041      -0.74766477
H        0.94887468      -0.71651330      -1.58312181
14
Frame=9 idx=010231 GeodesicLength=0.9538908685759584 rxn_smarts="[C:1]([C:2]([N:3](/[C:4](=[N:5]/[H:14])[C:6]#[N:7])[H:13])([H:11])[H:12])([H:8])([H:9])[H:10]>>[C:1]([C:2]([N:3]([H:13])[H:14])([H:11])[H:12])([H:8])([H:9])[H:10].[C:4](#[N:5])[C:6]#[N:7]"
C       -1.95959598       0.52074946       0.22062019
C       -0.84325306      -0.49637012       0.10410999
N        0.35251611       0.03551899      -0.54995356
C        1.83948034      -0.58754988       0.02295877
N        2.08834816      -1.51880956      -0.73428133
C        2.57104002       0.42278737       0.72404974
N        3.18367128       1.29438969       1.15135366
H       -2.27763324       0.87611050      -0.76127702
H       -1.64798937       1.37851707       0.82096558
H       -2.82828679       0.07949891       0.71028810
H       -1.17362499      -1.36987593      -0.46627926
H       -0.62517999      -0.89798040       1.09823642
H        0.32288996       1.02411715      -0.77013934
H        0.99761753      -0.76110325      -1.57065194
14
Frame=10 idx=010231 GeodesicLength=1.0566060040239451 rxn_smarts="[C:1]([C:2]([N:3](/[C:4](=[N:5]/[H:14])[C:6]#[N:7])[H:13])([H:11])[H:12])([H:8])([H:9])[H:10]>>[C:1]([C:2]([N:3]([H:13])[H:14])([H:11])[H:12])([H:8])([H:9])[H:10].[C:4](#[N:5])[C:6]#[N:7]"
C       -1.94626229       0.52934831       0.24783990
C       -0.86374331      -0.51332088       0.05960203
N        0.34908017       0.02348345      -0.55627782
C        1.83876438      -0.59179703       0.09216809
N        2.08769438      -1.55032500      -0.62861473
C        2.56731219       0.47179619       0.71146555
N        3.17871983       1.37860937       1.06004592
H       -2.25610915       0.95810781      -0.70707690
H       -1.60400532       1.33552444       0.90068531
H       -2.82759001       0.08569407       0.71217396
H       -1.22118482      -1.33561095      -0.56803854
H       -0.66504491      -0.99083925       1.02393039
H        0.31554289       1.00728460      -0.79418502
H        1.04682598      -0.80795513      -1.55371814
14
Frame=11 idx=010231 GeodesicLength=1.1591094312075156 rxn_smarts="[C:1]([C:2]([N:3](/[C:4](=[N:5]/[H:14])[C:6]#[N:7])[H:13])([H:11])[H:12])([H:8])([H:9])[H:10]>>[C:1]([C:2]([N:3]([H:13])[H:14])([H:11])[H:12])([H:8])([H:9])[H:10].[C:4](#[N:5])[C:6]#[N:7]"
C       -1.93244998       0.53431678       0.27495882
C       -0.88325934      -0.52670669       0.01402432
N        0.34567948       0.01409375      -0.56375593
C        1.83503544      -0.59061984       0.16402046
N        2.08176667      -1.57643274      -0.51823909
C        2.56391876       0.51824611       0.69621110
N        3.17441987       1.45239630       0.96517855
H       -2.23212735       1.03369988      -0.64843949
H       -1.56208628       1.28538404       0.97637125
H       -2.82588968       0.08911588       0.71404316
H       -1.26475724      -1.29390587      -0.66718017
H       -0.70451706      -1.07602600       0.94353452
H        0.30836847       0.99294136      -0.81873096
H        1.09589824      -0.85650295      -1.53199654
14
Frame=12 idx=010231 GeodesicLength=1.2614796890372637 rxn_smarts="[C:1]([C:2]([N:3](/[C:4](=[N:5]/[H:14])[C:6]#[N:7])[H:13])([H:11])[H:12])([H:8])([H:9])[H:10]>>[C:1]([C:2]([N:3]([H:13])[H:14])([H:11])[H:12])([H:8])([H:9])[H:10].[C:4](#[N:5])[C:6]#[N:7]"
C       -1.91868543       0.53551582       0.30140200
C       -0.90146365      -0.53645779      -0.03198460
N        0.34236465       0.00770780      -0.57229419
C        1.82836423      -0.58378459       0.23755955
N        2.06985342      -1.59657466      -0.40452762
C        2.56180614       0.56123793       0.67814579
N        3.17181824       1.51503195       0.86775134
H       -2.20644068       1.10193674      -0.58651028
H       -1.52327229       1.22892790       1.04710734
H       -2.82358578       0.08930989       0.71535515
H       -1.30380655      -1.24595703      -0.76219505
H       -0.74234124      -1.15249439       0.85858112
H        0.30137910       0.98173526      -0.84280012
H        1.14400984      -0.90613484      -1.50559044
14
Frame=13 idx=010231 GeodesicLength=1.3641084840917537 rxn_smarts="[C:1]([C:2]([N:3](/[C:4](=[N:5]/[H:14])[C:6]#[N:7])[H:13])([H:11])[H:12])([H:8])([H:9])[H:10]>>[C:1]([C:2]([N:3]([H:13])[H:14])([H:11])[H:12])([H:8])([H:9])[H:10].[C:4](#[N:5])[C:6]#[N:7]"
C       -1.90478789       0.53309924       0.32713195
C       -0.91818994      -0.54276630      -0.07846847
N        0.33924888       0.00411494      -0.58225282
C        1.81869231      -0.57103007       0.31232994
N        2.05167436      -1.61038056      -0.28777229
C        2.56103316       0.60029277       0.65801180
N        3.16989476       1.56728328       0.76736599
H       -2.17913946       1.16327658      -0.52126276
H       -1.48708860       1.16626326       1.11319170
H       -2.82057311       0.08638773       0.71588022
H       -1.33868982      -1.19232606      -0.85306189
H       -0.77759199      -1.22056384       0.76942747
H        0.29468144       0.97365097      -0.86630238
H        1.19083588      -0.95730194      -1.47421846
14
Frame=14 idx=010231 GeodesicLength=1.466976915255222 rxn_smarts="[C:1]([C:2]([N:3](/[C:4](=[N:5]/[H:14])[C:6]#[N:7])[H:13])([H:11])[H:12])([H:8])([H:9])[H:10]>>[C:1]([C:2]([N:3]([H:13])[H:14])([H:11])[H:12])([H:8])([H:9])[H:10].[C:4](#[N:5])[C:6]#[N:7]"
C       -1.89196438       0.52678006       0.35135080
C       -0.93323987      -0.54571089      -0.12448955
N        0.33615443       0.00411964      -0.59308886
C        1.80637553      -0.55180107       0.38733200
N        2.02675109      -1.61680063      -0.16977375
C        2.56206566       0.63546524       0.63596444
N        3.17370981       1.60646185       0.66486319
H       -2.15181165       1.21621555      -0.45454192
H       -1.45542659       1.09861040       1.17336625
H       -2.81777442       0.07949171       0.71489780
H       -1.36881689      -1.13497004      -0.93814155
H       -0.80921549      -1.27935360       0.67841088
H        0.28764164       0.96978515      -0.88797846
H        1.23555112      -1.00829335      -1.43817127
14
Frame=15 idx=010231 GeodesicLength=1.5704376237757587 rxn_smarts="[C:1]([C:2]([N:3](/[C:4](=[N:5]/[H:14])[C:6]#[N:7])[H:13])([H:11])[H:12])([H:8])([H:9])[H:10]>>[C:1]([C:2]([N:3]([H:13])[H:14])([H:11])[H:12])([H:8])([H:9])[H:10].[C:4](#[N:5])[C:6]#[N:7]"
C       -1.88022784       0.51678599       0.37401553
C       -0.94652760      -0.54560582      -0.16989612
N        0.33309393       0.00763522      -0.60497757
C        1.79171961      -0.52586228       0.46190160
N        1.99513620      -1.61538071      -0.05130669
C        2.56489778       0.66677314       0.61235162
N        3.18322821       1.63258952       0.56079611
H       -2.12491171       1.26107764      -0.38663325
H       -1.42793116       1.02650809       1.22776622
H       -2.81520346       0.06877668       0.71233553
H       -1.39466575      -1.07490688      -1.01737692
H       -0.83646966      -1.32943102       0.58634842
H        0.28004772       0.97016566      -0.90789338
H        1.27781375      -1.05912523      -1.39743109
14
Frame=16 idx=010231 GeodesicLength=1.6746049833861307 rxn_smarts="[C:1]([C:2]([N:3](/[C:4](=[N:5]/[H:14])[C:6]#[N:7])[H:13])([H:11])[H:12])([H:8])([H:9])[H:10]>>[C:1]([C:2]([N:3]([H:13])[H:14])([H:11])[H:12])([H:8])([H:9])[H:10].[C:4](#[N:5])[C:6]#[N:7]"
C       -1.86933930       0.50364652       0.39501598
C       -0.95791275      -0.54277090      -0.21422849
N        0.33013831       0.01437786      -0.61814079
C        1.77542084      -0.49377216       0.53479109
N        1.95724782      -1.60618524       0.06567308
C        2.56983220       0.69350319       0.58734068
N        3.19626161       1.64671172       0.45764708
H       -2.09902717       1.29789734      -0.31839823
H       -1.40379522       0.95152855       1.27591314
H       -2.81246779       0.05484926       0.70876047
H       -1.41677042      -1.01351191      -1.09018272
H       -0.85856305      -1.37110758       0.49467256
H        0.27190490       0.97460642      -0.92618022
H        1.31707002      -1.10977307      -1.35268364
