16
Frame=0 idx=002077 GeodesicLength=0.0 rxn_smarts="[C:1]([C:2]([C:3]([H:11])([H:12])[H:13])([C:4]([C:5](=[O:6])[H:16])([H:14])[H:15])[H:10])([H:7])([H:8])[H:9]>>[C:1]([C:2]([C:3]([H:11])([H:12])[H:13])(/[C:4](=[C:5](\[O:6][H:15])[H:16])[H:14])[H:10])([H:7])([H:8])[H:9]"
C       -1.00634024      -0.80359750      -0.70912392
C       -0.20735173       0.44940008      -0.36901142
C       -1.05311900       1.41666942       0.45402049
C        1.13613487       0.21331474       0.35622432
C        1.90409400      -0.94285816       0.11550566
O        1.38446621      -1.96901447       0.66929133
H       -1.90051669      -0.52260081      -1.26954013
H       -1.33245884      -1.33299305       0.18996342
H       -0.43899938      -1.50807647      -1.31892505
H        0.02621173       0.94594593      -1.32003813
H       -0.49531432       2.32217413       0.70101692
H       -1.95061844       1.71256985      -0.09448729
H       -1.36233991       0.94962033       1.39245522
H        1.69540657       1.14484910       0.43991586
H        0.73656177      -1.01744732       1.15704343
H        2.86418339      -1.05795575      -0.39431075
16
Frame=1 idx=002077 GeodesicLength=0.05147474111015181 rxn_smarts="[C:1]([C:2]([C:3]([H:11])([H:12])[H:13])([C:4]([C:5](=[O:6])[H:16])([H:14])[H:15])[H:10])([H:7])([H:8])[H:9]>>[C:1]([C:2]([C:3]([H:11])([H:12])[H:13])(/[C:4](=[C:5](\[O:6][H:15])[H:16])[H:14])[H:10])([H:7])([H:8])[H:9]"
C       -1.01800519      -0.80376414      -0.70174036
C       -0.21011894       0.44566455      -0.36892426
C       -1.05033604       1.42249980       0.44902180
C        1.12937628       0.20342174       0.35780133
C        1.91089481      -0.94031222       0.09784409
O        1.40104475      -1.98288900       0.63030064
H       -1.91229573      -0.52168331      -1.26139395
H       -1.34527124      -1.32628449       0.20114990
H       -0.45764554      -1.51487471      -1.31021377
H        0.02723080       0.93491239      -1.32257645
H       -0.48962796       2.32883559       0.68630788
H       -1.94859063       1.71777084      -0.09859317
H       -1.35878969       0.96445544       1.39218679
H        1.68828199       1.13398057       0.45657415
H        0.72913847      -1.04196957       1.14263699
H        2.90471385      -1.01976349      -0.35038161
16
Frame=2 idx=002077 GeodesicLength=0.10240174773927344 rxn_smarts="[C:1]([C:2]([C:3]([H:11])([H:12])[H:13])([C:4]([C:5](=[O:6])[H:16])([H:14])[H:15])[H:10])([H:7])([H:8])[H:9]>>[C:1]([C:2]([C:3]([H:11])([H:12])[H:13])(/[C:4](=[C:5](\[O:6][H:15])[H:16])[H:14])[H:10])([H:7])([H:8])[H:9]"
C       -1.02912561      -0.80396220      -0.69442546
C       -0.21267809       0.44198160      -0.36891322
C       -1.04734955       1.42805284       0.44408785
C        1.12291928       0.19367269       0.35911067
C        1.91828198      -0.93696931       0.08025429
O        1.41783980      -1.99546500       0.59060816
H       -1.92357747      -0.52098315      -1.25331675
H       -1.35739690      -1.31960713       0.21224976
H       -0.47556697      -1.52153188      -1.30142410
H        0.02820853       0.92397968      -1.32515043
H       -0.48382073       2.33512737       0.67170850
H       -1.94647278       1.72257857      -0.10248921
H       -1.35477622       0.97889493       1.39190304
H        1.68112739       1.12316450       0.47316979
H        0.72219819      -1.06601434       1.12796442
H        2.94018914      -0.98291916      -0.30533731
16
Frame=3 idx=002077 GeodesicLength=0.15302017540620094 rxn_smarts="[C:1]([C:2]([C:3]([H:11])([H:12])[H:13])([C:4]([C:5](=[O:6])[H:16])([H:14])[H:15])[H:10])([H:7])([H:8])[H:9]>>[C:1]([C:2]([C:3]([H:11])([H:12])[H:13])(/[C:4](=[C:5](\[O:6][H:15])[H:16])[H:14])[H:10])([H:7])([H:8])[H:9]"
C       -1.03960327      -0.80422399      -0.68717794
C       -0.21498222       0.43839144      -0.36889133
C       -1.04427970       1.43341381       0.43920417
C        1.11676705       0.18413267       0.36038566
C        1.92632828      -0.93281643       0.06315485
O        1.43491283      -2.00674934       0.55055863
H       -1.93422315      -0.52053924      -1.24541063
H       -1.36886273      -1.31300394       0.22321621
H       -0.49252895      -1.52812036      -1.29247177
H        0.02931973       0.91319992      -1.32763635
H       -0.47804687       2.34117406       0.65728694
H       -1.94434057       1.72708484      -0.10629148
H       -1.35056305       0.99300460       1.39153757
H        1.67396168       1.11249801       0.48987886
H        0.71562587      -1.08955606       1.11324479
H        2.97051508      -0.94788998      -0.26058817
16
Frame=4 idx=002077 GeodesicLength=0.2034289764717007 rxn_smarts="[C:1]([C:2]([C:3]([H:11])([H:12])[H:13])([C:4]([C:5](=[O:6])[H:16])([H:14])[H:15])[H:10])([H:7])([H:8])[H:9]>>[C:1]([C:2]([C:3]([H:11])([H:12])[H:13])(/[C:4](=[C:5](\[O:6][H:15])[H:16])[H:14])[H:10])([H:7])([H:8])[H:9]"
C       -1.04958686      -0.80449210      -0.68003829
C       -0.21708620       0.43491329      -0.36890435
C       -1.04117285       1.43852631       0.43438584
C        1.11096333       0.17482364       0.36164128
C        1.93504386      -0.92779611       0.04661844
O        1.45219521      -2.01664562       0.51030742
H       -1.94444279      -0.52028300      -1.23776582
H       -1.37981859      -1.30645497       0.23410636
H       -0.50867612      -1.53452380      -1.28344184
H        0.03049249       0.90263595      -1.33017986
H       -0.47229511       2.34690629       0.64303476
H       -1.94232129       1.73122707      -0.11001358
H       -1.34617271       1.00668892       1.39121374
H        1.66691853       1.10194890       0.50658332
H        0.70939269      -1.11256138       1.09864505
H        2.99656640      -0.91491339      -0.21619248
16
Frame=5 idx=002077 GeodesicLength=0.25294344007414504 rxn_smarts="[C:1]([C:2]([C:3]([H:11])([H:12])[H:13])([C:4]([C:5](=[O:6])[H:16])([H:14])[H:15])[H:10])([H:7])([H:8])[H:9]>>[C:1]([C:2]([C:3]([H:11])([H:12])[H:13])(/[C:4](=[C:5](\[O:6][H:15])[H:16])[H:14])[H:10])([H:7])([H:8])[H:9]"
C       -1.05850301      -0.80482197      -0.67286707
C       -0.21882402       0.43150573      -0.36865094
C       -1.03795703       1.44347606       0.42953423
C        1.10513177       0.16571085       0.36328621
C        1.94374146      -0.92209646       0.03131540
O        1.46948030      -2.02526942       0.47044814
H       -1.95323640      -0.52027046      -1.23034049
H       -1.38984255      -1.29991416       0.24466972
H       -0.52338554      -1.54092615      -1.27385619
H        0.03207805       0.89215609      -1.33211209
H       -0.46676329       2.35238382       0.62906678
H       -1.93990673       1.73513182      -0.11385973
H       -1.34175761       1.02011236       1.39042378
H        1.65942913       1.09151147       0.52363294
H        0.70310651      -1.13501060       1.08425412
H        3.01720896      -0.88367898      -0.17494481
16
Frame=6 idx=002077 GeodesicLength=0.3026459149748454 rxn_smarts="[C:1]([C:2]([C:3]([H:11])([H:12])[H:13])([C:4]([C:5](=[O:6])[H:16])([H:14])[H:15])[H:10])([H:7])([H:8])[H:9]>>[C:1]([C:2]([C:3]([H:11])([H:12])[H:13])(/[C:4](=[C:5](\[O:6][H:15])[H:16])[H:14])[H:10])([H:7])([H:8])[H:9]"
C       -1.06719246      -0.80519448      -0.66583170
C       -0.22044867       0.42818943      -0.36850030
C       -1.03473216       1.44824332       0.42479253
C        1.09965559       0.15680397       0.36479141
C        1.95306519      -0.91564034       0.01640393
O        1.48694913      -2.03257445       0.43029481
H       -1.96195288      -0.52046719      -1.22314332
H       -1.39961729      -1.29343572       0.25520145
H       -0.53759437      -1.54724426      -1.26431107
H        0.03363203       0.88184747      -1.33423777
H       -0.46117657       2.35762662       0.61529519
H       -1.93769151       1.73876229      -0.11753953
H       -1.33720398       1.03320522       1.38979511
H        1.65216082       1.08119216       0.54051193
H        0.69707687      -1.15695094       1.06995440
H        3.03507026      -0.85436309      -0.13347706
16
Frame=7 idx=002077 GeodesicLength=0.3521347683256447 rxn_smarts="[C:1]([C:2]([C:3]([H:11])([H:12])[H:13])([C:4]([C:5](=[O:6])[H:16])([H:14])[H:15])[H:10])([H:7])([H:8])[H:9]>>[C:1]([C:2]([C:3]([H:11])([H:12])[H:13])(/[C:4](=[C:5](\[O:6][H:15])[H:16])[H:14])[H:10])([H:7])([H:8])[H:9]"
C       -1.07541068      -0.80559147      -0.65879890
C       -0.22192566       0.42494118      -0.36831058
C       -1.03146966       1.45286849       0.42007142
C        1.09430607       0.14805189       0.36631203
C        1.96269168      -0.90844800       0.00207807
O        1.50453163      -2.03859101       0.38984912
H       -1.97016448      -0.52083942      -1.21603119
H       -1.40889868      -1.28695012       0.26565247
H       -0.55107777      -1.55350284      -1.25451787
H        0.03522939       0.87163196      -1.33623344
H       -0.45565986       2.36265581       0.60163604
H       -1.93545252       1.74217750      -0.12115804
H       -1.33251848       1.04607222       1.38905215
H        1.64472415       1.07091030       0.55742462
H        0.69119761      -1.17848127       1.05563611
H        3.04989727      -0.82690521      -0.09266202
16
Frame=8 idx=002077 GeodesicLength=0.40154686241776166 rxn_smarts="[C:1]([C:2]([C:3]([H:11])([H:12])[H:13])([C:4]([C:5](=[O:6])[H:16])([H:14])[H:15])[H:10])([H:7])([H:8])[H:9]>>[C:1]([C:2]([C:3]([H:11])([H:12])[H:13])(/[C:4](=[C:5](\[O:6][H:15])[H:16])[H:14])[H:10])([H:7])([H:8])[H:9]"
C       -1.08326886      -0.80602636      -0.65175791
C       -0.22327411       0.42174411      -0.36810058
C       -1.02816897       1.45737867       0.41535529
C        1.08909674       0.13942478       0.36786938
C        1.97264253      -0.90051534      -0.01170639
O        1.52228665      -2.04332706       0.34900383
H       -1.97801575      -0.52139313      -1.20900085
H       -1.41780217      -1.28045739       0.27609261
H       -0.56398018      -1.55974087      -1.24448693
H        0.03687498       0.86147116      -1.33817667
H       -0.45015695       2.36750415       0.58803520
H       -1.93320862       1.74541332      -0.12476136
H       -1.32772034       1.05877111       1.38824141
H        1.63714785       1.06063806       0.57447867
H        0.68547358      -1.19971108       1.04127589
H        3.06207360      -0.80117412      -0.05236156
16
Frame=9 idx=002077 GeodesicLength=0.4510274588755632 rxn_smarts="[C:1]([C:2]([C:3]([H:11])([H:12])[H:13])([C:4]([C:5](=[O:6])[H:16])([H:14])[H:15])[H:10])([H:7])([H:8])[H:9]>>[C:1]([C:2]([C:3]([H:11])([H:12])[H:13])(/[C:4](=[C:5](\[O:6][H:15])[H:16])[H:14])[H:10])([H:7])([H:8])[H:9]"
C       -1.09086285      -0.80651957      -0.64468888
C       -0.22450999       0.41856940      -0.36786733
C       -1.02484315       1.46180876       0.41063452
C        1.08403951       0.13089612       0.36950264
C        1.98295110      -0.89182170      -0.02500421
O        1.54025677      -2.04675735       0.30759167
H       -1.98562756      -0.52215591      -1.20203812
H       -1.42643155      -1.27393105       0.28657529
H       -0.57641253      -1.56601274      -1.23421605
H        0.03858622       0.85127816      -1.34009787
H       -0.44463056       2.37220520       0.57444794
H       -1.93098380       1.74849922      -0.12838991
H       -1.32285326       1.07140234       1.38738582
H        1.62948163       1.05033394       0.59178887
H        0.67990516      -1.22071046       1.02681566
H        3.07193485      -0.77708436      -0.01244004
16
Frame=10 idx=002077 GeodesicLength=0.50022682181395 rxn_smarts="[C:1]([C:2]([C:3]([H:11])([H:12])[H:13])([C:4]([C:5](=[O:6])[H:16])([H:14])[H:15])[H:10])([H:7])([H:8])[H:9]>>[C:1]([C:2]([C:3]([H:11])([H:12])[H:13])(/[C:4](=[C:5](\[O:6][H:15])[H:16])[H:14])[H:10])([H:7])([H:8])[H:9]"
C       -1.09805220      -0.80703844      -0.63756081
C       -0.22564002       0.41545191      -0.36760893
C       -1.02142529       1.46609645       0.40589479
C        1.07902077       0.12248665       0.37107629
C        1.99336986      -0.88239932      -0.03777258
O        1.55826198      -2.04882764       0.26577357
H       -1.99278590      -0.52307781      -1.19503289
H       -1.43458304      -1.26741401       0.29703418
H       -0.58825319      -1.57222628      -1.22362426
H        0.04027227       0.84118217      -1.34189041
H       -0.43911169       2.37669066       0.56087772
H       -1.92864409       1.75139693      -0.13195211
H       -1.31777946       1.08380134       1.38637124
H        1.62151910       1.04001392       0.60906162
H        0.67442989      -1.24140211       1.01224309
H        3.07940103      -0.75473442       0.02710948
16
Frame=11 idx=002077 GeodesicLength=0.5495082945649351 rxn_smarts="[C:1]([C:2]([C:3]([H:11])([H:12])[H:13])([C:4]([C:5](=[O:6])[H:16])([H:14])[H:15])[H:10])([H:7])([H:8])[H:9]>>[C:1]([C:2]([C:3]([H:11])([H:12])[H:13])(/[C:4](=[C:5](\[O:6][H:15])[H:16])[H:14])[H:10])([H:7])([H:8])[H:9]"
C       -1.10500472      -0.80760965      -0.63040555
C       -0.22668540       0.41236353      -0.36734480
C       -1.01800596       1.47031493       0.40115291
C        1.07414747       0.11417573       0.37268082
C        2.00410092      -0.87225230      -0.05003586
O        1.57646048      -2.04952458       0.22342752
H       -1.99974664      -0.52419650      -1.18808048
H       -1.44247132      -1.26085915       0.30754208
H       -0.59964494      -1.57847074      -1.21279543
H        0.04197306       0.83107025      -1.34368603
H       -0.43359583       2.38103616       0.54733108
H       -1.92636076       1.75416722      -0.13551861
H       -1.31264587       1.09613251       1.38532136
H        1.61345521       1.02965170       0.62647905
H        0.66909902      -1.26183983       0.99760114
H        3.08492527      -0.73415928       0.06633079
16
Frame=12 idx=002077 GeodesicLength=0.5988271315059505 rxn_smarts="[C:1]([C:2]([C:3]([H:11])([H:12])[H:13])([C:4]([C:5](=[O:6])[H:16])([H:14])[H:15])[H:10])([H:7])([H:8])[H:9]>>[C:1]([C:2]([C:3]([H:11])([H:12])[H:13])(/[C:4](=[C:5](\[O:6][H:15])[H:16])[H:14])[H:10])([H:7])([H:8])[H:9]"
C       -1.11172566      -0.80823945      -0.62316692
C       -0.22765188       0.40928291      -0.36705968
C       -1.01454542       1.47447623       0.39636563
C        1.06935696       0.10592266       0.37432711
C        2.01506776      -0.86135789      -0.06181499
O        1.59485106      -2.04879835       0.18039550
H       -2.00649087      -0.52551137      -1.18109768
H       -1.45007957      -1.25425305       0.31814303
H       -0.61063182      -1.58476805      -1.20164824
H        0.04369052       0.82089207      -1.34545001
H       -0.42803954       2.38524112       0.53372505
H       -1.92405133       1.75683112      -0.13913296
H       -1.30741694       1.10844165       1.38417617
H        1.60518022       1.01917867       0.64415847
H        0.66390685      -1.28211959       0.98278557
H        3.08857966      -0.71521869       0.10529395
16
Frame=13 idx=002077 GeodesicLength=0.6480814410070599 rxn_smarts="[C:1]([C:2]([C:3]([H:11])([H:12])[H:13])([C:4]([C:5](=[O:6])[H:16])([H:14])[H:15])[H:10])([H:7])([H:8])[H:9]>>[C:1]([C:2]([C:3]([H:11])([H:12])[H:13])(/[C:4](=[C:5](\[O:6][H:15])[H:16])[H:14])[H:10])([H:7])([H:8])[H:9]"
C       -1.11816753      -0.80891870      -0.61585883
C       -0.22854582       0.40623567      -0.36676503
C       -1.01104254       1.47854999       0.39154984
C        1.06464270       0.09777050       0.37594064
C        2.02620448      -0.84972310      -0.07307526
O        1.61334104      -2.04657054       0.13680431
H       -2.01296223      -0.52701504      -1.17407075
H       -1.45733732      -1.24762499       0.32879230
H       -0.62114828      -1.59107872      -1.19018537
H        0.04537836       0.81072160      -1.34716517
H       -0.42248048       2.38928467       0.52009266
H       -1.92171944       1.75935321      -0.14272718
H       -1.30205116       1.12064524       1.38292555
H        1.59667778       1.00864686       0.66187955
H        0.65882762      -1.30214546       0.96784523
H        3.09038282      -0.69813119       0.14401752
16
Frame=14 idx=002077 GeodesicLength=0.6973819469917938 rxn_smarts="[C:1]([C:2]([C:3]([H:11])([H:12])[H:13])([C:4]([C:5](=[O:6])[H:16])([H:14])[H:15])[H:10])([H:7])([H:8])[H:9]>>[C:1]([C:2]([C:3]([H:11])([H:12])[H:13])(/[C:4](=[C:5](\[O:6][H:15])[H:16])[H:14])[H:10])([H:7])([H:8])[H:9]"
C       -1.12439163      -0.80966010      -0.60847578
C       -0.22936727       0.40319863      -0.36644399
C       -1.00751643       1.48256634       0.38669084
C        1.06001275       0.08968683       0.37761709
C        2.03751967      -0.83735811      -0.08378119
O        1.63199196      -2.04280231       0.09263457
H       -2.01922028      -0.52872466      -1.16705304
H       -1.46435047      -1.24094494       0.33952381
H       -0.63124892      -1.59745001      -1.17838644
H        0.04709247       0.80048896      -1.34884464
H       -0.41688757       2.39318252       0.50642850
H       -1.91937218       1.76177223      -0.14639041
H       -1.29663554       1.13281857       1.38157807
H        1.58799082       0.99799652       0.67982053
H        0.65384912      -1.32197297       0.95281127
H        3.09053350      -0.68279748       0.18227079
16
Frame=15 idx=002077 GeodesicLength=0.7466618779781278 rxn_smarts="[C:1]([C:2]([C:3]([H:11])([H:12])[H:13])([C:4]([C:5](=[O:6])[H:16])([H:14])[H:15])[H:10])([H:7])([H:8])[H:9]>>[C:1]([C:2]([C:3]([H:11])([H:12])[H:13])(/[C:4](=[C:5](\[O:6][H:15])[H:16])[H:14])[H:10])([H:7])([H:8])[H:9]"
C       -1.13036641      -0.81045586      -0.60103308
C       -0.23012671       0.40019495      -0.36613072
C       -1.00395659       1.48649193       0.38180466
C        1.05547324       0.08170958       0.37924041
C        2.04897110      -0.82428037      -0.09393559
O        1.65070556      -2.03741751       0.04796031
H       -2.02524336      -0.53063337      -1.16000925
H       -1.47105025      -1.23424213       0.35030619
H       -0.64089477      -1.60384059      -1.16627185
H        0.04877125       0.79026268      -1.35050632
H       -0.41128800       2.39691696       0.49273374
H       -1.91703188       1.76403851      -0.15002039
H       -1.29108426       1.14488079       1.38014376
H        1.57912353       0.98727720       0.69774072
H        0.64895480      -1.34151193       0.93771433
H        3.08904276      -0.66939085       0.22026308
16
Frame=16 idx=002077 GeodesicLength=0.7958948525437297 rxn_smarts="[C:1]([C:2]([C:3]([H:11])([H:12])[H:13])([C:4]([C:5](=[O:6])[H:16])([H:14])[H:15])[H:10])([H:7])([H:8])[H:9]>>[C:1]([C:2]([C:3]([H:11])([H:12])[H:13])(/[C:4](=[C:5](\[O:6][H:15])[H:16])[H:14])[H:10])([H:7])([H:8])[H:9]"
C       -1.13606903      -0.81131775      -0.59352177
C       -0.23081365       0.39720646      -0.36577660
C       -1.00036640       1.49035244       0.37688227
C        1.05098180       0.07381399       0.38091165
C        2.06045999      -0.81053094      -0.10347441
O        1.66949029      -2.03039423       0.00288149
H       -2.03095644      -0.53275369      -1.15298383
H       -1.47745815      -1.22749483       0.36111667
H       -0.65004897      -1.61029211      -1.15379080
H        0.05046851       0.77999274      -1.35207685
H       -0.40567821       2.40049470       0.47904968
H       -1.91463332       1.76620187      -0.15370165
H       -1.28548062       1.15688275       1.37857324
H        1.57003326       0.97644479       0.71576692
H        0.64409718      -1.36078278       0.92260155
H        3.08597378      -0.65782343       0.25754246
