14
Frame=0 idx=000569 GeodesicLength=0.0 rxn_smarts="[C:1]1([H:7])([H:8])[C@@:2]2([H:9])[C:3]([H:10])([H:11])[C:4]([H:12])([H:13])[O:5][C@@:6]12[H:14]>>[C:1]1([H:7])([H:8])[C@:2]([C:3]([C:4][H:12])([H:10])[H:11])([H:9])[C@:6]1([O:5][H:13])[H:14]"
C        1.49479443       0.00701538      -0.37750449
C        0.49315447       0.24599267       0.72465285
C       -0.76654020       1.02889937       0.36465134
C       -1.77547118       0.08809553      -0.24221436
O       -0.51632460      -1.29559012      -0.84030434
C        0.56229820      -1.07566449       0.03326108
H        1.29961507       0.47481697      -1.33447116
H        2.53976664      -0.09576963      -0.11775400
H        0.86618237       0.32533208       1.73701278
H       -0.50979115       1.89586175      -0.25532819
H       -1.20930184       1.40385544       1.29290184
H       -2.07052920       0.41846416      -1.24574082
H       -1.33488389      -1.45644578      -0.27268662
H        0.92703092      -1.96486327       0.53352403
14
Frame=1 idx=000569 GeodesicLength=0.08437651132165147 rxn_smarts="[C:1]1([H:7])([H:8])[C@@:2]2([H:9])[C:3]([H:10])([H:11])[C:4]([H:12])([H:13])[O:5][C@@:6]12[H:14]>>[C:1]1([H:7])([H:8])[C@:2]([C:3]([C:4][H:12])([H:10])[H:11])([H:9])[C@:6]1([O:5][H:13])[H:14]"
C        1.49198849       0.00788257      -0.38327242
C        0.49787624       0.24954519       0.72504913
C       -0.76752285       1.02448423       0.37005468
C       -1.76058426       0.08569342      -0.26674158
O       -0.52769082      -1.29118665      -0.82530166
C        0.56168938      -1.07333970       0.03648319
H        1.29154066       0.47327122      -1.34033043
H        2.53837793      -0.09514843      -0.12926958
H        0.87642335       0.33195361       1.73513554
H       -0.51615921       1.90261930      -0.23604233
H       -1.22069751       1.38092492       1.30042639
H       -2.03692761       0.42209931      -1.27317624
H       -1.35639119      -1.45538104      -0.24685016
H        0.92807741      -1.96341796       0.53383548
14
Frame=2 idx=000569 GeodesicLength=0.16876332120886645 rxn_smarts="[C:1]1([H:7])([H:8])[C@@:2]2([H:9])[C:3]([H:10])([H:11])[C:4]([H:12])([H:13])[O:5][C@@:6]12[H:14]>>[C:1]1([H:7])([H:8])[C@:2]([C:3]([C:4][H:12])([H:10])[H:11])([H:9])[C@:6]1([O:5][H:13])[H:14]"
C        1.48932920       0.00873464      -0.38887713
C        0.50254326       0.25311576       0.72532141
C       -0.76861817       1.01987438       0.37527456
C       -1.74559386       0.08309299      -0.29017670
O       -0.53848868      -1.28668271      -0.81086156
C        0.56111237      -1.07098393       0.03956542
H        1.28386858       0.47184714      -1.34597964
H        2.53703638      -0.09464733      -0.14038760
H        0.88643086       0.33857915       1.73316047
H       -0.52313934       1.90860890      -0.21741259
H       -1.23166064       1.35817342       1.30741403
H       -2.00336956       0.42500647      -1.29927404
H       -1.37831248      -1.45270948      -0.22184283
H        0.92886207      -1.96200940       0.53407620
14
Frame=3 idx=000569 GeodesicLength=0.25316013431592277 rxn_smarts="[C:1]1([H:7])([H:8])[C@@:2]2([H:9])[C:3]([H:10])([H:11])[C:4]([H:12])([H:13])[O:5][C@@:6]12[H:14]>>[C:1]1([H:7])([H:8])[C@:2]([C:3]([C:4][H:12])([H:10])[H:11])([H:9])[C@:6]1([O:5][H:13])[H:14]"
C        1.48682798       0.00957995      -0.39431241
C        0.50715304       0.25669628       0.72547701
C       -0.76980656       1.01508506       0.38031241
C       -1.73053893       0.08027225      -0.31252393
O       -0.54872511      -1.28206216      -0.79700587
C        0.56057846      -1.06859921       0.04250470
H        1.27661005       0.47055178      -1.35141847
H        2.53575687      -0.09425033      -0.15109611
H        0.89619821       0.34519332       1.73110047
H       -0.53069112       1.91385398      -0.19946522
H       -1.24216581       1.33565432       1.31389764
H       -1.96995268       0.42719855      -1.32403146
H       -1.40064980      -1.44853259      -0.19767524
H        0.92940540      -1.96064119       0.53423648
14
Frame=4 idx=000569 GeodesicLength=0.337566129743506 rxn_smarts="[C:1]1([H:7])([H:8])[C@@:2]2([H:9])[C:3]([H:10])([H:11])[C:4]([H:12])([H:13])[O:5][C@@:6]12[H:14]>>[C:1]1([H:7])([H:8])[C@:2]([C:3]([C:4][H:12])([H:10])[H:11])([H:9])[C@:6]1([O:5][H:13])[H:14]"
C        1.48449337       0.01042587      -0.39957428
C        0.51170362       0.26027862       0.72552394
C       -0.77106954       1.01013043       0.38517158
C       -1.71545565       0.07721339      -0.33379464
O       -0.55840619      -1.27731782      -0.78375001
C        0.56009874      -1.06618877       0.04530102
H        1.26976938       0.46938906      -1.35664854
H        2.53455207      -0.09394052      -0.16138863
H        0.90572209       0.35178313       1.72896784
H       -0.53877308       1.91837961      -0.18221784
H       -1.25219340       1.31341396       1.31991263
H       -1.93676705       0.42869304      -1.34745624
H       -1.42340431      -1.44294387      -0.17435758
H        0.92972996      -1.95931612       0.53431073
14
Frame=5 idx=000569 GeodesicLength=0.4219803240758063 rxn_smarts="[C:1]1([H:7])([H:8])[C@@:2]2([H:9])[C:3]([H:10])([H:11])[C:4]([H:12])([H:13])[O:5][C@@:6]12[H:14]>>[C:1]1([H:7])([H:8])[C@:2]([C:3]([C:4][H:12])([H:10])[H:11])([H:9])[C@:6]1([O:5][H:13])[H:14]"
C        1.48233113       0.01127884      -0.40466100
C        0.51619379       0.26385487       0.72547067
C       -0.77239002       1.00502316       0.38985727
C       -1.70037702       0.07390259      -0.35400722
O       -0.56753773      -1.27245057      -0.77110311
C        0.55968411      -1.06375683       0.04795718
H        1.26334444       0.46836027      -1.36167337
H        2.53343263      -0.09370025      -0.17126407
H        0.91500279       0.35833824       1.72677400
H       -0.54734346       1.92221206      -0.16567931
H       -1.26172982       1.29149046       1.32549620
H       -1.90389304       0.42951160      -1.36956659
H       -1.44657796      -1.43602820      -0.15189787
H        0.92986017      -1.95803625       0.53429723
14
Frame=6 idx=000569 GeodesicLength=0.5064017325911713 rxn_smarts="[C:1]1([H:7])([H:8])[C@@:2]2([H:9])[C:3]([H:10])([H:11])[C:4]([H:12])([H:13])[O:5][C@@:6]12[H:14]>>[C:1]1([H:7])([H:8])[C@:2]([C:3]([C:4][H:12])([H:10])[H:11])([H:9])[C@:6]1([O:5][H:13])[H:14]"
C        1.48034418       0.01214430      -0.40957329
C        0.52062313       0.26741755       0.72532579
C       -0.77375273       0.99977406       0.39437660
C       -1.68533219       0.07032990      -0.37318717
O       -0.57612557      -1.26746850      -0.75906786
C        0.55934517      -1.06130848       0.05047856
H        1.25732695       0.46746405      -1.36649853
H        2.53240701      -0.09351154      -0.18072720
H        0.92404428       0.36485161       1.72452894
H       -0.55636136       1.92537860      -0.14984902
H       -1.27076791       1.26991207       1.33068709
H       -1.87139834       0.42967953      -1.39039138
H       -1.47017466      -1.42786043      -0.13030073
H        0.92982204      -1.95680272       0.53419818
14
Frame=7 idx=000569 GeodesicLength=0.5908291136749669 rxn_smarts="[C:1]1([H:7])([H:8])[C@@:2]2([H:9])[C:3]([H:10])([H:11])[C:4]([H:12])([H:13])[O:5][C@@:6]12[H:14]>>[C:1]1([H:7])([H:8])[C@:2]([C:3]([C:4][H:12])([H:10])[H:11])([H:9])[C@:6]1([O:5][H:13])[H:14]"
C        1.47853360       0.01302685      -0.41431372
C        0.52499195       0.27095963       0.72509791
C       -0.77514421       0.99439219       0.39873791
C       -1.67034697       0.06648836      -0.39136463
O       -0.58417521      -1.26238511      -0.74764184
C        0.55909256      -1.05884945       0.05287246
H        1.25170444       0.46669713      -1.37113115
H        2.53148229      -0.09335642      -0.18978695
H        0.93285315       0.37131849       1.72224167
H       -0.56578760       1.92790638      -0.13471941
H       -1.27930582       1.24869904       1.33552420
H       -1.83934023       0.42922449      -1.40996698
H       -1.49420093      -1.41850535      -0.10956808
H        0.92964298      -1.95561624       0.53401862
14
Frame=8 idx=000569 GeodesicLength=0.6752607840240534 rxn_smarts="[C:1]1([H:7])([H:8])[C@@:2]2([H:9])[C:3]([H:10])([H:11])[C:4]([H:12])([H:13])[O:5][C@@:6]12[H:14]>>[C:1]1([H:7])([H:8])[C@:2]([C:3]([C:4][H:12])([H:10])[H:11])([H:9])[C@:6]1([O:5][H:13])[H:14]"
C        1.47690392       0.01393010      -0.41888816
C        0.52930261       0.27447329       0.72479685
C       -0.77655624       0.98888541       0.40295067
C       -1.65544977       0.06237531      -0.40857439
O       -0.59169280      -1.25721805      -0.73681754
C        0.55893942      -1.05638742       0.05514917
H        1.24646527       0.46605661      -1.37558428
H        2.53067298      -0.09321865      -0.19845759
H        0.94144066       0.37773339       1.71992355
H       -0.57558814       1.92982450      -0.12027903
H       -1.28735248       1.22786325       1.34004825
H       -1.80777085       0.42817968      -1.42834090
H       -1.51867043      -1.40801700      -0.08969615
H        0.92935585      -1.95448043       0.53376955
14
Frame=9 idx=000569 GeodesicLength=0.7596962935284389 rxn_smarts="[C:1]1([H:7])([H:8])[C@@:2]2([H:9])[C:3]([H:10])([H:11])[C:4]([H:12])([H:13])[O:5][C@@:6]12[H:14]>>[C:1]1([H:7])([H:8])[C@:2]([C:3]([C:4][H:12])([H:10])[H:11])([H:9])[C@:6]1([O:5][H:13])[H:14]"
C        1.47544244       0.01485686      -0.42329894
C        0.53355647       0.27795777       0.72442698
C       -0.77797123       0.98325695       0.40702434
C       -1.64064294       0.05798281      -0.42485341
O       -0.59868466      -1.25198778      -0.72658355
C        0.55888955      -1.05392350       0.05731772
H        1.24158131       0.46552963      -1.37985768
H        2.52996548      -0.09307953      -0.20675195
H        0.94981742       0.38410692       1.71757268
H       -0.58572830       1.93115384      -0.10650255
H       -1.29489843       1.20740257       1.34429554
H       -1.77671266       0.42656176      -1.44554607
H       -1.54359102      -1.39643462      -0.07070046
H        0.92897658      -1.95338368       0.53345735
14
Frame=10 idx=000569 GeodesicLength=0.8441564978259759 rxn_smarts="[C:1]1([H:7])([H:8])[C@@:2]2([H:9])[C:3]([H:10])([H:11])[C:4]([H:12])([H:13])[O:5][C@@:6]12[H:14]>>[C:1]1([H:7])([H:8])[C@:2]([C:3]([C:4][H:12])([H:10])[H:11])([H:9])[C@:6]1([O:5][H:13])[H:14]"
C        1.47413221       0.01581110      -0.42755912
C        0.53775279       0.28140920       0.72399275
C       -0.77938234       0.97750336       0.41097800
C       -1.62593144       0.05331645      -0.44025871
O       -0.60516122      -1.24673109      -0.71690679
C        0.55894926      -1.05146611       0.05939116
H        1.23701249       0.46510909      -1.38396315
H        2.52934861      -0.09291949      -0.21471033
H        0.95800071       0.39045169       1.71518083
H       -0.59617647       1.93192162      -0.09333288
H       -1.30197075       1.18728692       1.34830025
H       -1.74612404       0.42440828      -1.46166541
H       -1.56898611      -1.38377661      -0.05254092
H        0.92853629      -1.95232441       0.53309432
14
Frame=11 idx=000569 GeodesicLength=0.9286268851267867 rxn_smarts="[C:1]1([H:7])([H:8])[C@@:2]2([H:9])[C:3]([H:10])([H:11])[C:4]([H:12])([H:13])[O:5][C@@:6]12[H:14]>>[C:1]1([H:7])([H:8])[C@:2]([C:3]([C:4][H:12])([H:10])[H:11])([H:9])[C@:6]1([O:5][H:13])[H:14]"
C        1.47299396       0.01679154      -0.43167994
C        0.54190194       0.28482023       0.72350710
C       -0.78079556       0.97163116       0.41482053
C       -1.61135132       0.04837817      -0.45482276
O       -0.61112793      -1.24146593      -0.70777705
C        0.55913997      -1.04902548       0.06138674
H        1.23276189       0.46479159      -1.38792814
H        2.52886272      -0.09273155      -0.22234914
H        0.96601436       0.39676304       1.71276957
H       -0.60692367       1.93215592      -0.08076649
H       -1.30859262       1.16751430       1.35210997
H       -1.71606883       0.42175466      -1.47674703
H       -1.59489202      -1.37006522      -0.03523242
H        0.92807712      -1.95131243       0.53270906
14
Frame=12 idx=000569 GeodesicLength=1.013089742891196 rxn_smarts="[C:1]1([H:7])([H:8])[C@@:2]2([H:9])[C:3]([H:10])([H:11])[C:4]([H:12])([H:13])[O:5][C@@:6]12[H:14]>>[C:1]1([H:7])([H:8])[C@:2]([C:3]([C:4][H:12])([H:10])[H:11])([H:9])[C@:6]1([O:5][H:13])[H:14]"
C        1.47200319       0.01780109      -0.43566229
C        0.54600251       0.28819323       0.72297371
C       -0.78218956       0.96564076       0.41856285
C       -1.59688962       0.04315834      -0.46857644
O       -0.61658575      -1.23622069      -0.69918098
C        0.55946142      -1.04660360       0.06330967
H        1.22879144       0.46456302      -1.39174696
H        2.52847392      -0.09249515      -0.22967827
H        0.97386289       0.40305793       1.71033433
H       -0.61793573       1.93186845      -0.06877166
H       -1.31474720       1.14808135       1.35575148
H       -1.68654880       0.41860604      -1.49082018
H       -1.62130800      -1.35531262      -0.01879303
H        0.92760929      -1.95033817       0.53229778
14
Frame=13 idx=000569 GeodesicLength=1.0975775380970605 rxn_smarts="[C:1]1([H:7])([H:8])[C@@:2]2([H:9])[C:3]([H:10])([H:11])[C:4]([H:12])([H:13])[O:5][C@@:6]12[H:14]>>[C:1]1([H:7])([H:8])[C@:2]([C:3]([C:4][H:12])([H:10])[H:11])([H:9])[C@:6]1([O:5][H:13])[H:14]"
C        1.47117968       0.01884491      -0.43950286
C        0.55005943       0.29151239       0.72239735
C       -0.78355797       0.95952848       0.42220175
C       -1.58257772       0.03764111      -0.48152225
O       -0.62153031      -1.23099389      -0.69111308
C        0.55993208      -1.04420013       0.06516512
H        1.22510861       0.46442626      -1.39541400
H        2.52821312      -0.09219583      -0.23669159
H        0.98154928       0.40930852       1.70787666
H       -0.62917906       1.93105618      -0.05736406
H       -1.32044330       1.12901497       1.35923448
H       -1.65765800       0.41498414      -1.50389058
H       -1.64826552      -1.33953339      -0.00323929
H        0.92716967      -1.94939372       0.53186236
14
Frame=14 idx=000569 GeodesicLength=1.182051292482192 rxn_smarts="[C:1]1([H:7])([H:8])[C@@:2]2([H:9])[C:3]([H:10])([H:11])[C:4]([H:12])([H:13])[O:5][C@@:6]12[H:14]>>[C:1]1([H:7])([H:8])[C@:2]([C:3]([C:4][H:12])([H:10])[H:11])([H:9])[C@:6]1([O:5][H:13])[H:14]"
C        1.47050565       0.01992329      -0.44322355
C        0.55407762       0.29478470       0.72178902
C       -0.78489836       0.95329750       0.42576140
C       -1.56840715       0.03183458      -0.49371467
O       -0.62597065      -1.22584393      -0.68354491
C        0.56055949      -1.04183311       0.06697123
H        1.22167394       0.46437315      -1.39896283
H        2.52806734      -0.09181500      -0.24343341
H        0.98909826       0.41554548       1.70540934
H       -0.64064871       1.92975599      -0.04648552
H       -1.32570030       1.11027327       1.36260936
H       -1.62934194       0.41091528      -1.51604093
H       -1.67579901      -1.32271605       0.01143201
H        0.92678380      -1.94849515       0.53143346
14
Frame=15 idx=000569 GeodesicLength=1.266571414597156 rxn_smarts="[C:1]1([H:7])([H:8])[C@@:2]2([H:9])[C:3]([H:10])([H:11])[C:4]([H:12])([H:13])[O:5][C@@:6]12[H:14]>>[C:1]1([H:7])([H:8])[C@:2]([C:3]([C:4][H:12])([H:10])[H:11])([H:9])[C@:6]1([O:5][H:13])[H:14]"
C        1.46996929       0.02103235      -0.44682984
C        0.55806331       0.29800694       0.72114319
C       -0.78621359       0.94692648       0.42925382
C       -1.55437562       0.02573264      -0.50520112
O       -0.62991751      -1.22077786      -0.67642762
C        0.56135249      -1.03949518       0.06874411
H        1.21845388       0.46438225      -1.40238780
H        2.52803253      -0.09134694      -0.24993511
H        0.99653825       0.42178673       1.70290340
H       -0.65234278       1.92796558      -0.03608329
H       -1.33054172       1.09178915       1.36590055
H       -1.60155204       0.40640640      -1.52732433
H       -1.70395015      -1.30479105       0.02522389
H        0.92648367      -1.94761748       0.53102015
14
Frame=16 idx=000569 GeodesicLength=1.3510875463282317 rxn_smarts="[C:1]1([H:7])([H:8])[C@@:2]2([H:9])[C:3]([H:10])([H:11])[C:4]([H:12])([H:13])[O:5][C@@:6]12[H:14]>>[C:1]1([H:7])([H:8])[C@:2]([C:3]([C:4][H:12])([H:10])[H:11])([H:9])[C@:6]1([O:5][H:13])[H:14]"
C        1.46957587       0.02217872      -0.45032564
C        0.56202096       0.30117594       0.72047537
C       -0.78748991       0.94042262       0.43268665
C       -1.54049275       0.01932147      -0.51598084
O       -0.63336033      -1.21583411      -0.66976506
C        0.56232525      -1.03720093       0.07049148
H        1.21544129       0.46445599      -1.40570303
H        2.52811652      -0.09076590      -0.25619978
H        1.00386902       0.42803061       1.70038510
H       -0.66423120       1.92569398      -0.02616439
H       -1.33495789       1.07359707       1.36913309
H       -1.57436336       0.40147336      -1.53774958
H       -1.73274990      -1.28577227       0.03808382
H        0.92629642      -1.94677655       0.53063280
