10
Frame=0 idx=005712 GeodesicLength=0.0 rxn_smarts="[O:1]=[C:2]([O:3][C:4]([C:5]#[C:6][H:10])([H:8])[H:9])[H:7]>>[C:4](=[C:5]=[C:6]([H:7])[H:10])([H:8])[H:9].[O:1]=[C:2]=[O:3]"
O       -2.08200472      -1.01508989       1.30331432
C       -1.28113140      -0.39260286       0.67522347
O       -1.22084726       0.68270541       0.06076224
C        0.34501298       1.12870197      -0.75022817
C        1.24486900       0.11543227      -0.50588591
C        1.14220954      -0.96141527       0.12788965
H       -0.13557752      -0.97094284       0.58671512
H       -0.07014270       1.21791845      -1.74757072
H        0.47211397       2.07030195      -0.22892404
H        1.58549812      -1.87500919       0.47870403
10
Frame=1 idx=005712 GeodesicLength=0.10293910588114688 rxn_smarts="[O:1]=[C:2]([O:3][C:4]([C:5]#[C:6][H:10])([H:8])[H:9])[H:7]>>[C:4](=[C:5]=[C:6]([H:7])[H:10])([H:8])[H:9].[O:1]=[C:2]=[O:3]"
O       -2.12049321      -1.01321732       1.27948259
C       -1.29734969      -0.39044472       0.68282554
O       -1.20660890       0.71401917       0.12632773
C        0.34529027       1.12751161      -0.75301264
C        1.24314271       0.11093723      -0.51405405
C        1.15573298      -0.96429503       0.12505789
H       -0.15741827      -1.01729912       0.55747636
H       -0.08012360       1.20669063      -1.74716949
H        0.48574831       2.07885104      -0.25334607
H        1.63207941      -1.85275349       0.49641213
10
Frame=2 idx=005712 GeodesicLength=0.20532558755477848 rxn_smarts="[O:1]=[C:2]([O:3][C:4]([C:5]#[C:6][H:10])([H:8])[H:9])[H:7]>>[C:4](=[C:5]=[C:6]([H:7])[H:10])([H:8])[H:9].[O:1]=[C:2]=[O:3]"
O       -2.15972583      -1.00911945       1.25284564
C       -1.31259891      -0.38758247       0.69124872
O       -1.19168926       0.73864586       0.18615931
C        0.34513633       1.12566484      -0.75578581
C        1.24107730       0.10535359      -0.52435107
C        1.16707783      -0.97200654       0.11330349
H       -0.17404670      -1.05559971       0.54258168
H       -0.08774046       1.19928732      -1.74742680
H        0.49556032       2.08387685      -0.27253025
H        1.67694939      -1.82852029       0.51395510
10
Frame=3 idx=005712 GeodesicLength=0.30753380968406113 rxn_smarts="[O:1]=[C:2]([O:3][C:4]([C:5]#[C:6][H:10])([H:8])[H:9])[H:7]>>[C:4](=[C:5]=[C:6]([H:7])[H:10])([H:8])[H:9].[O:1]=[C:2]=[O:3]"
O       -2.19951724      -1.00202907       1.22458742
C       -1.32789095      -0.38426000       0.69944646
O       -1.17632043       0.75887105       0.24246247
C        0.34448035       1.12325140      -0.75836853
C        1.23938636       0.10019660      -0.53353566
C        1.17898521      -0.98028001       0.10078852
H       -0.18764728      -1.08981610       0.53753377
H       -0.09305885       1.19219243      -1.74858705
H        0.50141471       2.08750433      -0.28953461
H        1.72016812      -1.80563063       0.52520719
10
Frame=4 idx=005712 GeodesicLength=0.40968179019698897 rxn_smarts="[O:1]=[C:2]([O:3][C:4]([C:5]#[C:6][H:10])([H:8])[H:9])[H:7]>>[C:4](=[C:5]=[C:6]([H:7])[H:10])([H:8])[H:9].[O:1]=[C:2]=[O:3]"
O       -2.23887269      -0.99168057       1.19676561
C       -1.34280736      -0.38047846       0.70845765
O       -1.16073221       0.77509062       0.29547624
C        0.34344090       1.12038468      -0.76077634
C        1.23765413       0.09480753      -0.54294901
C        1.19101924      -0.99004136       0.08567914
H       -0.20035963      -1.12345620       0.53591325
H       -0.09612937       1.18678904      -1.75056679
H        0.50446433       2.08949185      -0.30359932
H        1.76232266      -1.78090713       0.53559956
10
Frame=5 idx=005712 GeodesicLength=0.5117894512676997 rxn_smarts="[O:1]=[C:2]([O:3][C:4]([C:5]#[C:6][H:10])([H:8])[H:9])[H:7]>>[C:4](=[C:5]=[C:6]([H:7])[H:10])([H:8])[H:9].[O:1]=[C:2]=[O:3]"
O       -2.27793761      -0.97848661       1.16850482
C       -1.35754039      -0.37599066       0.71843386
O       -1.14532970       0.78836831       0.34586325
C        0.34188327       1.11713436      -0.76299352
C        1.23650040       0.09036954      -0.55040292
C        1.20426857      -0.99891855       0.07210373
H       -0.21218835      -1.15631435       0.53817365
H       -0.09682913       1.18092105      -1.75364565
H        0.50397405       2.09101808      -0.31657607
H        1.80319888      -1.75810117       0.54053885
10
Frame=6 idx=005712 GeodesicLength=0.6138742932060036 rxn_smarts="[O:1]=[C:2]([O:3][C:4]([C:5]#[C:6][H:10])([H:8])[H:9])[H:7]>>[C:4](=[C:5]=[C:6]([H:7])[H:10])([H:8])[H:9].[O:1]=[C:2]=[O:3]"
O       -2.31636331      -0.96255129       1.14032151
C       -1.37206614      -0.37101217       0.72947036
O       -1.13010796       0.79906783       0.39407187
C        0.33981901       1.11350705      -0.76508285
C        1.23561418       0.08641173      -0.55680946
C        1.21837959      -1.00752043       0.05884202
H       -0.22379057      -1.18935650       0.54241141
H       -0.09538208       1.17532995      -1.75772852
H        0.50069478       2.09184731      -0.32816230
H        1.84320249      -1.73572349       0.54266596
10
Frame=7 idx=005712 GeodesicLength=0.7159474209018761 rxn_smarts="[O:1]=[C:2]([O:3][C:4]([C:5]#[C:6][H:10])([H:8])[H:9])[H:7]>>[C:4](=[C:5]=[C:6]([H:7])[H:10])([H:8])[H:9].[O:1]=[C:2]=[O:3]"
O       -2.35421928      -0.94409116       1.11148914
C       -1.38646694      -0.36551534       0.74162069
O       -1.11500231       0.80772874       0.44079738
C        0.33715234       1.10948484      -0.76706293
C        1.23501347       0.08304926      -0.56196941
C        1.23343725      -1.01560263       0.04622715
H       -0.23519814      -1.22260179       0.54878017
H       -0.09205331       1.16963790      -1.76275370
H        0.49472529       2.09216893      -0.33884465
H        1.88261162      -1.71425876       0.54171615
10
Frame=8 idx=005712 GeodesicLength=0.818017179316848 rxn_smarts="[O:1]=[C:2]([O:3][C:4]([C:5]#[C:6][H:10])([H:8])[H:9])[H:7]>>[C:4](=[C:5]=[C:6]([H:7])[H:10])([H:8])[H:9].[O:1]=[C:2]=[O:3]"
O       -2.39140066      -0.92319590       1.08164440
C       -1.40076251      -0.35948618       0.75510548
O       -1.10004753       0.81465656       0.48636673
C        0.33380105       1.10503023      -0.76896024
C        1.23462088       0.08024057      -0.56593688
C        1.24939645      -1.02318715       0.03415040
H       -0.24655922      -1.25621730       0.55711369
H       -0.08692344       1.16385391      -1.76869494
H        0.48619251       2.09197037      -0.34877491
H        1.92168246      -1.69366512       0.53798626
10
Frame=9 idx=005712 GeodesicLength=0.9200920874223799 rxn_smarts="[O:1]=[C:2]([O:3][C:4]([C:5]#[C:6][H:10])([H:8])[H:9])[H:7]>>[C:4](=[C:5]=[C:6]([H:7])[H:10])([H:8])[H:9].[O:1]=[C:2]=[O:3]"
O       -2.42734414      -0.89981410       1.05272556
C       -1.41525829      -0.35327831       0.76921334
O       -1.08556369       0.81978719       0.53035737
C        0.32988150       1.10021033      -0.77083076
C        1.23447493       0.07798254      -0.56879576
C        1.26617739      -1.03034783       0.02231655
H       -0.25844433      -1.29078392       0.56589453
H       -0.07945158       1.15846851      -1.77568583
H        0.47521956       2.09118785      -0.35771875
H        1.96030865      -1.67341225       0.53252375
10
Frame=10 idx=005712 GeodesicLength=1.0221839804573172 rxn_smarts="[O:1]=[C:2]([O:3][C:4]([C:5]#[C:6][H:10])([H:8])[H:9])[H:7]>>[C:4](=[C:5]=[C:6]([H:7])[H:10])([H:8])[H:9].[O:1]=[C:2]=[O:3]"
O       -2.46207856      -0.87416100       1.02455799
C       -1.43007534      -0.34684469       0.78386473
O       -1.07154813       0.82337772       0.57306582
C        0.32534863       1.09498797      -0.77272308
C        1.23454171       0.07627089      -0.57052718
C        1.28379107      -1.03704020       0.01073050
H       -0.27092372      -1.32630024       0.57527482
H       -0.06963855       1.15346352      -1.78368010
H        0.46189785       2.08981131      -0.36587158
H        1.99868504      -1.65356529       0.52530807
10
Frame=11 idx=005712 GeodesicLength=1.1243043351169237 rxn_smarts="[O:1]=[C:2]([O:3][C:4]([C:5]#[C:6][H:10])([H:8])[H:9])[H:7]>>[C:4](=[C:5]=[C:6]([H:7])[H:10])([H:8])[H:9].[O:1]=[C:2]=[O:3]"
O       -2.49563429      -0.84630412       0.99657054
C       -1.44514159      -0.34012013       0.79938266
O       -1.05779697       0.82559955       0.61494162
C        0.32010900       1.08926160      -0.77470380
C        1.23468005       0.07493743      -0.57140611
C        1.30224489      -1.04333801      -0.00082047
H       -0.28411365      -1.36290553       0.58516976
H       -0.05768467       1.14892579      -1.79255364
H        0.44640266       2.08770176      -0.37335579
H        2.03693457      -1.63375834       0.51677523
10
Frame=12 idx=005712 GeodesicLength=1.2264596965360104 rxn_smarts="[O:1]=[C:2]([O:3][C:4]([C:5]#[C:6][H:10])([H:8])[H:9])[H:7]>>[C:4](=[C:5]=[C:6]([H:7])[H:10])([H:8])[H:9].[O:1]=[C:2]=[O:3]"
O       -2.52786214      -0.81634257       0.97010340
C       -1.46068812      -0.33324211       0.81518835
O       -1.04446316       0.82642917       0.65575627
C        0.31425412       1.08304301      -0.77687221
C        1.23495890       0.07401695      -0.57142189
C        1.32158301      -1.04917835      -0.01238819
H       -0.29839423      -1.40089394       0.59475524
H       -0.04318864       1.14511225      -1.80233944
H        0.42878239       2.08480674      -0.38016635
H        2.07501787      -1.61375115       0.50738481
10
Frame=13 idx=005712 GeodesicLength=1.3286635973391006 rxn_smarts="[O:1]=[C:2]([O:3][C:4]([C:5]#[C:6][H:10])([H:8])[H:9])[H:7]>>[C:4](=[C:5]=[C:6]([H:7])[H:10])([H:8])[H:9].[O:1]=[C:2]=[O:3]"
O       -2.55884086      -0.78428058       0.94409442
C       -1.47659716      -0.32606091       0.83176372
O       -1.03127648       0.82601980       0.69601201
C        0.30763736       1.07618615      -0.77928950
C        1.23521022       0.07333713      -0.57081506
C        1.34185325      -1.05460717      -0.02412961
H       -0.31376910      -1.44028014       0.60439438
H       -0.02644295       1.14203928      -1.81283404
H        0.40913018       2.08095745      -0.38645851
H        2.11309554      -1.59331101       0.49726219
10
Frame=14 idx=005712 GeodesicLength=1.4309198025836871 rxn_smarts="[O:1]=[C:2]([O:3][C:4]([C:5]#[C:6][H:10])([H:8])[H:9])[H:7]>>[C:4](=[C:5]=[C:6]([H:7])[H:10])([H:8])[H:9].[O:1]=[C:2]=[O:3]"
O       -2.58852306      -0.75016486       0.91931310
C       -1.49298435      -0.31860931       0.84881415
O       -1.01826382       0.82435357       0.73560837
C        0.30030303       1.06864218      -0.78206902
C        1.23545282       0.07287015      -0.56964539
C        1.36314449      -1.05956236      -0.03608962
H       -0.33055652      -1.48128944       0.61353867
H       -0.00724042       1.13989522      -1.82395813
H        0.38748917       2.07604468      -0.39228105
H        2.15117865      -1.57217983       0.48676892
10
Frame=15 idx=005712 GeodesicLength=1.5332414219959234 rxn_smarts="[O:1]=[C:2]([O:3][C:4]([C:5]#[C:6][H:10])([H:8])[H:9])[H:7]>>[C:4](=[C:5]=[C:6]([H:7])[H:10])([H:8])[H:9].[O:1]=[C:2]=[O:3]"
O       -2.61687467      -0.71391770       0.89508161
C       -1.50978526      -0.31077012       0.86663151
O       -1.00520203       0.82148686       0.77485517
C        0.29214272       1.06026485      -0.78528530
C        1.23555590       0.07246185      -0.56811822
C        1.38554494      -1.06405393      -0.04840143
H       -0.34885564      -1.52399290       0.62238059
H        0.01420056       1.13874506      -1.83547385
H        0.36390179       2.06987841      -0.39772897
H        2.18937171      -1.55010241       0.47605890
10
Frame=16 idx=005712 GeodesicLength=1.635634224973665 rxn_smarts="[O:1]=[C:2]([O:3][C:4]([C:5]#[C:6][H:10])([H:8])[H:9])[H:7]>>[C:4](=[C:5]=[C:6]([H:7])[H:10])([H:8])[H:9].[O:1]=[C:2]=[O:3]"
O       -2.64383208      -0.67547501       0.87161076
C       -1.52702671      -0.30249716       0.88513760
O       -0.99198538       0.81738964       0.81377483
C        0.28315919       1.05094917      -0.78904662
C        1.23549086       0.07201522      -0.56637519
C        1.40919073      -1.06802534      -0.06113177
H       -0.36894766      -1.56857074       0.63061937
H        0.03783411       1.13870484      -1.84717048
H        0.33840540       2.06229192      -0.40286256
H        2.22771155      -1.52678253       0.46544405
