13
Frame=0 idx=006506 GeodesicLength=0.0 rxn_smarts="[C:1](#[C:2][C@:3]12[C:4]([H:9])([H:10])[C@@:5]1([H:11])[O:6][C:7]2([H:12])[H:13])[H:8]>>[C:1](#[C:2][C:3]1=[C:5]([H:11])[C:4]1([H:9])[H:10])[H:8].[O:6]=[C:7]([H:12])[H:13]"
C        2.78626251       1.25242925       0.35112931
C        1.70732400       0.76086573       0.13717728
C        0.47436665       0.14634439      -0.15569204
C       -0.79331357       0.89159028      -0.29278233
C       -0.60463246      -0.11659806       0.80744922
O       -1.16740312      -1.41476336       0.61257554
C       -1.03025515      -1.82090706      -0.59208334
H        3.74284645       1.67913283       0.53531486
H       -1.52520423       0.57088132      -1.04540758
H       -0.86326143       1.94968414      -0.05654024
H       -0.63792913       0.12965833       1.85931004
H       -1.25626605      -2.87037181      -0.74434410
H       -0.83253452      -1.15794595      -1.41610659
13
Frame=1 idx=006506 GeodesicLength=0.10266972092642361 rxn_smarts="[C:1](#[C:2][C@:3]12[C:4]([H:9])([H:10])[C@@:5]1([H:11])[O:6][C:7]2([H:12])[H:13])[H:8]>>[C:1](#[C:2][C:3]1=[C:5]([H:11])[C:4]1([H:9])[H:10])[H:8].[O:6]=[C:7]([H:12])[H:13]"
C        2.78886875       1.22251443       0.33843365
C        1.69787625       0.74761672       0.15156378
C        0.45232061       0.15500989      -0.13448484
C       -0.80587090       0.91857928      -0.28263549
C       -0.63677006      -0.09645254       0.81293596
O       -1.20514995      -1.41984690       0.60613559
C       -0.99594799      -1.82614345      -0.59012553
H        3.75737854       1.63865602       0.48079424
H       -1.52860381       0.61217278      -1.04900379
H       -0.86235180       1.97557375      -0.03838751
H       -0.68610563       0.12819148       1.86870033
H       -1.14429503      -2.89072089      -0.73959516
H       -0.83134898      -1.16515057      -1.42433125
13
Frame=2 idx=006506 GeodesicLength=0.2055540514401087 rxn_smarts="[C:1](#[C:2][C@:3]12[C:4]([H:9])([H:10])[C@@:5]1([H:11])[O:6][C:7]2([H:12])[H:13])[H:8]>>[C:1](#[C:2][C:3]1=[C:5]([H:11])[C:4]1([H:9])[H:10])[H:8].[O:6]=[C:7]([H:12])[H:13]"
C        2.79255537       1.18587548       0.32796543
C        1.68875983       0.73216511       0.16751003
C        0.43066155       0.16299734      -0.11276589
C       -0.81706704       0.94574188      -0.27203259
C       -0.66915443      -0.07714726       0.81770831
O       -1.24264988      -1.42659048       0.59666332
C       -0.96129503      -1.83050882      -0.58768017
H        3.76561879       1.60563555       0.42092468
H       -1.52968550       0.65541053      -1.05304585
H       -0.85967312       2.00111375      -0.01846292
H       -0.73621390       0.12450244       1.87683793
H       -1.03494232      -2.90461394      -0.73094060
H       -0.82691432      -1.17458159      -1.43268167
13
Frame=3 idx=006506 GeodesicLength=0.3086499542139757 rxn_smarts="[C:1](#[C:2][C@:3]12[C:4]([H:9])([H:10])[C@@:5]1([H:11])[O:6][C:7]2([H:12])[H:13])[H:8]>>[C:1](#[C:2][C:3]1=[C:5]([H:11])[C:4]1([H:9])[H:10])[H:8].[O:6]=[C:7]([H:12])[H:13]"
C        2.79127400       1.15845341       0.31369575
C        1.67697812       0.72232405       0.18178719
C        0.40769219       0.17439204      -0.09206547
C       -0.83108925       0.97350847      -0.26107482
C       -0.70162797      -0.05759889       0.82162389
O       -1.27587464      -1.43569418       0.58504612
C       -0.92288044      -1.83402819      -0.58410759
H        3.77848212       1.55230953       0.36383974
H       -1.53278390       0.69884681      -1.05656353
H       -0.86214946       2.02664391       0.00295515
H       -0.78740929       0.11971679       1.88345713
H       -0.92258667      -2.91278498      -0.71773022
H       -0.81802480      -1.18608875      -1.44086334
13
Frame=4 idx=006506 GeodesicLength=0.41210062143767257 rxn_smarts="[C:1](#[C:2][C@:3]12[C:4]([H:9])([H:10])[C@@:5]1([H:11])[O:6][C:7]2([H:12])[H:13])[H:8]>>[C:1](#[C:2][C:3]1=[C:5]([H:11])[C:4]1([H:9])[H:10])[H:8].[O:6]=[C:7]([H:12])[H:13]"
C        2.79097857       1.12467800       0.29940464
C        1.66569482       0.71024010       0.19637669
C        0.38509651       0.18509265      -0.07139840
C       -0.84379947       1.00159824      -0.24963758
C       -0.73401480      -0.03873559       0.82474222
O       -1.30848625      -1.44631736       0.57061087
C       -0.88446767      -1.83662961      -0.57978962
H        3.78443238       1.50604196       0.30446034
H       -1.53404571       0.74450521      -1.05992929
H       -0.86276744       2.05194606       0.02617920
H       -0.83978693       0.11292815       1.88846648
H       -0.81362589      -2.91548315      -0.70036100
H       -0.80520813      -1.19986467      -1.44912456
13
Frame=5 idx=006506 GeodesicLength=0.5158038227844945 rxn_smarts="[C:1](#[C:2][C@:3]12[C:4]([H:9])([H:10])[C@@:5]1([H:11])[O:6][C:7]2([H:12])[H:13])[H:8]>>[C:1](#[C:2][C:3]1=[C:5]([H:11])[C:4]1([H:9])[H:10])[H:8].[O:6]=[C:7]([H:12])[H:13]"
C        2.78929399       1.09052066       0.28381887
C        1.65375410       0.69908756       0.21054104
C        0.36230792       0.19671924      -0.05105251
C       -0.85673488       1.03018701      -0.23761272
C       -0.76633764      -0.02020468       0.82704230
O       -1.33905982      -1.45864284       0.55336792
C       -0.84428413      -1.83832946      -0.57446834
H        3.78779046       1.45655491       0.24415366
H       -1.53492910       0.79178996      -1.06271245
H       -0.86427707       2.07707100       0.05139795
H       -0.89329302       0.10438281       1.89167899
H       -0.70717366      -2.91334257      -0.67887272
H       -0.78705714      -1.21579361      -1.45728200
13
Frame=6 idx=006506 GeodesicLength=0.6200299653528978 rxn_smarts="[C:1](#[C:2][C@:3]12[C:4]([H:9])([H:10])[C@@:5]1([H:11])[O:6][C:7]2([H:12])[H:13])[H:8]>>[C:1](#[C:2][C:3]1=[C:5]([H:11])[C:4]1([H:9])[H:10])[H:8].[O:6]=[C:7]([H:12])[H:13]"
C        2.78495913       1.05877672       0.26690463
C        1.64073197       0.68949687       0.22337801
C        0.33887048       0.20969113      -0.03138311
C       -0.87062491       1.05951403      -0.22488932
C       -0.79879897      -0.00187807       0.82849708
O       -1.36728786      -1.47275040       0.53333298
C       -0.80230567      -1.83892521      -0.56812919
H        3.79017161       1.39868039       0.18325133
H       -1.53637023       0.84093889      -1.06454214
H       -0.86749110       2.10224435       0.07873622
H       -0.94788340       0.09408098       1.89296483
H       -0.60044613      -2.90631388      -0.65278061
H       -0.76352493      -1.23355579      -1.46534071
13
Frame=7 idx=006506 GeodesicLength=0.7247298793145658 rxn_smarts="[C:1](#[C:2][C@:3]12[C:4]([H:9])([H:10])[C@@:5]1([H:11])[O:6][C:7]2([H:12])[H:13])[H:8]>>[C:1](#[C:2][C:3]1=[C:5]([H:11])[C:4]1([H:9])[H:10])[H:8].[O:6]=[C:7]([H:12])[H:13]"
C        2.77979482       1.02443994       0.24964037
C        1.62771224       0.67865260       0.23510718
C        0.31540239       0.22255940      -0.01229745
C       -0.88393286       1.08941636      -0.21148787
C       -0.83114300       0.01603295       0.82900852
O       -1.39406818      -1.48833333       0.51038888
C       -0.75992461      -1.83859712      -0.56069466
H        3.78765056       1.34227641       0.12100970
H       -1.53700021       0.89257857      -1.06540300
H       -0.86976708       2.12723824       0.10811174
H       -1.00336766       0.08198059       1.89199723
H       -0.49649101      -2.89495473      -0.62224590
H       -0.73486537      -1.25328988      -1.47313475
13
Frame=8 idx=006506 GeodesicLength=0.8300505935726041 rxn_smarts="[C:1](#[C:2][C@:3]12[C:4]([H:9])([H:10])[C@@:5]1([H:11])[O:6][C:7]2([H:12])[H:13])[H:8]>>[C:1](#[C:2][C:3]1=[C:5]([H:11])[C:4]1([H:9])[H:10])[H:8].[O:6]=[C:7]([H:12])[H:13]"
C        2.77258409       0.99127205       0.23099520
C        1.61403807       0.66837721       0.24492540
C        0.29153285       0.23623057       0.00586786
C       -0.89766214       1.12007121      -0.19726066
C       -0.86337938       0.03366687       0.82858028
O       -1.41851170      -1.50554352       0.48443340
C       -0.71608235      -1.83729031      -0.55200113
H        3.78266924       1.28092058       0.05857312
H       -1.53792538       0.94656362      -1.06487585
H       -0.87275870       2.15213966       0.13979180
H       -1.05957232       0.06804365       1.88865146
H       -0.39473457      -2.87961619      -0.58723545
H       -0.70019771      -1.27483540      -1.48044544
13
Frame=9 idx=006506 GeodesicLength=0.9360418146621481 rxn_smarts="[C:1](#[C:2][C@:3]12[C:4]([H:9])([H:10])[C@@:5]1([H:11])[O:6][C:7]2([H:12])[H:13])[H:8]>>[C:1](#[C:2][C:3]1=[C:5]([H:11])[C:4]1([H:9])[H:10])[H:8].[O:6]=[C:7]([H:12])[H:13]"
C        2.76490581       0.95438814       0.21158916
C        1.60062362       0.65613084       0.25360944
C        0.26787586       0.24943525       0.02351204
C       -0.91021783       1.15143005      -0.18207273
C       -0.89540834       0.05085518       0.82711605
O       -1.44209640      -1.52374230       0.45458097
C       -0.67176029      -1.83534010      -0.54182507
H        3.77182514       1.22463893      -0.00569006
H       -1.53732707       1.00365999      -1.06301575
H       -0.87400718       2.17671005       0.17410532
H       -1.11689896       0.05215016       1.88250056
H       -0.29865980      -2.86178897      -0.54750612
H       -0.65885456      -1.29852722      -1.48690381
13
Frame=10 idx=006506 GeodesicLength=1.0428195350471086 rxn_smarts="[C:1](#[C:2][C@:3]12[C:4]([H:9])([H:10])[C@@:5]1([H:11])[O:6][C:7]2([H:12])[H:13])[H:8]>>[C:1](#[C:2][C:3]1=[C:5]([H:11])[C:4]1([H:9])[H:10])[H:8].[O:6]=[C:7]([H:12])[H:13]"
C        2.75471820       0.92087588       0.18958065
C        1.58659157       0.64397916       0.25833879
C        0.24371978       0.26320196       0.03932350
C       -0.92324619       1.18360044      -0.16580772
C       -0.92695611       0.06770591       0.82456507
O       -1.46338751      -1.54331580       0.42116328
C       -0.62649125      -1.83259416      -0.53016125
H        3.75954789       1.16304954      -0.06761041
H       -1.53764994       1.06357123      -1.05889428
H       -0.87557724       2.20095574       0.21115410
H       -1.17408216       0.03421848       1.87346805
H       -0.20584560      -2.84108776      -0.50281795
H       -0.61134145      -1.32416061      -1.49230184
13
Frame=11 idx=006506 GeodesicLength=1.1505987262712276 rxn_smarts="[C:1](#[C:2][C@:3]12[C:4]([H:9])([H:10])[C@@:5]1([H:11])[O:6][C:7]2([H:12])[H:13])[H:8]>>[C:1](#[C:2][C:3]1=[C:5]([H:11])[C:4]1([H:9])[H:10])[H:8].[O:6]=[C:7]([H:12])[H:13]"
C        2.74329087       0.88593194       0.16598581
C        1.57229883       0.62997001       0.25983886
C        0.21931014       0.27658030       0.05351267
C       -0.93568585       1.21654954      -0.14846127
C       -0.95822653       0.08420425       0.82077197
O       -1.48302322      -1.56408130       0.38389259
C       -0.58144045      -1.82924827      -0.51706971
H        3.74357833       1.10352611      -0.12893988
H       -1.53772564       1.12684869      -1.05252429
H       -0.87568084       2.22466020       0.25093725
H       -1.23171980       0.01444528       1.86107602
H       -0.11698473      -2.81758725      -0.45271562
H       -0.55799111      -1.35179950      -1.49630441
13
Frame=12 idx=006506 GeodesicLength=1.2595672927586783 rxn_smarts="[C:1](#[C:2][C@:3]12[C:4]([H:9])([H:10])[C@@:5]1([H:11])[O:6][C:7]2([H:12])[H:13])[H:8]>>[C:1](#[C:2][C:3]1=[C:5]([H:11])[C:4]1([H:9])[H:10])[H:8].[O:6]=[C:7]([H:12])[H:13]"
C        2.73059509       0.84973133       0.14052319
C        1.55757390       0.61440401       0.25812073
C        0.19463989       0.28968662       0.06610019
C       -0.94752604       1.25035617      -0.12981073
C       -0.98929777       0.10037806       0.81568877
O       -1.50082821      -1.58593538       0.34218924
C       -0.53633201      -1.82539237      -0.50232471
H        3.72423817       1.04612391      -0.19028196
H       -1.53740315       1.19371106      -1.04358310
H       -0.87442126       2.24767075       0.29382925
H       -1.29022882      -0.00720414       1.84490979
H       -0.03319559      -2.79204836      -0.39710889
H       -0.49781421      -1.38148166      -1.49825177
13
Frame=13 idx=006506 GeodesicLength=1.3698696558878114 rxn_smarts="[C:1](#[C:2][C@:3]12[C:4]([H:9])([H:10])[C@@:5]1([H:11])[O:6][C:7]2([H:12])[H:13])[H:8]>>[C:1](#[C:2][C:3]1=[C:5]([H:11])[C:4]1([H:9])[H:10])[H:8].[O:6]=[C:7]([H:12])[H:13]"
C        2.71660736       0.81218734       0.11260784
C        1.54238746       0.59710875       0.25302420
C        0.16978178       0.30239112       0.07706623
C       -0.95847070       1.28504268      -0.10958561
C       -1.02016153       0.11623516       0.80923646
O       -1.51685144      -1.60859874       0.29526123
C       -0.49121621      -1.82124122      -0.48555407
H        3.70163348       0.99262369      -0.25201220
H       -1.53620552       1.26449925      -1.03167519
H       -0.87137840       2.26970020       0.34027690
H       -1.35003111      -0.03073432       1.82440134
H        0.04366129      -2.76578450      -0.33587064
H       -0.42975646      -1.41342941      -1.49717650
13
Frame=14 idx=006506 GeodesicLength=1.4819033791785396 rxn_smarts="[C:1](#[C:2][C@:3]12[C:4]([H:9])([H:10])[C@@:5]1([H:11])[O:6][C:7]2([H:12])[H:13])[H:8]>>[C:1](#[C:2][C:3]1=[C:5]([H:11])[C:4]1([H:9])[H:10])[H:8].[O:6]=[C:7]([H:12])[H:13]"
C        2.70049485       0.77632199       0.08166936
C        1.52607831       0.57948241       0.24397589
C        0.14431777       0.31535920       0.08611210
C       -0.96934520       1.32073405      -0.08743394
C       -1.05105617       0.13179536       0.80130903
O       -1.52994846      -1.63226725       0.24250565
C       -0.44553574      -1.81644612      -0.46678749
H        3.67705520       0.93653026      -0.31435119
H       -1.53505974       1.33931105      -1.01607159
H       -0.86777603       2.29056099       0.39079830
H       -1.41137846      -0.05639267       1.79894803
H        0.11517026      -2.73784924      -0.26839836
H       -0.35301660      -1.44714003      -1.49227580
13
Frame=15 idx=006506 GeodesicLength=1.5960010497349337 rxn_smarts="[C:1](#[C:2][C@:3]12[C:4]([H:9])([H:10])[C@@:5]1([H:11])[O:6][C:7]2([H:12])[H:13])[H:8]>>[C:1](#[C:2][C:3]1=[C:5]([H:11])[C:4]1([H:9])[H:10])[H:8].[O:6]=[C:7]([H:12])[H:13]"
C        2.68288240       0.73898806       0.04748033
C        1.50880511       0.56051253       0.23069252
C        0.11843158       0.32798819       0.09301432
C       -0.97935095       1.35732487      -0.06322750
C       -1.08193756       0.14708807       0.79167460
O       -1.54006941      -1.65672590       0.18343632
C       -0.40010849      -1.81138092      -0.44573659
H        3.64976048       0.88392797      -0.37762173
H       -1.53307980       1.41850554      -0.99633196
H       -0.86234198       2.30974148       0.44558157
H       -1.47468671      -0.08387922       1.76763771
H        0.17931017      -2.70913176      -0.19436796
H       -0.26761484      -1.48295892      -1.48223165
13
Frame=16 idx=006506 GeodesicLength=1.7125536421569145 rxn_smarts="[C:1](#[C:2][C@:3]12[C:4]([H:9])([H:10])[C@@:5]1([H:11])[O:6][C:7]2([H:12])[H:13])[H:8]>>[C:1](#[C:2][C:3]1=[C:5]([H:11])[C:4]1([H:9])[H:10])[H:8].[O:6]=[C:7]([H:12])[H:13]"
C        2.66329901       0.70184908       0.00943869
C        1.49020392       0.54118690       0.21291889
C        0.09197847       0.34062399       0.09761192
C       -0.98872453       1.39481242      -0.03654788
C       -1.11293607       0.16212015       0.78016180
O       -1.54601415      -1.68195618       0.11721703
C       -0.35456045      -1.80590376      -0.42211961
H        3.62017322       0.83185127      -0.44272682
H       -1.53036648       1.50224906      -0.97165304
H       -0.85557029       2.32675513       0.50523459
H       -1.54055856      -0.11325864       1.72936709
H        0.23553551      -2.67976624      -0.11352327
H       -0.17245960      -1.52056319      -1.46537939
