12
Frame=0 idx=001500 GeodesicLength=0.0 rxn_smarts="[O:1]=[C:2]1[C:3]([H:7])([H:8])[C:4]([H:9])=[C:5]([H:10])[C:6]1([H:11])[H:12]>>[H:7][H:12].[O:1]=[C:2]1[C:3]([H:8])=[C:4]([H:9])[C:5]([H:10])=[C:6]1[H:11]"
O       -1.81970397      -1.33669374       0.82252228
C       -0.92446062      -0.67836823       0.39457998
C        0.48856095      -1.08494161       0.01723156
C        1.26420782       0.03541841       0.27232448
C        0.44525937       1.17445419       0.31137280
C       -0.87157361       0.80634622       0.08198814
H       -0.13183804      -0.63072213      -1.36141757
H        0.82404155      -2.11248182       0.00820047
H        2.34455200       0.05143313       0.29369152
H        0.80672901       2.19120445       0.36765608
H       -1.74014936       1.44779063       0.12905907
H       -0.68562514       0.13656050      -1.33720878
12
Frame=1 idx=001500 GeodesicLength=0.07068804964681273 rxn_smarts="[O:1]=[C:2]1[C:3]([H:7])([H:8])[C:4]([H:9])=[C:5]([H:10])[C:6]1([H:11])[H:12]>>[H:7][H:12].[O:1]=[C:2]1[C:3]([H:8])=[C:4]([H:9])[C:5]([H:10])=[C:6]1[H:11]"
O       -1.82215837      -1.33817310       0.81334702
C       -0.92141697      -0.67642080       0.40149878
C        0.48915148      -1.08509048       0.01266396
C        1.26546030       0.03541429       0.27797242
C        0.44591335       1.17535036       0.31677182
C       -0.87161056       0.80713676       0.07736040
H       -0.12889462      -0.63944238      -1.37827799
H        0.82324681      -2.11314391       0.02775144
H        2.34598898       0.05321327       0.29086588
H        0.80873747       2.19212247       0.36483111
H       -1.74030290       1.44642328       0.14855154
H       -0.69411497       0.14261023      -1.35333639
12
Frame=2 idx=001500 GeodesicLength=0.14137810071798637 rxn_smarts="[O:1]=[C:2]1[C:3]([H:7])([H:8])[C:4]([H:9])=[C:5]([H:10])[C:6]1([H:11])[H:12]>>[H:7][H:12].[O:1]=[C:2]1[C:3]([H:8])=[C:4]([H:9])[C:5]([H:10])=[C:6]1[H:11]"
O       -1.82443136      -1.33953202       0.80429031
C       -0.91831612      -0.67444626       0.40878141
C        0.48970447      -1.08522025       0.00820642
C        1.26670480       0.03539572       0.28365135
C        0.44655349       1.17624215       0.32219703
C       -0.87163955       0.80787828       0.07284483
H       -0.12584979      -0.64858439      -1.39522330
H        0.82227024      -2.11332169       0.04680164
H        2.34735110       0.05499061       0.28826105
H        0.81073481       2.19296519       0.36216099
H       -1.74006555       1.44475375       0.16753926
H       -0.70301652       0.14887891      -1.36951098
12
Frame=3 idx=001500 GeodesicLength=0.212070306452344 rxn_smarts="[O:1]=[C:2]1[C:3]([H:7])([H:8])[C:4]([H:9])=[C:5]([H:10])[C:6]1([H:11])[H:12]>>[H:7][H:12].[O:1]=[C:2]1[C:3]([H:8])=[C:4]([H:9])[C:5]([H:10])=[C:6]1[H:11]"
O       -1.82651391      -1.34076428       0.79538463
C       -0.91516272      -0.67244772       0.41643313
C        0.49021409      -1.08532780       0.00387835
C        1.26794204       0.03536260       0.28937746
C        0.44718050       1.17712978       0.32766417
C       -0.87165893       0.80856379       0.06845960
H       -0.12267818      -0.65817013      -1.41224651
H        0.82112527      -2.11304931       0.06529280
H        2.34864307       0.05676262       0.28587023
H        0.81271934       2.19373689       0.35964708
H       -1.73946703       1.44280780       0.18596202
H       -0.71234355       0.15539576      -1.38572298
12
Frame=4 idx=001500 GeodesicLength=0.2827648698073888 rxn_smarts="[O:1]=[C:2]1[C:3]([H:7])([H:8])[C:4]([H:9])=[C:5]([H:10])[C:6]1([H:11])[H:12]>>[H:7][H:12].[O:1]=[C:2]1[C:3]([H:8])=[C:4]([H:9])[C:5]([H:10])=[C:6]1[H:11]"
O       -1.82839748      -1.34186414       0.78665935
C       -0.91196094      -0.67042811       0.42445455
C        0.49067515      -1.08540962      -0.00030599
C        1.26917289       0.03531507       0.29516356
C        0.44779514       1.17801364       0.33318502
C       -0.87166687       0.80918663       0.06421769
H       -0.11935119      -0.66822337      -1.42934509
H        0.81982600      -2.11236409       0.08318117
H        2.34986910       0.05852668       0.28369035
H        0.81468941       2.19444158       0.35728880
H       -1.73853885       1.44061266       0.20377752
H       -0.72211236       0.16219305      -1.40196693
12
Frame=5 idx=001500 GeodesicLength=0.3534542935333037 rxn_smarts="[O:1]=[C:2]1[C:3]([H:7])([H:8])[C:4]([H:9])=[C:5]([H:10])[C:6]1([H:11])[H:12]>>[H:7][H:12].[O:1]=[C:2]1[C:3]([H:8])=[C:4]([H:9])[C:5]([H:10])=[C:6]1[H:11]"
O       -1.83007402      -1.34282678       0.77814050
C       -0.90871480      -0.66838963       0.43284243
C        0.49108224      -1.08546204      -0.00433762
C        1.27039775       0.03525299       0.30101960
C        0.44839793       1.17889384       0.33877057
C       -0.87166112       0.80974076       0.06012823
H       -0.11584002      -0.67876958      -1.44652019
H        0.81838766      -2.11130368       0.10043882
H        2.35103229       0.06028001       0.28171676
H        0.81664356       2.19508220       0.35508502
H       -1.73731386       1.43819472       0.22095649
H       -0.73233761       0.16930718      -1.41824061
12
Frame=6 idx=001500 GeodesicLength=0.42414608524637787 rxn_smarts="[O:1]=[C:2]1[C:3]([H:7])([H:8])[C:4]([H:9])=[C:5]([H:10])[C:6]1([H:11])[H:12]>>[H:7][H:12].[O:1]=[C:2]1[C:3]([H:8])=[C:4]([H:9])[C:5]([H:10])=[C:6]1[H:11]"
O       -1.83153043      -1.34364223       0.76987557
C       -0.90542646      -0.66633354       0.44159240
C        0.49143160      -1.08548112      -0.00820821
C        1.27161881       0.03517796       0.30694665
C        0.44899099       1.17977194       0.34441940
C       -0.87163906       0.81022064       0.05619614
H       -0.11211067      -0.68984545      -1.46377318
H        0.81682430      -2.10990931       0.11702125
H        2.35213786       0.06201786       0.27995974
H        0.81857763       2.19566408       0.35305858
H       -1.73582618       1.43558403       0.23745419
H       -0.74304837       0.17677516      -1.43454252
12
Frame=7 idx=001500 GeodesicLength=0.4948355605730301 rxn_smarts="[O:1]=[C:2]1[C:3]([H:7])([H:8])[C:4]([H:9])=[C:5]([H:10])[C:6]1([H:11])[H:12]>>[H:7][H:12].[O:1]=[C:2]1[C:3]([H:8])=[C:4]([H:9])[C:5]([H:10])=[C:6]1[H:11]"
O       -1.83276253      -1.34430816       0.76188085
C       -0.90209962      -0.66426163       0.45069289
C        0.49171886      -1.08546363      -0.01191621
C        1.27283645       0.03508984       0.31294936
C        0.44957472       1.18064801       0.35013702
C       -0.87159866       0.81062149       0.05242270
H       -0.10812736      -0.70148520      -1.48111125
H        0.81515095      -2.10821798       0.13292998
H        2.35318875       0.06373806       0.27841240
H        0.82049041       2.19619026       0.35120815
H       -1.73410711       1.43280567       0.25326999
H       -0.75426488       0.18464327      -1.45087588
12
Frame=8 idx=001500 GeodesicLength=0.5655228378127272 rxn_smarts="[O:1]=[C:2]1[C:3]([H:7])([H:8])[C:4]([H:9])=[C:5]([H:10])[C:6]1([H:11])[H:12]>>[H:7][H:12].[O:1]=[C:2]1[C:3]([H:8])=[C:4]([H:9])[C:5]([H:10])=[C:6]1[H:11]"
O       -1.83376803      -1.34482281       0.75416656
C       -0.89873766      -0.66217575       0.46012928
C        0.49194054      -1.08540660      -0.01546206
C        1.27405091       0.03498870       0.31903019
C        0.45014948       1.18152213       0.35592531
C       -0.87153824       0.81093903       0.04880672
H       -0.10384711      -0.71372795      -1.49854310
H        0.81338101      -2.10626405       0.14817638
H        2.35418755       0.06543878       0.27706933
H        0.82238081       2.19666345       0.34952999
H       -1.73218436       1.42988294       0.26841635
H       -0.76601488       0.19296214      -1.46724495
12
Frame=9 idx=001500 GeodesicLength=0.6362077254211104 rxn_smarts="[O:1]=[C:2]1[C:3]([H:7])([H:8])[C:4]([H:9])=[C:5]([H:10])[C:6]1([H:11])[H:12]>>[H:7][H:12].[O:1]=[C:2]1[C:3]([H:8])=[C:4]([H:9])[C:5]([H:10])=[C:6]1[H:11]"
O       -1.83454546      -1.34518538       0.74674003
C       -0.89534373      -0.66007758       0.46988460
C        0.49209367      -1.08530753      -0.01884865
C        1.27526241       0.03487477       0.32518837
C        0.45071565       1.18239443       0.36178338
C       -0.87145645       0.81116976       0.04534525
H       -0.09922410      -0.72661930      -1.51607861
H        0.81152712      -2.10407865       0.16277908
H        2.35513683       0.06711788       0.27592767
H        0.82424794       2.19708627       0.34802018
H       -1.73008293       1.42683673       0.28291304
H       -0.77833094       0.20178860      -1.48365434
12
Frame=10 idx=001500 GeodesicLength=0.7068901418577688 rxn_smarts="[O:1]=[C:2]1[C:3]([H:7])([H:8])[C:4]([H:9])=[C:5]([H:10])[C:6]1([H:11])[H:12]>>[H:7][H:12].[O:1]=[C:2]1[C:3]([H:8])=[C:4]([H:9])[C:5]([H:10])=[C:6]1[H:11]"
O       -1.83509442      -1.34539594       0.73960545
C       -0.89192074      -0.65796869       0.47993977
C        0.49217591      -1.08516437      -0.02208045
C        1.27647109       0.03474836       0.33142101
C        0.45127369       1.18326511       0.36770788
C       -0.87135236       0.81131090       0.04203407
H       -0.09420761      -0.74021183      -1.53372802
H        0.80960093      -2.10168960       0.17676181
H        2.35603927       0.06877306       0.27498683
H        0.82609112       2.19746126       0.34667368
H       -1.72782479       1.42368565       0.29678606
H       -0.79125211       0.21118609      -1.50010811
12
Frame=11 idx=001500 GeodesicLength=0.7775698093637559 rxn_smarts="[O:1]=[C:2]1[C:3]([H:7])([H:8])[C:4]([H:9])=[C:5]([H:10])[C:6]1([H:11])[H:12]>>[H:7][H:12].[O:1]=[C:2]1[C:3]([H:8])=[C:4]([H:9])[C:5]([H:10])=[C:6]1[H:11]"
O       -1.83541610      -1.34545517       0.73276269
C       -0.88847171      -0.65585054       0.49027396
C        0.49218550      -1.08497569      -0.02516235
C        1.27767707       0.03460989       0.33772373
C        0.45182408       1.18413440       0.37369350
C       -0.87122536       0.81136045       0.03886792
H       -0.08874084      -0.75456683      -1.55150073
H        0.80761295      -2.09912145       0.19015363
H        2.35689750       0.07040246       0.27424420
H        0.82790971       2.19779100       0.34548677
H       -1.72542867       1.42044625       0.31006590
H       -0.80482412       0.22122523      -1.51660922
12
Frame=12 idx=001500 GeodesicLength=0.848246642052043 rxn_smarts="[O:1]=[C:2]1[C:3]([H:7])([H:8])[C:4]([H:9])=[C:5]([H:10])[C:6]1([H:11])[H:12]>>[H:7][H:12].[O:1]=[C:2]1[C:3]([H:8])=[C:4]([H:9])[C:5]([H:10])=[C:6]1[H:11]"
O       -1.83551285      -1.34536459       0.72620797
C       -0.88499973      -0.65372448       0.50086439
C        0.49212128      -1.08474071      -0.02809990
C        1.27888050       0.03445998       0.34409000
C        0.45236742       1.18500252       0.37973317
C       -0.87107522       0.81131732       0.03584087
H       -0.08276144      -0.76975661      -1.56940495
H        0.80557295      -2.09639533       0.20298762
H        2.35771432       0.07200441       0.27369689
H        0.82970315       2.19807819       0.34445667
H       -1.72291053       1.41713293       0.32278599
H       -0.81909986       0.23198638      -1.53315871
12
Frame=13 idx=001500 GeodesicLength=0.9189213069310671 rxn_smarts="[O:1]=[C:2]1[C:3]([H:7])([H:8])[C:4]([H:9])=[C:5]([H:10])[C:6]1([H:11])[H:12]>>[H:7][H:12].[O:1]=[C:2]1[C:3]([H:8])=[C:4]([H:9])[C:5]([H:10])=[C:6]1[H:11]"
O       -1.83538860      -1.34512672       0.71993306
C       -0.88150806      -0.65159224       0.51168641
C        0.49198289      -1.08445941      -0.03089894
C        1.28008168       0.03429942       0.35051237
C        0.45290468       1.18586996       0.38581779
C       -0.87090216       0.81118125       0.03294660
H       -0.07619761      -0.78586374      -1.58744750
H        0.80348956      -2.09352977       0.21529945
H        2.35849302       0.07357739       0.27334304
H        0.83147161       2.19832605       0.34357916
H       -1.72028309       1.41375853       0.33498337
H       -0.83414392       0.24355929      -1.54975481
12
Frame=14 idx=001500 GeodesicLength=0.9895938908663447 rxn_smarts="[O:1]=[C:2]1[C:3]([H:7])([H:8])[C:4]([H:9])=[C:5]([H:10])[C:6]1([H:11])[H:12]>>[H:7][H:12].[O:1]=[C:2]1[C:3]([H:8])=[C:4]([H:9])[C:5]([H:10])=[C:6]1[H:11]"
O       -1.83504750      -1.34474406       0.71392603
C       -0.87800018      -0.64945471       0.52271166
C        0.49177071      -1.08413237      -0.03356662
C        1.28128049       0.03412883       0.35697967
C        0.45343626       1.18673641       0.39193722
C       -0.87070689       0.81095295       0.03017880
H       -0.06897069      -0.80298890      -1.60563245
H        0.80137211      -2.09053853       0.22712949
H        2.35923647       0.07511937       0.27317890
H        0.83321414       2.19853646       0.34285175
H       -1.71755743       1.41033360       0.34669593
H       -0.85002750       0.25605094      -1.56639038
12
Frame=15 idx=001500 GeodesicLength=1.060264125097228 rxn_smarts="[O:1]=[C:2]1[C:3]([H:7])([H:8])[C:4]([H:9])=[C:5]([H:10])[C:6]1([H:11])[H:12]>>[H:7][H:12].[O:1]=[C:2]1[C:3]([H:8])=[C:4]([H:9])[C:5]([H:10])=[C:6]1[H:11]"
O       -1.83449841      -1.34422300       0.70815067
C       -0.87448018      -0.64731471       0.53391370
C        0.49148602      -1.08376024      -0.03610799
C        1.28247678       0.03394948       0.36348671
C        0.45396343       1.18760285       0.39808092
C       -0.87049017       0.81063373       0.02753138
H       -0.06098852      -0.82124023      -1.62396056
H        0.79922672      -2.08743177       0.23852624
H        2.35994691       0.07663151       0.27320061
H        0.83493474       2.19871167       0.34225456
H       -1.71473617       1.40686530       0.35798056
H       -0.86684115       0.26957543      -1.58305681
12
Frame=16 idx=001500 GeodesicLength=1.1309429239765234 rxn_smarts="[O:1]=[C:2]1[C:3]([H:7])([H:8])[C:4]([H:9])=[C:5]([H:10])[C:6]1([H:11])[H:12]>>[H:7][H:12].[O:1]=[C:2]1[C:3]([H:8])=[C:4]([H:9])[C:5]([H:10])=[C:6]1[H:11]"
O       -1.83375091      -1.34356943       0.70257252
C       -0.87095439      -0.64517451       0.54525648
C        0.49113094      -1.08334688      -0.03852986
C        1.28367078       0.03376145       0.37002189
C        0.45448677       1.18846858       0.40423753
C       -0.87025412       0.81022726       0.02499527
H       -0.05214129      -0.84075406      -1.64243022
H        0.79705851      -2.08421508       0.24955575
H        2.36062666       0.07811457       0.27338377
H        0.83663393       2.19885372       0.34178670
H       -1.71182280       1.40335832       0.36888999
H       -0.88468410       0.28427607      -1.59973981
