13
Frame=0 idx=006241 GeodesicLength=0.0 rxn_smarts="[O:1]=[C:2]([N:3]1[C:4]([H:8])([H:9])[C:5]([H:10])([H:11])[C:6]1([H:12])[H:13])[H:7]>>[H:8][H:13].[O:1]=[C:2]([N+:3]1=[C:6]([H:12])[C:5]([H:10])([H:11])[C-:4]1[H:9])[H:7]"
O        2.24225072       1.24437100      -1.17985230
C        1.79258634       0.20144294      -0.81802937
N        0.46866588       0.03847565      -0.39806375
C       -0.52717070       0.92567465      -0.11598412
C       -1.45015547      -0.24755562       0.10501396
C       -0.15605276      -1.03988265       0.19894135
H        2.35372621      -0.74665481      -0.78545860
H       -0.12353256       0.66512381       1.65848533
H       -0.61011589       1.93342547      -0.48744718
H       -2.16274529      -0.24819538       0.92371646
H       -1.93261899      -0.49941948      -0.84425499
H        0.07960990      -2.07295157      -0.02258440
H        0.02555265      -0.15385396       1.76551765
13
Frame=1 idx=006241 GeodesicLength=0.07518164196126095 rxn_smarts="[O:1]=[C:2]([N:3]1[C:4]([H:8])([H:9])[C:5]([H:10])([H:11])[C:6]1([H:12])[H:13])[H:7]>>[H:8][H:13].[O:1]=[C:2]([N+:3]1=[C:6]([H:12])[C:5]([H:10])([H:11])[C-:4]1[H:9])[H:7]"
O        2.24129162       1.24625864      -1.17652366
C        1.78876054       0.19975299      -0.82708019
N        0.46790914       0.03634181      -0.40234201
C       -0.52582943       0.92671328      -0.10857125
C       -1.45093997      -0.24914200       0.10025686
C       -0.15465312      -1.03970484       0.20879112
H        2.35677199      -0.74358208      -0.77625332
H       -0.11939388       0.67597023       1.65578650
H       -0.61019601       1.93241916      -0.48562279
H       -2.16300934      -0.24687179       0.91969393
H       -1.93607207      -0.50337812      -0.84647320
H        0.07283475      -2.07196237      -0.02618861
H        0.03252581      -0.16281493       1.76452664
13
Frame=2 idx=006241 GeodesicLength=0.15035249567314404 rxn_smarts="[O:1]=[C:2]([N:3]1[C:4]([H:8])([H:9])[C:5]([H:10])([H:11])[C:6]1([H:12])[H:13])[H:7]>>[H:8][H:13].[O:1]=[C:2]([N+:3]1=[C:6]([H:12])[C:5]([H:10])([H:11])[C-:4]1[H:9])[H:7]"
O        2.23993325       1.24778679      -1.17454197
C        1.78542687       0.19830926      -0.83485458
N        0.46745215       0.03435401      -0.40597303
C       -0.52435588       0.92776022      -0.10103680
C       -1.45156569      -0.25069822       0.09528877
C       -0.15323107      -1.03948574       0.21856507
H        2.35940822      -0.74058577      -0.76825128
H       -0.11579939       0.68717427       1.65335059
H       -0.61006624       1.93145029      -0.48353140
H       -2.16333374      -0.24564786       0.91526584
H       -1.93927835      -0.50722595      -0.84895897
H        0.06633802      -2.07078928      -0.02926620
H        0.03907184      -0.17240201       1.76394395
13
Frame=3 idx=006241 GeodesicLength=0.22551302725941752 rxn_smarts="[O:1]=[C:2]([N:3]1[C:4]([H:8])([H:9])[C:5]([H:10])([H:11])[C:6]1([H:12])[H:13])[H:7]>>[H:8][H:13].[O:1]=[C:2]([N+:3]1=[C:6]([H:12])[C:5]([H:10])([H:11])[C-:4]1[H:9])[H:7]"
O        2.23829393       1.24907518      -1.17355647
C        1.78249032       0.19706697      -0.84157958
N        0.46723399       0.03248348      -0.40908220
C       -0.52279706       0.92880012      -0.09344641
C       -1.45206018      -0.25222475       0.09016128
C       -0.15182212      -1.03924446       0.22822260
H        2.36174423      -0.73768305      -0.76122665
H       -0.11265130       0.69880699       1.65108041
H       -0.60978828       1.93049099      -0.48127593
H       -2.16367067      -0.24449486       0.91055085
H       -1.94235274      -0.51098686      -0.85161085
H        0.06006227      -2.06946562      -0.03192778
H        0.04531761      -0.18262414       1.76369073
13
Frame=4 idx=006241 GeodesicLength=0.3006668690616767 rxn_smarts="[O:1]=[C:2]([N:3]1[C:4]([H:8])([H:9])[C:5]([H:10])([H:11])[C:6]1([H:12])[H:13])[H:7]>>[H:8][H:13].[O:1]=[C:2]([N+:3]1=[C:6]([H:12])[C:5]([H:10])([H:11])[C-:4]1[H:9])[H:7]"
O        2.23649506       1.25022690      -1.17315942
C        1.77984823       0.19597340      -0.84751593
N        0.46719134       0.03069888      -0.41180406
C       -0.52119722       0.92981615      -0.08587350
C       -1.45245113      -0.25372358       0.08492845
C       -0.15045663      -1.03899985       0.23771582
H        2.36386401      -0.73486016      -0.75493822
H       -0.10983273       0.71094806       1.64886360
H       -0.60942595       1.92950904      -0.47896988
H       -2.16396612      -0.24338311       0.90567484
H       -1.94541564      -0.51468697      -0.85432008
H        0.05395096      -2.06802290      -0.03428063
H        0.05139583      -0.19349585       1.76367899
13
Frame=5 idx=006241 GeodesicLength=0.37581640819365547 rxn_smarts="[O:1]=[C:2]([N:3]1[C:4]([H:8])([H:9])[C:5]([H:10])([H:11])[C:6]1([H:12])[H:13])[H:7]>>[H:8][H:13].[O:1]=[C:2]([N+:3]1=[C:6]([H:12])[C:5]([H:10])([H:11])[C-:4]1[H:9])[H:7]"
O        2.23461764       1.25130634      -1.17307448
C        1.77743340       0.19499413      -0.85284011
N        0.46728332       0.02897979      -0.41422835
C       -0.51958644       0.93079781      -0.07836916
C       -1.45275831      -0.25519583       0.07963076
C       -0.14915415      -1.03876681       0.24701113
H        2.36582465      -0.73210166      -0.74920707
H       -0.10726823       0.72367307       1.64661721
H       -0.60902441       1.92848079      -0.47669734
H       -2.16418105      -0.24229177       0.90072971
H       -1.94855166      -0.51834338      -0.85700663
H        0.04796248      -2.06648467      -0.03641447
H        0.05740277      -0.20504781       1.76384881
13
Frame=6 idx=006241 GeodesicLength=0.4509650034357924 rxn_smarts="[O:1]=[C:2]([N:3]1[C:4]([H:8])([H:9])[C:5]([H:10])([H:11])[C:6]1([H:12])[H:13])[H:7]>>[H:8][H:13].[O:1]=[C:2]([N+:3]1=[C:6]([H:12])[C:5]([H:10])([H:11])[C-:4]1[H:9])[H:7]"
O        2.23272168       1.25235725      -1.17310256
C        1.77520631       0.19411005      -0.85765926
N        0.46748642       0.02731424      -0.41640920
C       -0.51798593       0.93173886      -0.07096965
C       -1.45299521      -0.25664318       0.07429896
C       -0.14792550      -1.03855651       0.25608910
H        2.36765742      -0.72940447      -0.74393574
H       -0.10491647       0.73706242       1.64427898
H       -0.60861714       1.92738691      -0.47452591
H       -2.16428815      -0.24120654       0.89578180
H       -1.95181700      -0.52197068      -0.85961146
H        0.04206945      -2.06486779      -0.03839896
H        0.06340411      -0.21732056       1.76416390
13
Frame=7 idx=006241 GeodesicLength=0.5261142395867069 rxn_smarts="[O:1]=[C:2]([N:3]1[C:4]([H:8])([H:9])[C:5]([H:10])([H:11])[C:6]1([H:12])[H:13])[H:7]>>[H:8][H:13].[O:1]=[C:2]([N+:3]1=[C:6]([H:12])[C:5]([H:10])([H:11])[C-:4]1[H:9])[H:7]"
O        2.23082355       1.25339522      -1.17318543
C        1.77314315       0.19330825      -0.86204219
N        0.46778647       0.02569482      -0.41838184
C       -0.51640703       0.93263715      -0.06369381
C       -1.45317332      -0.25806252       0.06895717
C       -0.14678210      -1.03838211       0.26492593
H        2.36941204      -0.72674021      -0.73896495
H       -0.10274848       0.75118465       1.64180381
H       -0.60822351       1.92621646      -0.47249464
H       -2.16426626      -0.24011640       0.89088362
H       -1.95525671      -0.52556418      -0.86209005
H        0.03624303      -2.06318601      -0.04031529
H        0.06944915      -0.23038512       1.76459766
13
Frame=8 idx=006241 GeodesicLength=0.6012676938147261 rxn_smarts="[O:1]=[C:2]([N:3]1[C:4]([H:8])([H:9])[C:5]([H:10])([H:11])[C:6]1([H:12])[H:13])[H:7]>>[H:8][H:13].[O:1]=[C:2]([N+:3]1=[C:6]([H:12])[C:5]([H:10])([H:11])[C-:4]1[H:9])[H:7]"
O        2.22894813       1.25443768      -1.17324568
C        1.77123124       0.19258227      -0.86602918
N        0.46817640       0.02411724      -0.42016673
C       -0.51486005       0.93349112      -0.05656007
C       -1.45330136      -0.25945321       0.06362745
C       -0.14572989      -1.03825449       0.27350743
H        2.37111363      -0.72410014      -0.73421835
H       -0.10075374       0.76612587       1.63914900
H       -0.60786262       1.92495591      -0.47064826
H       -2.16409778      -0.23901262       0.88607993
H       -1.95890450      -0.52912597      -0.86440251
H        0.03046342      -2.06144968      -0.04222641
H        0.07557713      -0.24431399       1.76513337
13
Frame=9 idx=006241 GeodesicLength=0.6764259731281353 rxn_smarts="[O:1]=[C:2]([N:3]1[C:4]([H:8])([H:9])[C:5]([H:10])([H:11])[C:6]1([H:12])[H:13])[H:7]>>[H:8][H:13].[O:1]=[C:2]([N+:3]1=[C:6]([H:12])[C:5]([H:10])([H:11])[C-:4]1[H:9])[H:7]"
O        2.22711358       1.25549697      -1.17323107
C        1.76946527       0.19192937      -0.86964185
N        0.46865366       0.02257928      -0.42177490
C       -0.51335292       0.93430032      -0.04958316
C       -1.45338699      -0.26081421       0.05833054
C       -0.14477352      -1.03818489       0.28182042
H        2.37278479      -0.72147606      -0.72963049
H       -0.09893011       0.78198062       1.63627385
H       -0.60755100       1.92359188      -0.46902867
H       -2.16376682      -0.23788776       0.88141162
H       -1.96278914      -0.53265522      -0.86651221
H        0.02471297      -2.05966698      -0.04419361
H        0.08182024      -0.25919332       1.76575953
13
Frame=10 idx=006241 GeodesicLength=0.7515894910015803 rxn_smarts="[O:1]=[C:2]([N:3]1[C:4]([H:8])([H:9])[C:5]([H:10])([H:11])[C:6]1([H:12])[H:13])[H:7]>>[H:8][H:13].[O:1]=[C:2]([N+:3]1=[C:6]([H:12])[C:5]([H:10])([H:11])[C-:4]1[H:9])[H:7]"
O        2.22534320       1.25658699      -1.17307605
C        1.76784382       0.19134928      -0.87289201
N        0.46921802       0.02107988      -0.42321261
C       -0.51189368       0.93506452      -0.04277915
C       -1.45343745      -0.26214537       0.05308818
C       -0.14391591      -1.03818447       0.28985280
H        2.37443997      -0.71886647      -0.72516265
H       -0.09728244       0.79885933       1.63313359
H       -0.60730675       1.92210837      -0.46768389
H       -2.16325689      -0.23673498       0.87692049
H       -1.96693825      -0.53615303      -0.86838076
H        0.01897629      -2.05784447      -0.04627417
H        0.08821007      -0.27511958       1.76646623
13
Frame=11 idx=006241 GeodesicLength=0.8267560777762623 rxn_smarts="[O:1]=[C:2]([N:3]1[C:4]([H:8])([H:9])[C:5]([H:10])([H:11])[C:6]1([H:12])[H:13])[H:7]>>[H:8][H:13].[O:1]=[C:2]([N+:3]1=[C:6]([H:12])[C:5]([H:10])([H:11])[C-:4]1[H:9])[H:7]"
O        2.22365187       1.25771653      -1.17274276
C        1.76636915       0.19084283      -0.87578245
N        0.46987141       0.01961886      -0.42448170
C       -0.51048845       0.93578434      -0.03616154
C       -1.45346018      -0.26344516       0.04792278
C       -0.14316081      -1.03826623       0.29758868
H        2.37609961      -0.71626257      -0.72075688
H       -0.09581916       0.81688232       1.62968143
H       -0.60714628       1.92048916      -0.46665998
H       -2.16255065      -0.23554755       0.87264966
H       -1.97138025      -0.53961492      -0.86996898
H        0.01323623      -2.05598760      -0.04853147
H        0.09477751      -0.29221001       1.76724321
13
Frame=12 idx=006241 GeodesicLength=0.9019240308842379 rxn_smarts="[O:1]=[C:2]([N:3]1[C:4]([H:8])([H:9])[C:5]([H:10])([H:11])[C:6]1([H:12])[H:13])[H:7]>>[H:8][H:13].[O:1]=[C:2]([N+:3]1=[C:6]([H:12])[C:5]([H:10])([H:11])[C-:4]1[H:9])[H:7]"
O        2.22206097       1.25889723      -1.17217572
C        1.76504665       0.19041316      -0.87830784
N        0.47061764       0.01819704      -0.42557993
C       -0.50914405       0.93646054      -0.02974601
C       -1.45346261      -0.26471278       0.04285920
C       -0.14251076      -1.03844368       0.30501220
H        2.37777770      -0.71366226      -0.71637760
H       -0.09455517       0.83619089       1.62586277
H       -0.60708872       1.91871428      -0.46601164
H       -2.16162874      -0.23431879       0.86864594
H       -1.97614448      -0.54303812      -0.87123340
H        0.00747695      -2.05410037      -0.05102799
H        0.10155462      -0.31059713       1.76808000
13
Frame=13 idx=006241 GeodesicLength=0.9770909904013946 rxn_smarts="[O:1]=[C:2]([N:3]1[C:4]([H:8])([H:9])[C:5]([H:10])([H:11])[C:6]1([H:12])[H:13])[H:7]>>[H:8][H:13].[O:1]=[C:2]([N+:3]1=[C:6]([H:12])[C:5]([H:10])([H:11])[C-:4]1[H:9])[H:7]"
O        2.22059396       1.26014140      -1.17131479
C        1.76388449       0.19006508      -0.88045580
N        0.47146216       0.01681612      -0.42650139
C       -0.50786746       0.93709430      -0.02354925
C       -1.45345249      -0.26594728       0.03792519
C       -0.14196816      -1.03873181       0.31210523
H        2.37948750      -0.71106447      -0.71199278
H       -0.09350978       0.85694727       1.62161396
H       -0.60715537       1.91676022      -0.46580029
H       -2.16046911      -0.23304174       0.86496120
H       -1.98126279      -0.54641863      -0.87212534
H        0.00168198      -2.05218553      -0.05383020
H        0.10857507      -0.33043494       1.76896425
13
Frame=14 idx=006241 GeodesicLength=1.0522648411576387 rxn_smarts="[O:1]=[C:2]([N:3]1[C:4]([H:8])([H:9])[C:5]([H:10])([H:11])[C:6]1([H:12])[H:13])[H:7]>>[H:8][H:13].[O:1]=[C:2]([N+:3]1=[C:6]([H:12])[C:5]([H:10])([H:11])[C-:4]1[H:9])[H:7]"
O        2.21929041       1.26146904      -1.17005346
C        1.76289359       0.18980740      -0.88220474
N        0.47241229       0.01547938      -0.42723524
C       -0.50666815       0.93768688      -0.01759376
C       -1.45343760      -0.26714969       0.03315376
C       -0.14153272      -1.03914573       0.31885087
H        2.38122928      -0.70848436      -0.70761387
H       -0.09271594       0.87934846       1.61685476
H       -0.60737265       1.91459643      -0.46610456
H       -2.15904554      -0.23170923       0.86165556
H       -1.98676999      -0.54975788      -0.87258695
H       -0.00416346      -2.05024371      -0.05700388
H        0.11588049      -0.35189700       1.76988150
13
Frame=15 idx=006241 GeodesicLength=1.1274190982309282 rxn_smarts="[O:1]=[C:2]([N:3]1[C:4]([H:8])([H:9])[C:5]([H:10])([H:11])[C:6]1([H:12])[H:13])[H:7]>>[H:8][H:13].[O:1]=[C:2]([N+:3]1=[C:6]([H:12])[C:5]([H:10])([H:11])[C-:4]1[H:9])[H:7]"
O        2.21809844       1.26285580      -1.16854737
C        1.76208392       0.18963392      -0.88354206
N        0.47347072       0.01418381      -0.42778366
C       -0.50553939       0.93824036      -0.01187857
C       -1.45343184      -0.26830464       0.02857755
C       -0.14122225      -1.03971742       0.32519263
H        2.38309763      -0.70581748      -0.70291968
H       -0.09216470       0.90355405       1.61151156
H       -0.60774862       1.91220207      -0.46695853
H       -2.15732647      -0.23030426       0.85879767
H       -1.99272584      -0.55300688      -0.87255766
H       -0.01010607      -2.04828016      -0.06068381
H        0.12351447      -0.37523917       1.77079193
13
Frame=16 idx=006241 GeodesicLength=1.2025761039941454 rxn_smarts="[O:1]=[C:2]([N:3]1[C:4]([H:8])([H:9])[C:5]([H:10])([H:11])[C:6]1([H:12])[H:13])[H:7]>>[H:8][H:13].[O:1]=[C:2]([N+:3]1=[C:6]([H:12])[C:5]([H:10])([H:11])[C-:4]1[H:9])[H:7]"
O        2.21706644       1.26432600      -1.16666516
C        1.76147395       0.18955648      -0.88442704
N        0.47464938       0.01293468      -0.42812453
C       -0.50449170       0.93875681      -0.00643005
C       -1.45344429      -0.26941232       0.02424126
C       -0.14103637      -1.04046730       0.33110797
H        2.38509104      -0.70308133      -0.69792854
H       -0.09190431       0.92982834       1.60547004
H       -0.60831728       1.90953359      -0.46846507
H       -2.15527459      -0.22881894       0.85646770
H       -1.99917440      -0.55616409      -0.87195964
H       -0.01616605      -2.04629105      -0.06495312
H        0.13152818      -0.40070087       1.77166617
