14
Frame=0 idx=004967 GeodesicLength=0.0 rxn_smarts="[C:1]([C:2]([C:3]([H:10])([H:11])[H:12])([O:4][H:13])[C:5](=[O:6])[H:14])([H:7])([H:8])[H:9]>>[C:1]([C:2](=[O:4])[C@:5]([C:3]([H:10])([H:11])[H:12])([O:6][H:13])[H:14])([H:7])([H:8])[H:9]"
C       -0.97381212       1.34755474      -0.10279836
C       -0.31339848       0.10935809      -0.57538805
C        1.07534544      -0.28703162       0.88634839
O        0.21161855       0.09885581      -1.76361815
C       -0.26606681      -1.19020874       0.03308866
O        0.17588879      -2.11760566      -0.71811230
H       -0.27956809       2.18943515      -0.10564546
H       -1.78255910       1.58078124      -0.79745553
H       -1.38903818       1.21666762       0.89472497
H        1.45801003      -1.20993740       1.31355105
H        0.77359106       0.40580848       1.66854609
H        1.83064064       0.13895439       0.22955760
H        0.40400196      -0.90193317      -1.85215379
H       -0.92465363      -1.38069890       0.88935492
14
Frame=1 idx=004967 GeodesicLength=0.08008437286951575 rxn_smarts="[C:1]([C:2]([C:3]([H:10])([H:11])[H:12])([O:4][H:13])[C:5](=[O:6])[H:14])([H:7])([H:8])[H:9]>>[C:1]([C:2](=[O:4])[C@:5]([C:3]([H:10])([H:11])[H:12])([O:6][H:13])[H:14])([H:7])([H:8])[H:9]"
C       -0.97189401       1.34989749      -0.10502546
C       -0.29203652       0.11972643      -0.57223767
C        1.07602699      -0.28919839       0.89018944
O        0.22203730       0.10055700      -1.76554260
C       -0.26852852      -1.18819165       0.03055674
O        0.16043302      -2.11361182      -0.73355938
H       -0.29520803       2.20496752      -0.14233309
H       -1.80760121       1.54700697      -0.77862690
H       -1.35836779       1.23895329       0.90646451
H        1.46862323      -1.21335282       1.30638004
H        0.76460004       0.38591802       1.68426906
H        1.84063402       0.15334730       0.25512861
H        0.40113528      -0.91891214      -1.85276795
H       -0.93985381      -1.37710720       0.87710467
14
Frame=2 idx=004967 GeodesicLength=0.1601404542197737 rxn_smarts="[C:1]([C:2]([C:3]([H:10])([H:11])[H:12])([O:4][H:13])[C:5](=[O:6])[H:14])([H:7])([H:8])[H:9]>>[C:1]([C:2](=[O:4])[C@:5]([C:3]([H:10])([H:11])[H:12])([O:6][H:13])[H:14])([H:7])([H:8])[H:9]"
C       -0.96979277       1.35194124      -0.10731300
C       -0.27054056       0.12996276      -0.56912105
C        1.07678713      -0.29136693       0.89401239
O        0.23277191       0.10268945      -1.76729360
C       -0.27103433      -1.18595188       0.02792492
O        0.14451884      -2.10942730      -0.74885675
H       -0.31233535       2.21947627      -0.18004027
H       -1.83127729       1.51214724      -0.75787088
H       -1.32684493       1.26226251       0.91717495
H        1.47945648      -1.21659329       1.29890531
H        0.75533150       0.36522568       1.69981484
H        1.85019459       0.16818389       0.28170367
H        0.39794281      -0.93567455      -1.85355017
H       -0.95517803      -1.37287509       0.86450964
14
Frame=3 idx=004967 GeodesicLength=0.24018443314906135 rxn_smarts="[C:1]([C:2]([C:3]([H:10])([H:11])[H:12])([O:4][H:13])[C:5](=[O:6])[H:14])([H:7])([H:8])[H:9]>>[C:1]([C:2](=[O:4])[C@:5]([C:3]([H:10])([H:11])[H:12])([O:6][H:13])[H:14])([H:7])([H:8])[H:9]"
C       -0.96748964       1.35369490      -0.10965191
C       -0.24898846       0.14002082      -0.56603558
C        1.07759307      -0.29350797       0.89780742
O        0.24378855       0.10523048      -1.76886402
C       -0.27357176      -1.18352984       0.02519430
O        0.12819404      -2.10505319      -0.76401513
H       -0.33094232       2.23278714      -0.21866987
H       -1.85340893       1.47639965      -0.73510389
H       -1.29450327       1.28663201       0.92671268
H        1.49052878      -1.21959264       1.29111248
H        0.74572764       0.34373107       1.71512790
H        1.85921551       0.18349306       0.30930778
H        0.39442304      -0.95224220      -1.85450652
H       -0.97056624      -1.36806329       0.85158437
14
Frame=4 idx=004967 GeodesicLength=0.32022408103900385 rxn_smarts="[C:1]([C:2]([C:3]([H:10])([H:11])[H:12])([O:4][H:13])[C:5](=[O:6])[H:14])([H:7])([H:8])[H:9]>>[C:1]([C:2](=[O:4])[C@:5]([C:3]([H:10])([H:11])[H:12])([O:6][H:13])[H:14])([H:7])([H:8])[H:9]"
C       -0.96496987       1.35516754      -0.11203686
C       -0.22746042       0.14985142      -0.56298843
C        1.07841136      -0.29558778       0.90156506
O        0.25505022       0.10815017      -1.77025827
C       -0.27612736      -1.18097373       0.02236351
O        0.11151997      -2.10050067      -0.77904132
H       -0.35102335       2.24472326      -0.25810986
H       -1.87381813       1.44002009      -0.71022900
H       -1.26137429       1.31207557       0.93493622
H        1.50185694      -1.22227389       1.28300219
H        0.73573102       0.32144555       1.73014017
H        1.86757787       0.19929071       0.33796146
H        0.39058794      -0.96864277      -1.85564807
H       -0.98596191      -1.36274545       0.83834322
14
Frame=5 idx=004967 GeodesicLength=0.40018308197420094 rxn_smarts="[C:1]([C:2]([C:3]([H:10])([H:11])[H:12])([O:4][H:13])[C:5](=[O:6])[H:14])([H:7])([H:8])[H:9]>>[C:1]([C:2](=[O:4])[C@:5]([C:3]([H:10])([H:11])[H:12])([O:6][H:13])[H:14])([H:7])([H:8])[H:9]"
C       -0.96225742       1.35634184      -0.11441092
C       -0.20603470       0.15942620      -0.55995989
C        1.07923221      -0.29758473       0.90528723
O        0.26652301       0.11142286      -1.77144060
C       -0.27868895      -1.17832555       0.01945806
O        0.09456038      -2.09578086      -0.79392873
H       -0.37263980       2.25517553      -0.29828683
H       -1.89237338       1.40345799      -0.68349479
H       -1.22744417       1.33840142       0.94187510
H        1.51348425      -1.22456979       1.27457774
H        0.72533209       0.29838810       1.74480145
H        1.87519718       0.21553276       0.36765291
H        0.38641389      -0.98487663      -1.85697866
H       -1.00130458      -1.35700913       0.82484793
14
Frame=6 idx=004967 GeodesicLength=0.4801504960966021 rxn_smarts="[C:1]([C:2]([C:3]([H:10])([H:11])[H:12])([O:4][H:13])[C:5](=[O:6])[H:14])([H:7])([H:8])[H:9]>>[C:1]([C:2](=[O:4])[C@:5]([C:3]([H:10])([H:11])[H:12])([O:6][H:13])[H:14])([H:7])([H:8])[H:9]"
C       -0.95930167       1.35726639      -0.11678794
C       -0.18478217       0.16869912      -0.55697928
C        1.08000566      -0.29945704       0.90896121
O        0.27816866       0.11503364      -1.77245860
C       -0.28124498      -1.17563596       0.01644887
O        0.07737561      -2.09091135      -0.80869418
H       -0.39568767       2.26394420      -0.33900240
H       -1.90894729       1.36681399      -0.65460965
H       -1.19278291       1.36572000       0.94727884
H        1.52537632      -1.22639182       1.26587610
H        0.71447631       0.27460911       1.75901576
H        1.88194660       0.23222938       0.39840102
H        0.38194937      -1.00099136      -1.85851982
H       -1.01655185      -1.35092829       0.81107006
14
Frame=7 idx=004967 GeodesicLength=0.5601326909892699 rxn_smarts="[C:1]([C:2]([C:3]([H:10])([H:11])[H:12])([O:4][H:13])[C:5](=[O:6])[H:14])([H:7])([H:8])[H:9]>>[C:1]([C:2](=[O:4])[C@:5]([C:3]([H:10])([H:11])[H:12])([O:6][H:13])[H:14])([H:7])([H:8])[H:9]"
C       -0.95610594       1.35795153      -0.11914347
C       -0.16376587       0.17763895      -0.55405473
C        1.08070591      -0.30117535       0.91257721
O        0.28995416       0.11896267      -1.77332273
C       -0.28378195      -1.17294854       0.01333059
O        0.06003208      -2.08591145      -0.82334764
H       -0.42010938       2.27088939      -0.38006266
H       -1.92346447       1.33037880      -0.62361170
H       -1.15744292       1.39396251       0.95107487
H        1.53751809      -1.22766244       1.25694650
H        0.70316519       0.25018586       1.77268720
H        1.88773319       0.24932785       0.43018487
H        0.37721688      -1.01701688      -1.86028595
H       -1.03165497      -1.34458290       0.79702764
14
Frame=8 idx=004967 GeodesicLength=0.6401294072528603 rxn_smarts="[C:1]([C:2]([C:3]([H:10])([H:11])[H:12])([O:4][H:13])[C:5](=[O:6])[H:14])([H:7])([H:8])[H:9]>>[C:1]([C:2](=[O:4])[C@:5]([C:3]([H:10])([H:11])[H:12])([O:6][H:13])[H:14])([H:7])([H:8])[H:9]"
C       -0.95266792       1.35841735      -0.12144974
C       -0.14304213       0.18622225      -0.55119549
C        1.08130711      -0.30270981       0.91613143
O        0.30184595       0.12319036      -1.77405029
C       -0.28628677      -1.17030661       0.01009603
O        0.04259345      -2.08080023      -0.83789588
H       -0.44586223       2.27587926      -0.42126989
H       -1.93586046       1.29444815      -0.59051797
H       -1.12146260       1.42303636       0.95315950
H        1.54988779      -1.22830693       1.24784766
H        0.69140181       0.22520079       1.78573024
H        1.89246909       0.26676705       0.46297750
H        0.37224218      -1.03298485      -1.86229279
H       -1.04656526      -1.33805315       0.78272970
14
Frame=9 idx=004967 GeodesicLength=0.7200871931538942 rxn_smarts="[C:1]([C:2]([C:3]([H:10])([H:11])[H:12])([O:4][H:13])[C:5](=[O:6])[H:14])([H:7])([H:8])[H:9]>>[C:1]([C:2](=[O:4])[C@:5]([C:3]([H:10])([H:11])[H:12])([O:6][H:13])[H:14])([H:7])([H:8])[H:9]"
C       -0.94901827       1.35865551      -0.12364665
C       -0.12264480       0.19445483      -0.54838137
C        1.08180945      -0.30404542       0.91963684
O        0.31383200       0.12771666      -1.77461029
C       -0.28875257      -1.16772863       0.00676019
O        0.02510868      -2.07558222      -0.85234528
H       -0.47301758       2.27889233      -0.46253367
H       -1.94610426       1.25935584      -0.55563056
H       -1.08482773       1.45271607       0.95362313
H        1.56248135      -1.22827681       1.23863928
H        0.67923064       0.19972953       1.79810407
H        1.89613220       0.28440074       0.49670873
H        0.36702075      -1.04889021      -1.86455035
H       -1.06124987      -1.33139822       0.76822594
14
Frame=10 idx=004967 GeodesicLength=0.800073517337059 rxn_smarts="[C:1]([C:2]([C:3]([H:10])([H:11])[H:12])([O:4][H:13])[C:5](=[O:6])[H:14])([H:7])([H:8])[H:9]>>[C:1]([C:2](=[O:4])[C@:5]([C:3]([H:10])([H:11])[H:12])([O:6][H:13])[H:14])([H:7])([H:8])[H:9]"
C       -0.94514362       1.35870603      -0.12575509
C       -0.10259942       0.20231665      -0.54565214
C        1.08218526      -0.30514953       0.92306857
O        0.32587646       0.13253340      -1.77506839
C       -0.29116338      -1.16524809       0.00328827
O        0.00762394      -2.07028314      -0.86670915
H       -0.50135923       2.27978169      -0.50349755
H       -1.95420699       1.22522301      -0.51880324
H       -1.04771645       1.48301171       0.95227874
H        1.57521612      -1.22750785       1.22942747
H        0.66668728       0.17392275       1.80968854
H        1.89864776       0.30216179       0.53132420
H        0.36161594      -1.06479285      -1.86708131
H       -1.07566367      -1.32467557       0.75349109
14
Frame=11 idx=004967 GeodesicLength=0.8800799590273545 rxn_smarts="[C:1]([C:2]([C:3]([H:10])([H:11])[H:12])([O:4][H:13])[C:5](=[O:6])[H:14])([H:7])([H:8])[H:9]>>[C:1]([C:2](=[O:4])[C@:5]([C:3]([H:10])([H:11])[H:12])([O:6][H:13])[H:14])([H:7])([H:8])[H:9]"
C       -0.94104732       1.35858875      -0.12775345
C       -0.08293975       0.20980127      -0.54301998
C        1.08241030      -0.30599824       0.92642723
O        0.33794370       0.13763044      -1.77545394
C       -0.29351417      -1.16289352      -0.00033421
O       -0.00980660      -2.06491826      -0.88100402
H       -0.53084611       2.27848452      -0.54396411
H       -1.96009543       1.19226160      -0.48005703
H       -1.01018095       1.51381628       0.94904996
H        1.58805903      -1.22594591       1.22029020
H        0.65378893       0.14788185       1.82042398
H        1.89995101       0.31996256       0.56677209
H        0.35606058      -1.08072201      -1.86990771
H       -1.08978324      -1.31794934       0.73853100
14
Frame=12 idx=004967 GeodesicLength=0.960116540953649 rxn_smarts="[C:1]([C:2]([C:3]([H:10])([H:11])[H:12])([O:4][H:13])[C:5](=[O:6])[H:14])([H:7])([H:8])[H:9]>>[C:1]([C:2](=[O:4])[C@:5]([C:3]([H:10])([H:11])[H:12])([O:6][H:13])[H:14])([H:7])([H:8])[H:9]"
C       -0.93675189       1.35831379      -0.12961965
C       -0.06367312       0.21691633      -0.54049086
C        1.08247754      -0.30657614       0.92971144
O        0.35001657       0.14301130      -1.77578473
C       -0.29579795      -1.16067767      -0.00411780
O       -0.02715388      -2.05949734      -0.89524265
H       -0.56142114       2.27496523      -0.58371672
H       -1.96378943       1.16066132      -0.43950753
H       -0.97229785       1.54500700       0.94390928
H        1.60096266      -1.22356165       1.21131276
H        0.64059158       0.12171967       1.83025891
H        1.90002193       0.33768787       0.60296963
H        0.35039586      -1.09671037      -1.87303913
H       -1.10358090      -1.31125933       0.72335705
14
Frame=13 idx=004967 GeodesicLength=1.0401554263663646 rxn_smarts="[C:1]([C:2]([C:3]([H:10])([H:11])[H:12])([O:4][H:13])[C:5](=[O:6])[H:14])([H:7])([H:8])[H:9]>>[C:1]([C:2](=[O:4])[C@:5]([C:3]([H:10])([H:11])[H:12])([O:6][H:13])[H:14])([H:7])([H:8])[H:9]"
C       -0.93229210       1.35787904      -0.13131388
C       -0.04478861       0.22369480      -0.53804534
C        1.08239758      -0.30688282       0.93293296
O        0.36208892       0.14870202      -1.77604024
C       -0.29801515      -1.15858975      -0.00805686
O       -0.04441415      -2.05400717      -0.90944049
H       -0.59310236       2.26926149      -0.62264833
H       -1.96534131       1.13055570      -0.39743748
H       -0.93411335       1.57640558       0.93695330
H        1.61388328      -1.22035894       1.20258242
H        0.62717613       0.09554075       1.83918949
H        1.89891297       0.35516916       0.63979792
H        0.34464753      -1.11275445      -1.87647659
H       -1.11703937      -1.30461542       0.70800311
14
Frame=14 idx=004967 GeodesicLength=1.120236398648356 rxn_smarts="[C:1]([C:2]([C:3]([H:10])([H:11])[H:12])([O:4][H:13])[C:5](=[O:6])[H:14])([H:7])([H:8])[H:9]>>[C:1]([C:2](=[O:4])[C@:5]([C:3]([H:10])([H:11])[H:12])([O:6][H:13])[H:14])([H:7])([H:8])[H:9]"
C       -0.92766658       1.35731295      -0.13285448
C       -0.02629258       0.23012960      -0.53571964
C        1.08214359      -0.30689765       0.93607716
O        0.37411963       0.15469880      -1.77629228
C       -0.30016122      -1.15664991      -0.01218722
O       -0.06155686      -2.04847036      -0.92361508
H       -0.62572534       2.26130893      -0.66047325
H       -1.96470278       1.10204089      -0.35371170
H       -0.89577987       1.60800179       0.92802493
H        1.62676456      -1.21630813       1.19417682
H        0.61356310       0.06944592       1.84715982
H        1.89655018       0.37236685       0.67720857
H        0.33888663      -1.12891940      -1.88024036
H       -1.13014247      -1.29806027       0.69244671
14
Frame=15 idx=004967 GeodesicLength=1.2003618950350914 rxn_smarts="[C:1]([C:2]([C:3]([H:10])([H:11])[H:12])([O:4][H:13])[C:5](=[O:6])[H:14])([H:7])([H:8])[H:9]>>[C:1]([C:2](=[O:4])[C@:5]([C:3]([H:10])([H:11])[H:12])([O:6][H:13])[H:14])([H:7])([H:8])[H:9]"
C       -0.92289695       1.35662447      -0.13422073
C       -0.00817416       0.23624357      -0.53351384
C        1.08170797      -0.30661799       0.93914839
O        0.38609258       0.16101894      -1.77655487
C       -0.30224064      -1.15485311      -0.01652240
O       -0.07858338      -2.04288121      -0.93778753
H       -0.65923517       2.25111315      -0.69706650
H       -1.96189906       1.07518606      -0.30841475
H       -0.85734499       1.63972258       0.91711772
H        1.63957280      -1.21141206       1.18614849
H        0.59978694       0.04349130       1.85417607
H        1.89292808       0.38920408       0.71512775
H        0.33317244      -1.14523303      -1.88433002
H       -1.14288648      -1.29160676       0.67669225
14
Frame=16 idx=004967 GeodesicLength=1.2805172185704472 rxn_smarts="[C:1]([C:2]([C:3]([H:10])([H:11])[H:12])([O:4][H:13])[C:5](=[O:6])[H:14])([H:7])([H:8])[H:9]>>[C:1]([C:2](=[O:4])[C@:5]([C:3]([H:10])([H:11])[H:12])([O:6][H:13])[H:14])([H:7])([H:8])[H:9]"
C       -0.91801639       1.35581752      -0.13540917
C        0.00958744       0.24206584      -0.53142656
C        1.08109721      -0.30603634       0.94214687
O        0.39798565       0.16768123      -1.77683989
C       -0.30425640      -1.15318193      -0.02106438
O       -0.09551188      -2.03722837      -0.95196768
H       -0.69353830       2.23872119      -0.73224084
H       -1.95695068       1.05004532      -0.26173167
H       -0.81895812       1.67143102       0.90426728
H        1.65226375      -1.20568335       1.17856480
H        0.58591842       0.01776974       1.86024357
H        1.88808941       0.40556991       0.75343039
H        0.32755098      -1.16172713      -1.88873695
H       -1.15526110      -1.28524464       0.66076423
