10
Frame=0 idx=011278 GeodesicLength=0.0 rxn_smarts="[O:1]=[C:2]([c:3]1[n:4][c:5]([H:9])[c:6]([H:10])[o:7]1)[H:8]>>[O:1]=[C:2]([O:7]/[C:6](=[C:5](\[N+:4]#[C-:3])[H:9])[H:10])[H:8]"
O        1.73156022       1.32823706      -0.53095363
C        1.65042484       0.26592202      -0.03196510
C        0.73850575      -0.95444567      -0.91709152
N       -0.40505033      -0.81833728      -1.17790512
C       -1.42235781      -0.27987697      -0.42758593
C       -0.93878885       0.17887114       0.76417504
O        0.29475513       0.04621273       1.11263970
H        2.36897396      -0.28947535       0.56850933
H       -2.41982817      -0.17709958      -0.81603825
H       -1.59819474       0.69999191       1.45621549
10
Frame=1 idx=011278 GeodesicLength=0.07578512595806186 rxn_smarts="[O:1]=[C:2]([c:3]1[n:4][c:5]([H:9])[c:6]([H:10])[o:7]1)[H:8]>>[O:1]=[C:2]([O:7]/[C:6](=[C:5](\[N+:4]#[C-:3])[H:9])[H:10])[H:8]"
O        1.78472289       1.34167249      -0.50300481
C        1.66993943       0.27246875      -0.02383490
C        0.73387518      -0.92049550      -0.93830053
N       -0.42360624      -0.84874538      -1.16436042
C       -1.43350753      -0.27664877      -0.43054506
C       -0.95185579       0.18549539       0.75832001
O        0.29195552       0.07289949       1.08572347
H        2.37573528      -0.31527940       0.56241306
H       -2.44011943      -0.21275742      -0.80354866
H       -1.60713929       0.70139036       1.45713785
10
Frame=2 idx=011278 GeodesicLength=0.15170664925537353 rxn_smarts="[O:1]=[C:2]([c:3]1[n:4][c:5]([H:9])[c:6]([H:10])[o:7]1)[H:8]>>[O:1]=[C:2]([O:7]/[C:6](=[C:5](\[N+:4]#[C-:3])[H:9])[H:10])[H:8]"
O        1.84380527       1.35438952      -0.47049701
C        1.69030008       0.27865967      -0.01532354
C        0.72709939      -0.87832702      -0.96511401
N       -0.44137057      -0.88206694      -1.14677189
C       -1.44536171      -0.27620402      -0.43294574
C       -0.96508516       0.19566292       0.75053637
O        0.28851866       0.10397899       1.05636286
H        2.37941920      -0.34536149       0.55471606
H       -2.46014796      -0.25371102      -0.78848104
H       -1.61717720       0.70297939       1.45751795
10
Frame=3 idx=011278 GeodesicLength=0.2280615060071467 rxn_smarts="[O:1]=[C:2]([c:3]1[n:4][c:5]([H:9])[c:6]([H:10])[o:7]1)[H:8]>>[O:1]=[C:2]([O:7]/[C:6](=[C:5](\[N+:4]#[C-:3])[H:9])[H:10])[H:8]"
O        1.91092319       1.36614262      -0.42873336
C        1.71151811       0.28385702      -0.00581539
C        0.71682622      -0.82291706      -1.00023538
N       -0.45658518      -0.91365122      -1.12797062
C       -1.45956261      -0.28756432      -0.43035742
C       -0.97853751       0.20999519       0.74018081
O        0.28420669       0.13900412       1.02415849
H        2.37839434      -0.38258141       0.54404780
H       -2.48051237      -0.30464228      -0.76850326
H       -1.62667089       0.71235735       1.45322833
10
Frame=4 idx=011278 GeodesicLength=0.30482339711334816 rxn_smarts="[O:1]=[C:2]([c:3]1[n:4][c:5]([H:9])[c:6]([H:10])[o:7]1)[H:8]>>[O:1]=[C:2]([O:7]/[C:6](=[C:5](\[N+:4]#[C-:3])[H:9])[H:10])[H:8]"
O        1.98943605       1.37394707      -0.37590681
C        1.73388022       0.28684866       0.00490379
C        0.70156816      -0.75007910      -1.04441626
N       -0.46703245      -0.93906096      -1.11057716
C       -1.47564084      -0.31195312      -0.42141228
C       -0.99265891       0.23040458       0.72623819
O        0.27869215       0.18142204       0.98817878
H        2.37007453      -0.42952318       0.52957591
H       -2.50141574      -0.37268726      -0.73983519
H       -1.63690317       0.73068129       1.44325103
10
Frame=5 idx=011278 GeodesicLength=0.38066452059801437 rxn_smarts="[O:1]=[C:2]([c:3]1[n:4][c:5]([H:9])[c:6]([H:10])[o:7]1)[H:8]>>[O:1]=[C:2]([O:7]/[C:6](=[C:5](\[N+:4]#[C-:3])[H:9])[H:10])[H:8]"
O        2.08059737       1.37207241      -0.31770446
C        1.75657545       0.28661000       0.01563395
C        0.68059674      -0.66183714      -1.09311846
N       -0.47071345      -0.95430553      -1.09650641
C       -1.49103000      -0.34866443      -0.40472863
C       -1.00804791       0.25886659       0.70769327
O        0.27155853       0.23960199       0.94622540
H        2.35071426      -0.48458353       0.51306584
H       -2.51911230      -0.45511924      -0.70324082
H       -1.65113868       0.74735889       1.43268034
10
Frame=6 idx=011278 GeodesicLength=0.45487096875472643 rxn_smarts="[O:1]=[C:2]([c:3]1[n:4][c:5]([H:9])[c:6]([H:10])[o:7]1)[H:8]>>[O:1]=[C:2]([O:7]/[C:6](=[C:5](\[N+:4]#[C-:3])[H:9])[H:10])[H:8]"
O        2.17927635       1.35738187      -0.25866250
C        1.77731149       0.28301838       0.02559069
C        0.65475955      -0.56347886      -1.14178477
N       -0.46766781      -0.95732112      -1.08881508
C       -1.50169179      -0.39490329      -0.38027700
C       -1.02520770       0.28775544       0.68858381
O        0.26255584       0.31590912       0.89701452
H        2.31819972      -0.54333412       0.49644775
H       -2.52932870      -0.54589920      -0.66085813
H       -1.66820695       0.76087179       1.42276072
10
Frame=7 idx=011278 GeodesicLength=0.5274140623212182 rxn_smarts="[O:1]=[C:2]([c:3]1[n:4][c:5]([H:9])[c:6]([H:10])[o:7]1)[H:8]>>[O:1]=[C:2]([O:7]/[C:6](=[C:5](\[N+:4]#[C-:3])[H:9])[H:10])[H:8]"
O        2.27827562       1.32889968      -0.20343020
C        1.79326304       0.27673769       0.03471345
C        0.62630439      -0.46329897      -1.18681919
N       -0.45977495      -0.94934834      -1.08812912
C       -1.50399248      -0.44393673      -0.35131439
C       -1.04260136       0.31113261       0.67271088
O        0.25124168       0.40980596       0.83862816
H        2.27181834      -0.60021860       0.48299398
H       -2.52895449      -0.63766732      -0.61562970
H       -1.68557980       0.76789401       1.41627613
10
Frame=8 idx=011278 GeodesicLength=0.5987820963651487 rxn_smarts="[O:1]=[C:2]([c:3]1[n:4][c:5]([H:9])[c:6]([H:10])[o:7]1)[H:8]>>[O:1]=[C:2]([O:7]/[C:6](=[C:5](\[N+:4]#[C-:3])[H:9])[H:10])[H:8]"
O        2.36538637       1.29226254      -0.14708373
C        1.80194118       0.26893671       0.04412733
C        0.59657468      -0.36552187      -1.22775192
N       -0.45023657      -0.93200477      -1.09594239
C       -1.49666660      -0.49325502      -0.31954987
C       -1.05552252       0.31811388       0.66781293
O        0.23856375       0.50495297       0.77643088
H        2.21792662      -0.65230758       0.46746521
H       -2.51763844      -0.72729947      -0.56715000
H       -1.70032848       0.78612261       1.40164156
10
Frame=9 idx=011278 GeodesicLength=0.6703583402100346 rxn_smarts="[O:1]=[C:2]([c:3]1[n:4][c:5]([H:9])[c:6]([H:10])[o:7]1)[H:8]>>[O:1]=[C:2]([O:7]/[C:6](=[C:5](\[N+:4]#[C-:3])[H:9])[H:10])[H:8]"
O        2.43807915       1.25048225      -0.09959613
C        1.80340087       0.26203823       0.05406586
C        0.57061743      -0.28752922      -1.26165213
N       -0.44112221      -0.91597148      -1.10478533
C       -1.48295244      -0.53126518      -0.29317140
C       -1.06327024       0.32651390       0.66213738
O        0.22309381       0.60402275       0.70508806
H        2.15921312      -0.69236951       0.46083559
H       -2.49940482      -0.80024171      -0.52464484
H       -1.70765466       0.78431998       1.40172296
10
Frame=10 idx=011278 GeodesicLength=0.7430266405471115 rxn_smarts="[O:1]=[C:2]([c:3]1[n:4][c:5]([H:9])[c:6]([H:10])[o:7]1)[H:8]>>[O:1]=[C:2]([O:7]/[C:6](=[C:5](\[N+:4]#[C-:3])[H:9])[H:10])[H:8]"
O        2.49194934       1.21162585      -0.04993006
C        1.79930033       0.25628285       0.06494185
C        0.54602104      -0.22119840      -1.29163221
N       -0.43399755      -0.90035375      -1.11597514
C       -1.46520414      -0.56372824      -0.26885891
C       -1.06369641       0.32552926       0.66369888
O        0.20761627       0.68734297       0.63680011
H        2.10549374      -0.72516557       0.44981419
H       -2.47718137      -0.86279242      -0.48351158
H       -1.71030125       0.79245745       1.39465285
10
Frame=11 idx=011278 GeodesicLength=0.8166117767932137 rxn_smarts="[O:1]=[C:2]([c:3]1[n:4][c:5]([H:9])[c:6]([H:10])[o:7]1)[H:8]>>[O:1]=[C:2]([O:7]/[C:6](=[C:5](\[N+:4]#[C-:3])[H:9])[H:10])[H:8]"
O        2.53092388       1.17690648      -0.00098733
C        1.79162629       0.25212713       0.07645160
C        0.52354319      -0.16875844      -1.31811593
N       -0.42807053      -0.88947931      -1.12544950
C       -1.44617638      -0.58945193      -0.24782079
C       -1.06019657       0.32624103       0.66414665
O        0.19215194       0.75820046       0.57032845
H        2.05772489      -0.75087028       0.43786573
H       -2.45415618      -0.91245517      -0.44728540
H       -1.70737052       0.79754003       1.39086651
10
Frame=12 idx=011278 GeodesicLength=0.8907385054734751 rxn_smarts="[O:1]=[C:2]([c:3]1[n:4][c:5]([H:9])[c:6]([H:10])[o:7]1)[H:8]>>[O:1]=[C:2]([O:7]/[C:6](=[C:5](\[N+:4]#[C-:3])[H:9])[H:10])[H:8]"
O        2.55832303       1.14626893       0.05137453
C        1.78251786       0.24809530       0.08779674
C        0.50053991      -0.12156986      -1.34228494
N       -0.42330107      -0.87998872      -1.13429549
C       -1.42591812      -0.61231429      -0.22729812
C       -1.05416805       0.32628467       0.66589644
O        0.17846224       0.81379991       0.51176978
H        2.01810128      -0.77421836       0.41829566
H       -2.42980601      -0.95750186      -0.41092361
H       -1.70475105       0.81114429       1.37966901
10
Frame=13 idx=011278 GeodesicLength=0.965312064400974 rxn_smarts="[O:1]=[C:2]([c:3]1[n:4][c:5]([H:9])[c:6]([H:10])[o:7]1)[H:8]>>[O:1]=[C:2]([O:7]/[C:6](=[C:5](\[N+:4]#[C-:3])[H:9])[H:10])[H:8]"
O        2.57792225       1.11777192       0.10564827
C        1.77254939       0.24404126       0.09907057
C        0.47737048      -0.07907111      -1.36485041
N       -0.41939147      -0.87172403      -1.14241961
C       -1.40493790      -0.63211145      -0.20765920
C       -1.04730808       0.32841322       0.66669805
O        0.16618335       0.85998657       0.45807656
H        1.98404595      -0.79546956       0.39413680
H       -2.40422113      -0.99925939      -0.37451257
H       -1.70221285       0.82742258       1.36581154
10
Frame=14 idx=011278 GeodesicLength=1.0401511185021097 rxn_smarts="[O:1]=[C:2]([c:3]1[n:4][c:5]([H:9])[c:6]([H:10])[o:7]1)[H:8]>>[O:1]=[C:2]([O:7]/[C:6](=[C:5](\[N+:4]#[C-:3])[H:9])[H:10])[H:8]"
O        2.59129447       1.09077746       0.16162454
C        1.76215908       0.23982827       0.11000749
C        0.45369126      -0.04034056      -1.38614978
N       -0.41603656      -0.86478308      -1.14950855
C       -1.38355773      -0.64931815      -0.18874561
C       -1.04007731       0.33208733       0.66683918
O        0.15526515       0.89903881       0.40837765
H        1.95496971      -0.81481155       0.36602017
H       -2.37769335      -1.03796506      -0.33829069
H       -1.70001471       0.84548653       1.34982560
10
Frame=15 idx=011278 GeodesicLength=1.1151532154206942 rxn_smarts="[O:1]=[C:2]([c:3]1[n:4][c:5]([H:9])[c:6]([H:10])[o:7]1)[H:8]>>[O:1]=[C:2]([O:7]/[C:6](=[C:5](\[N+:4]#[C-:3])[H:9])[H:10])[H:8]"
O        2.59956581       1.06478038       0.21878459
C        1.75148389       0.23558666       0.12068962
C        0.42960410      -0.00529773      -1.40653189
N       -0.41303779      -0.85934600      -1.15550752
C       -1.36209536      -0.66413476      -0.17064028
C       -1.03266546       0.33707531       0.66627670
O        0.14544692       0.93291977       0.36130050
H        1.93003804      -0.83201568       0.33517497
H       -2.35066682      -1.07337036      -0.30276415
H       -1.69767332       0.86380241       1.33321746
10
Frame=16 idx=011278 GeodesicLength=1.1901907263821414 rxn_smarts="[O:1]=[C:2]([c:3]1[n:4][c:5]([H:9])[c:6]([H:10])[o:7]1)[H:8]>>[O:1]=[C:2]([O:7]/[C:6](=[C:5](\[N+:4]#[C-:3])[H:9])[H:10])[H:8]"
O        2.60332772       1.03959098       0.27706541
C        1.74071486       0.23139024       0.13100357
C        0.40498084       0.02625681      -1.42623923
N       -0.41018506      -0.85561451      -1.16027999
C       -1.34082253      -0.67686329      -0.15329314
C       -1.02509381       0.34292882       0.66521765
O        0.13661671       0.96256426       0.31620814
H        1.90904837      -0.84693423       0.30210376
H       -2.32364333      -1.10523882      -0.26831694
H       -1.69494377       0.88191973       1.31653079
