13
Frame=0 idx=008809 GeodesicLength=0.0 rxn_smarts="[N:1]([c:2]1[c:3]([O:4][H:10])[n:5]([H:11])[c:6]([H:12])[c:7]1[H:13])([H:8])[H:9]>>[N:1]([C:2]1=[C:7]([H:13])[C:6]([H:11])([H:12])[N:5]=[C:3]1[O:4][H:10])([H:8])[H:9]"
N       -1.83435135       0.58857144      -0.13143020
C       -0.45865936       0.27578843       0.03313187
C       -0.03218737      -1.04773614       0.15055105
O       -0.82343126      -2.13178497       0.08413456
N        1.28891911      -1.16454669       0.28703852
C        1.77115621       0.20451405       0.14319058
C        0.68446357       1.06741687       0.01568717
H       -1.98624771       1.31382290      -0.81645924
H       -2.26842956       0.87211447       0.73627269
H       -1.70585659      -1.80535939      -0.13542378
H        1.84878399      -0.73338423      -0.74400405
H        2.78293259       0.41771210       0.45031962
H        0.73290770       2.14287121      -0.07300880
13
Frame=1 idx=008809 GeodesicLength=0.03902553300263348 rxn_smarts="[N:1]([c:2]1[c:3]([O:4][H:10])[n:5]([H:11])[c:6]([H:12])[c:7]1[H:13])([H:8])[H:9]>>[N:1]([C:2]1=[C:7]([H:13])[C:6]([H:11])([H:12])[N:5]=[C:3]1[O:4][H:10])([H:8])[H:9]"
N       -1.83607163       0.59094778      -0.12879013
C       -0.45971894       0.27833580       0.02501298
C       -0.03324095      -1.04644990       0.14640984
O       -0.82364440      -2.13102903       0.08058274
N        1.28613909      -1.16056109       0.28696412
C        1.77149522       0.20358194       0.13814232
C        0.68413271       1.06781446       0.00330502
H       -1.99367173       1.32047400      -0.80791074
H       -2.26605766       0.86577068       0.74370041
H       -1.70808236      -1.80549760      -0.13162753
H        1.87013229      -0.74813782      -0.74518713
H        2.77528338       0.42101894       0.46847475
H        0.73330498       2.14373184      -0.07907665
13
Frame=2 idx=008809 GeodesicLength=0.07806049916689425 rxn_smarts="[N:1]([c:2]1[c:3]([O:4][H:10])[n:5]([H:11])[c:6]([H:12])[c:7]1[H:13])([H:8])[H:9]>>[N:1]([C:2]1=[C:7]([H:13])[C:6]([H:11])([H:12])[N:5]=[C:3]1[O:4][H:10])([H:8])[H:9]"
N       -1.83777963       0.59339269      -0.12584395
C       -0.46082760       0.28088499       0.01688062
C       -0.03433097      -1.04516939       0.14209023
O       -0.82382898      -2.13028992       0.07626708
N        1.28330257      -1.15655308       0.28677406
C        1.77180862       0.20266825       0.13315645
C        0.68377508       1.06815890      -0.00933124
H       -2.00113899       1.32715787      -0.79895580
H       -2.26340968       0.85950112       0.75142957
H       -1.71036857      -1.80557496      -0.12779945
H        1.89210632      -0.76321178      -0.74540267
H        2.76699924       0.42455880       0.48657158
H        0.73369257       2.14447652      -0.08583648
13
Frame=3 idx=008809 GeodesicLength=0.11709441068457482 rxn_smarts="[N:1]([c:2]1[c:3]([O:4][H:10])[n:5]([H:11])[c:6]([H:12])[c:7]1[H:13])([H:8])[H:9]>>[N:1]([C:2]1=[C:7]([H:13])[C:6]([H:11])([H:12])[N:5]=[C:3]1[O:4][H:10])([H:8])[H:9]"
N       -1.83947147       0.59590790      -0.12257745
C       -0.46198912       0.28344164       0.00875736
C       -0.03545935      -1.04388968       0.13761184
O       -0.82398483      -2.12956097       0.07114469
N        1.28040610      -1.15252472       0.28646934
C        1.77208752       0.20176602       0.12823316
C        0.68338503       1.06844467      -0.02220920
H       -2.00863934       1.33387887      -0.78957149
H       -2.26048663       0.85330147       0.75946766
H       -1.71269796      -1.80559330      -0.12397260
H        1.91470093      -0.77860867      -0.74457725
H        2.75808051       0.42833511       0.50455725
H        0.73406863       2.14510166      -0.09333332
13
Frame=4 idx=008809 GeodesicLength=0.15612957777848058 rxn_smarts="[N:1]([c:2]1[c:3]([O:4][H:10])[n:5]([H:11])[c:6]([H:12])[c:7]1[H:13])([H:8])[H:9]>>[N:1]([C:2]1=[C:7]([H:13])[C:6]([H:11])([H:12])[N:5]=[C:3]1[O:4][H:10])([H:8])[H:9]"
N       -1.84111941       0.59846894      -0.11914716
C       -0.46321193       0.28601708       0.00091297
C       -0.03662886      -1.04260647       0.13318465
O       -0.82412926      -2.12882789       0.06547035
N        1.27748993      -1.14850675       0.28588678
C        1.77235168       0.20087090       0.12330301
C        0.68294951       1.06869843      -0.03494248
H       -2.01597532       1.34056421      -0.78001351
H       -2.25751130       0.84718865       0.76752732
H       -1.71502857      -1.80557565      -0.12012530
H        1.93771400      -0.79419847      -0.74291431
H        2.74867378       0.43226623       0.52206846
H        0.73442576       2.14564078      -0.10121078
13
Frame=5 idx=008809 GeodesicLength=0.1951832253778895 rxn_smarts="[N:1]([c:2]1[c:3]([O:4][H:10])[n:5]([H:11])[c:6]([H:12])[c:7]1[H:13])([H:8])[H:9]>>[N:1]([C:2]1=[C:7]([H:13])[C:6]([H:11])([H:12])[N:5]=[C:3]1[O:4][H:10])([H:8])[H:9]"
N       -1.84270975       0.60105083      -0.11571870
C       -0.46449986       0.28862839      -0.00641333
C       -0.03783986      -1.04130102       0.12905395
O       -0.82428444      -2.12806949       0.05957810
N        1.27460181      -1.14451921       0.28489837
C        1.77262825       0.19997472       0.11825969
C        0.68245687       1.06895068      -0.04721165
H       -2.02298605       1.34713083      -0.77055712
H       -2.25471184       0.84118820       0.77532174
H       -1.71730373      -1.80553964      -0.11630491
H        1.96094924      -0.80989565      -0.74064081
H        2.73895775       0.43626394       0.53872256
H        0.73474162       2.14613741      -0.10898789
13
Frame=6 idx=008809 GeodesicLength=0.23405610756393833 rxn_smarts="[N:1]([c:2]1[c:3]([O:4][H:10])[n:5]([H:11])[c:6]([H:12])[c:7]1[H:13])([H:8])[H:9]>>[N:1]([C:2]1=[C:7]([H:13])[C:6]([H:11])([H:12])[N:5]=[C:3]1[O:4][H:10])([H:8])[H:9]"
N       -1.84422035       0.60362423      -0.11245493
C       -0.46584477       0.29130475      -0.01292284
C       -0.03908561      -1.03994073       0.12558092
O       -0.82445342      -2.12724718       0.05399974
N        1.27178712      -1.14058204       0.28338132
C        1.77291193       0.19906179       0.11293940
C        0.68189240       1.06924801      -0.05867413
H       -2.02949732       1.35348828      -0.76148956
H       -2.25234526       0.83531333       0.78255467
H       -1.71938654      -1.80551563      -0.11283710
H        1.98407297      -0.82563379      -0.73799532
H        2.72914539       0.44023108       0.55407871
H        0.73502346       2.14664790      -0.11616091
13
Frame=7 idx=008809 GeodesicLength=0.2730095104146076 rxn_smarts="[N:1]([c:2]1[c:3]([O:4][H:10])[n:5]([H:11])[c:6]([H:12])[c:7]1[H:13])([H:8])[H:9]>>[N:1]([C:2]1=[C:7]([H:13])[C:6]([H:11])([H:12])[N:5]=[C:3]1[O:4][H:10])([H:8])[H:9]"
N       -1.84571596       0.60623653      -0.10905700
C       -0.46725828       0.29401443      -0.01906697
C       -0.04037962      -1.03856981       0.12220739
O       -0.82460313      -2.12640299       0.04778475
N        1.26897941      -1.13668171       0.28151436
C        1.77319728       0.19815182       0.10762230
C        0.68126002       1.06953912      -0.06983565
H       -2.03585112       1.35979722      -0.75231704
H       -2.25004357       0.82952834       0.78975873
H       -1.72148724      -1.80546334      -0.10923458
H        2.00762921      -0.84150102      -0.73451216
H        2.71899635       0.44425165       0.56887670
H        0.73527663       2.14709975      -0.12374081
13
Frame=8 idx=008809 GeodesicLength=0.31193589616609274 rxn_smarts="[N:1]([c:2]1[c:3]([O:4][H:10])[n:5]([H:11])[c:6]([H:12])[c:7]1[H:13])([H:8])[H:9]>>[N:1]([C:2]1=[C:7]([H:13])[C:6]([H:11])([H:12])[N:5]=[C:3]1[O:4][H:10])([H:8])[H:9]"
N       -1.84717582       0.60884801      -0.10579226
C       -0.46873167       0.29678529      -0.02452890
C       -0.04171469      -1.03715365       0.11934143
O       -0.82476809      -2.12551197       0.04164173
N        1.26624446      -1.13284261       0.27912255
C        1.77350091       0.19723816       0.10208735
C        0.68055028       1.06988178      -0.08030500
H       -2.04182782       1.36593087      -0.74348102
H       -2.24813634       0.82386440       0.79650232
H       -1.72348869      -1.80541621      -0.10572497
H        2.03126141      -0.85741126      -0.73056207
H        2.70880498       0.44820815       0.58253349
H        0.73548109       2.14757903      -0.13083467
13
Frame=9 idx=008809 GeodesicLength=0.35076115630372506 rxn_smarts="[N:1]([c:2]1[c:3]([O:4][H:10])[n:5]([H:11])[c:6]([H:12])[c:7]1[H:13])([H:8])[H:9]>>[N:1]([C:2]1=[C:7]([H:13])[C:6]([H:11])([H:12])[N:5]=[C:3]1[O:4][H:10])([H:8])[H:9]"
N       -1.84859075       0.61141869      -0.10289653
C       -0.47025837       0.29964515      -0.02895034
C       -0.04308030      -1.03564950       0.11742976
O       -0.82496988      -2.12450805       0.03634229
N        1.26366900      -1.12907339       0.27603119
C        1.77388027       0.19628148       0.09609259
C        0.67975191       1.07033018      -0.08968349
H       -2.04723102       1.37176181      -0.73539131
H       -2.24698187       0.81834657       0.80238035
H       -1.72525864      -1.80538744      -0.10267380
H        2.05462307      -0.87332199      -0.72657054
H        2.69884491       0.45198535       0.59455534
H        0.73560165       2.14817114      -0.13666552
13
Frame=10 idx=008809 GeodesicLength=0.38953717665011844 rxn_smarts="[N:1]([c:2]1[c:3]([O:4][H:10])[n:5]([H:11])[c:6]([H:12])[c:7]1[H:13])([H:8])[H:9]>>[N:1]([C:2]1=[C:7]([H:13])[C:6]([H:11])([H:12])[N:5]=[C:3]1[O:4][H:10])([H:8])[H:9]"
N       -1.85000744       0.61399753      -0.10007289
C       -0.47184367       0.30256388      -0.03282165
C       -0.04448707      -1.03410667       0.11588185
O       -0.82517538      -2.12345447       0.03093739
N        1.26115624      -1.12538241       0.27241163
C        1.77426050       0.19534182       0.08993360
C        0.67886647       1.07083960      -0.09848410
H       -2.05239154       1.37744912      -0.72755447
H       -2.24615815       0.81294388       0.80793299
H       -1.72698995      -1.80535965      -0.09958745
H        2.07820846      -0.88925720      -0.72198015
H        2.68888611       0.45564316       0.60561900
H        0.73567543       2.14878140      -0.14221576
13
Frame=11 idx=008809 GeodesicLength=0.42828376815131636 rxn_smarts="[N:1]([c:2]1[c:3]([O:4][H:10])[n:5]([H:11])[c:6]([H:12])[c:7]1[H:13])([H:8])[H:9]>>[N:1]([C:2]1=[C:7]([H:13])[C:6]([H:11])([H:12])[N:5]=[C:3]1[O:4][H:10])([H:8])[H:9]"
N       -1.85139839       0.61651559      -0.09769198
C       -0.47347067       0.30556849      -0.03565794
C       -0.04591802      -1.03246073       0.11534113
O       -0.82541583      -2.12228596       0.02656004
N        1.25880650      -1.12174492       0.26801667
C        1.77471785       0.19436432       0.08324958
C        0.67788524       1.07147884      -0.10617229
H       -2.05700931       1.38278053      -0.72060003
H       -2.24615268       0.80769795       0.81253603
H       -1.72851671      -1.80531721      -0.09691240
H        2.10152699      -0.90518603      -0.71747002
H        2.67929658       0.45905395       0.61500528
H        0.73564847       2.14953517      -0.14620407
13
Frame=12 idx=008809 GeodesicLength=0.4669960258951612 rxn_smarts="[N:1]([c:2]1[c:3]([O:4][H:10])[n:5]([H:11])[c:6]([H:12])[c:7]1[H:13])([H:8])[H:9]>>[N:1]([C:2]1=[C:7]([H:13])[C:6]([H:11])([H:12])[N:5]=[C:3]1[O:4][H:10])([H:8])[H:9]"
N       -1.85280364       0.61902319      -0.09552338
C       -0.47514750       0.30864988      -0.03779681
C       -0.04737637      -1.03075058       0.11541375
O       -0.82566955      -2.12104497       0.02261097
N        1.25655990      -1.11819115       0.26296659
C        1.77520395       0.19338356       0.07621959
C        0.67681027       1.07222212      -0.11313947
H       -2.06132843       1.38791565      -0.71413877
H       -2.24668422       0.80257330       0.81660743
H       -1.72994093      -1.80527724      -0.09443681
H        2.12492808      -0.92114952      -0.71260532
H        2.66990017       0.46226383       0.62320608
H        0.73554828       2.15038193      -0.14938385
13
Frame=13 idx=008809 GeodesicLength=0.5057009176619437 rxn_smarts="[N:1]([c:2]1[c:3]([O:4][H:10])[n:5]([H:11])[c:6]([H:12])[c:7]1[H:13])([H:8])[H:9]>>[N:1]([C:2]1=[C:7]([H:13])[C:6]([H:11])([H:12])[N:5]=[C:3]1[O:4][H:10])([H:8])[H:9]"
N       -1.85423942       0.62154495      -0.09334391
C       -0.47687544       0.31179431      -0.03946024
C       -0.04886991      -1.02898911       0.11584916
O       -0.82594307      -2.11973508       0.01873042
N        1.25435549      -1.11468710       0.25737148
C        1.77568838       0.19240434       0.06893596
C        0.67565133       1.07302437      -0.11976118
H       -2.06552816       1.39295162      -0.70780514
H       -2.24750523       0.79751141       0.82050040
H       -1.73130879      -1.80521019      -0.09224859
H        2.14865091      -0.93725195      -0.70699429
H        2.66052122       0.46537543       0.63058513
H        0.73540270       2.15126700      -0.15235922
13
Frame=14 idx=008809 GeodesicLength=0.5443998369699707 rxn_smarts="[N:1]([c:2]1[c:3]([O:4][H:10])[n:5]([H:11])[c:6]([H:12])[c:7]1[H:13])([H:8])[H:9]>>[N:1]([C:2]1=[C:7]([H:13])[C:6]([H:11])([H:12])[N:5]=[C:3]1[O:4][H:10])([H:8])[H:9]"
N       -1.85571737       0.62410830      -0.09094943
C       -0.47865541       0.31498256      -0.04091498
C       -0.05040185      -1.02720730       0.11627938
O       -0.82622987      -2.11835815       0.01433389
N        1.25214078      -1.11123320       0.25125658
C        1.77614248       0.19143636       0.06153070
C        0.67441845       1.07383831      -0.12640129
H       -2.06978009       1.39797766      -0.70126556
H       -2.24833644       0.79249358       0.82455418
H       -1.73271412      -1.80510935      -0.09006109
H        2.17297480      -0.95351936      -0.70021925
H        2.65092751       0.46845366       0.63759329
H        0.73523112       2.15213692      -0.15573642
13
Frame=15 idx=008809 GeodesicLength=0.5831066090401047 rxn_smarts="[N:1]([c:2]1[c:3]([O:4][H:10])[n:5]([H:11])[c:6]([H:12])[c:7]1[H:13])([H:8])[H:9]>>[N:1]([C:2]1=[C:7]([H:13])[C:6]([H:11])([H:12])[N:5]=[C:3]1[O:4][H:10])([H:8])[H:9]"
N       -1.85724097       0.62673733      -0.08818117
C       -0.48048905       0.31820522      -0.04232164
C       -0.05197930      -1.02542751       0.11649247
O       -0.82653554      -2.11692457       0.00902764
N        1.24987786      -1.10782687       0.24464796
C        1.77654685       0.19048176       0.05406460
C        0.67311612       1.07462644      -0.13334359
H       -2.07419221       1.40307088      -0.69425834
H       -2.24898584       0.78749898       0.82902077
H       -1.73420272      -1.80497274      -0.08778311
H        2.19808299      -0.96999649      -0.69191107
H        2.64095818       0.47157293       0.64448469
H        0.73504363       2.15295464      -0.15993921
13
Frame=16 idx=008809 GeodesicLength=0.6218012089015085 rxn_smarts="[N:1]([c:2]1[c:3]([O:4][H:10])[n:5]([H:11])[c:6]([H:12])[c:7]1[H:13])([H:8])[H:9]>>[N:1]([C:2]1=[C:7]([H:13])[C:6]([H:11])([H:12])[N:5]=[C:3]1[O:4][H:10])([H:8])[H:9]"
N       -1.85879715       0.62939140      -0.08531413
C       -0.48236852       0.32147989      -0.04339843
C       -0.05358612      -1.02361448       0.11688543
O       -0.82686926      -2.11540482       0.00353259
N        1.24763419      -1.10448284       0.23734284
C        1.77693687       0.18953257       0.04632002
C        0.67172892       1.07544843      -0.14018092
H       -2.07856990       1.40810329      -0.68723294
H       -2.24978069       0.78256152       0.83346475
H       -1.73568485      -1.80480651      -0.08558596
H        2.22366253      -0.98659441      -0.68248203
H        2.63089267       0.47459126       0.65074384
H        0.73480131       2.15379470      -0.16409505
