10
Frame=0 idx=000368 GeodesicLength=0.0 rxn_smarts="[N:1]([c:2]1[n:3][c:4]([H:9])[n:5][n:6]1[H:10])([H:7])[H:8]>>[N:1]([C:2]1=[N:3][C@:4]1(/[N:5]=[N:6]/[H:10])[H:9])([H:7])[H:8]"
N       -1.65263690      -0.55422703      -0.03129825
C       -0.39118334      -0.47789139      -0.37796583
N        0.53155093      -1.00354850      -1.00165192
C        1.33619908      -0.44927699       0.11590671
N        1.45439877       0.87069193       0.31026230
N        0.34179933       1.47592221       0.17075873
H       -2.04864226       0.21802798       0.47473578
H       -2.17337226      -1.41010718      -0.13014627
H        2.07138505      -1.12585643       0.52643260
H        0.53050161       2.45626539      -0.05703386
10
Frame=1 idx=000368 GeodesicLength=0.045195348197077594 rxn_smarts="[N:1]([c:2]1[n:3][c:4]([H:9])[n:5][n:6]1[H:10])([H:7])[H:8]>>[N:1]([C:2]1=[N:3][C@:4]1(/[N:5]=[N:6]/[H:10])[H:9])([H:7])[H:8]"
N       -1.65393782      -0.55037436      -0.02838197
C       -0.38845031      -0.46410640      -0.36845621
N        0.52956181      -1.00253104      -0.99453842
C        1.33595467      -0.45160944       0.11855385
N        1.46198608       0.87178738       0.30268376
N        0.34540782       1.46945703       0.14917292
H       -2.05002637       0.20216242       0.50619313
H       -2.17236850      -1.40278144      -0.16164340
H        2.06832961      -1.12732680       0.53540875
H        0.52354301       2.45532266      -0.05899241
10
Frame=2 idx=000368 GeodesicLength=0.09046969109505937 rxn_smarts="[N:1]([c:2]1[n:3][c:4]([H:9])[n:5][n:6]1[H:10])([H:7])[H:8]>>[N:1]([C:2]1=[N:3][C@:4]1(/[N:5]=[N:6]/[H:10])[H:9])([H:7])[H:8]"
N       -1.65511926      -0.54627811      -0.02541005
C       -0.38555848      -0.45103545      -0.35862257
N        0.52759725      -1.00214486      -0.98709840
C        1.33581013      -0.45393263       0.12112823
N        1.46962899       0.87286859       0.29414150
N        0.34906183       1.46271474       0.12748977
H       -2.05099707       0.18584530       0.53666141
H       -2.17152829      -1.39364998      -0.19284565
H        2.06561976      -1.12835960       0.54441414
H        0.51548514       2.45397201      -0.05985838
10
Frame=3 idx=000368 GeodesicLength=0.13572819973531486 rxn_smarts="[N:1]([c:2]1[n:3][c:4]([H:9])[n:5][n:6]1[H:10])([H:7])[H:8]>>[N:1]([C:2]1=[N:3][C@:4]1(/[N:5]=[N:6]/[H:10])[H:9])([H:7])[H:8]"
N       -1.65618152      -0.54198683      -0.02232660
C       -0.38251554      -0.43869705      -0.34852257
N        0.52564757      -1.00255589      -0.97928873
C        1.33579859      -0.45626026       0.12362186
N        1.47735915       0.87395451       0.28449257
N        0.35278409       1.45574235       0.10534798
H       -2.05159888       0.16918887       0.56608527
H       -2.17089703      -1.38276378      -0.22373109
H        2.06330060      -1.12893742       0.55354276
H        0.50630296       2.45231551      -0.05922146
10
Frame=4 idx=000368 GeodesicLength=0.18101179192938738 rxn_smarts="[N:1]([c:2]1[n:3][c:4]([H:9])[n:5][n:6]1[H:10])([H:7])[H:8]>>[N:1]([C:2]1=[N:3][C@:4]1(/[N:5]=[N:6]/[H:10])[H:9])([H:7])[H:8]"
N       -1.65709389      -0.53749541      -0.01917042
C       -0.37930905      -0.42705982      -0.33827629
N        0.52371874      -1.00387110      -0.97108885
C        1.33589966      -0.45859558       0.12598999
N        1.48518116       0.87500635       0.27353838
N        0.35662882       1.44851494       0.08232468
H       -2.05192183       0.15247883       0.59409350
H       -2.17031682      -1.37028678      -0.25386652
H        2.06129992      -1.12901456       0.56285903
H        0.49591329       2.45032314      -0.05640350
10
Frame=5 idx=000368 GeodesicLength=0.22631487421468055 rxn_smarts="[N:1]([c:2]1[n:3][c:4]([H:9])[n:5][n:6]1[H:10])([H:7])[H:8]>>[N:1]([C:2]1=[N:3][C@:4]1(/[N:5]=[N:6]/[H:10])[H:9])([H:7])[H:8]"
N       -1.65787284      -0.53277996      -0.01601057
C       -0.37594909      -0.41595190      -0.32794887
N        0.52179979      -1.00583002      -0.96264314
C        1.33610061      -0.46094112       0.12821810
N        1.49310117       0.87595888       0.26155097
N        0.36064250       1.44106437       0.05865931
H       -2.05224728       0.13615913       0.62018133
H       -2.16950365      -1.35666375      -0.28266585
H        2.05962376      -1.12869026       0.57215733
H        0.48430504       2.44767463      -0.05149862
10
Frame=6 idx=000368 GeodesicLength=0.27157246181344963 rxn_smarts="[N:1]([c:2]1[n:3][c:4]([H:9])[n:5][n:6]1[H:10])([H:7])[H:8]>>[N:1]([C:2]1=[N:3][C@:4]1(/[N:5]=[N:6]/[H:10])[H:9])([H:7])[H:8]"
N       -1.65854475      -0.52771553      -0.01308343
C       -0.37243400      -0.40534549      -0.31777387
N        0.51989219      -1.00867146      -0.95393138
C        1.33638977      -0.46331756       0.13024343
N        1.50117768       0.87679665       0.24819157
N        0.36496767       1.43342987       0.03356609
H       -2.05262599       0.12071645       0.64395075
H       -2.16828627      -1.34234171      -0.30946266
H        2.05818037      -1.12793273       0.58160788
H        0.47128332       2.44438150      -0.04330838
10
Frame=7 idx=000368 GeodesicLength=0.316798787341584 rxn_smarts="[N:1]([c:2]1[n:3][c:4]([H:9])[n:5][n:6]1[H:10])([H:7])[H:8]>>[N:1]([C:2]1=[N:3][C@:4]1(/[N:5]=[N:6]/[H:10])[H:9])([H:7])[H:8]"
N       -1.65902940      -0.52241462      -0.00997576
C       -0.36871897      -0.39516039      -0.30743285
N        0.51800984      -1.01210014      -0.94486442
C        1.33686305      -0.46564796       0.13220491
N        1.50941792       0.87755635       0.23386066
N        0.36954466       1.42562480       0.00771604
H       -2.05296377       0.10583895       0.66625994
H       -2.16701294      -1.32674019      -0.33555410
H        2.05720851      -1.12670167       0.59105450
H        0.45668111       2.43974489      -0.03326894
10
Frame=8 idx=000368 GeodesicLength=0.36217459999387824 rxn_smarts="[N:1]([c:2]1[n:3][c:4]([H:9])[n:5][n:6]1[H:10])([H:7])[H:8]>>[N:1]([C:2]1=[N:3][C@:4]1(/[N:5]=[N:6]/[H:10])[H:9])([H:7])[H:8]"
N       -1.65936669      -0.51640036      -0.00751857
C       -0.36479867      -0.38514942      -0.29758174
N        0.51618784      -1.01617961      -0.93570985
C        1.33732132      -0.46796893       0.13386346
N        1.51780054       0.87806097       0.21820474
N        0.37467114       1.41765342      -0.02005843
H       -2.05357463       0.09302653       0.68536031
H       -2.16470972      -1.31152163      -0.35822908
H        2.05621733      -1.12503741       0.60053507
H        0.44025154       2.43351646      -0.01886590
10
Frame=9 idx=000368 GeodesicLength=0.4073843999251288 rxn_smarts="[N:1]([c:2]1[n:3][c:4]([H:9])[n:5][n:6]1[H:10])([H:7])[H:8]>>[N:1]([C:2]1=[N:3][C@:4]1(/[N:5]=[N:6]/[H:10])[H:9])([H:7])[H:8]"
N       -1.65955514      -0.50972607      -0.00524813
C       -0.36061956      -0.37543201      -0.28787436
N        0.51442474      -1.02120412      -0.92606862
C        1.33805971      -0.47019925       0.13540848
N        1.52656883       0.87854363       0.20098584
N        0.38036862       1.40964789      -0.04983163
H       -2.05399633       0.08146950       0.70294945
H       -2.16232761      -1.29538666      -0.37977767
H        2.05566221      -1.12273891       0.61042490
H        0.42141452       2.42502600      -0.00096826
10
Frame=10 idx=000368 GeodesicLength=0.45303857818452614 rxn_smarts="[N:1]([c:2]1[n:3][c:4]([H:9])[n:5][n:6]1[H:10])([H:7])[H:8]>>[N:1]([C:2]1=[N:3][C@:4]1(/[N:5]=[N:6]/[H:10])[H:9])([H:7])[H:8]"
N       -1.65950558      -0.50268235      -0.00286305
C       -0.35626616      -0.36543448      -0.27779252
N        0.51267515      -1.02508467      -0.91669602
C        1.33875471      -0.47223283       0.13700990
N        1.53514603       0.87877320       0.18477131
N        0.38605849       1.40150564      -0.07764303
H       -2.05458310       0.06998969       0.71982138
H       -2.15932786      -1.27836128      -0.40082678
H        2.05527749      -1.12035041       0.61948052
H        0.40177082       2.41387750       0.01473829
10
Frame=11 idx=000368 GeodesicLength=0.49856796956827465 rxn_smarts="[N:1]([c:2]1[n:3][c:4]([H:9])[n:5][n:6]1[H:10])([H:7])[H:8]>>[N:1]([C:2]1=[N:3][C@:4]1(/[N:5]=[N:6]/[H:10])[H:9])([H:7])[H:8]"
N       -1.65962204      -0.49522950      -0.00106507
C       -0.35201390      -0.35482451      -0.26786029
N        0.51081881      -1.02719790      -0.90844126
C        1.33928068      -0.47423326       0.13851802
N        1.54350652       0.87877583       0.17064766
N        0.39168543       1.39366210      -0.10258087
H       -2.05594394       0.05900755       0.73499550
H       -2.15519755      -1.26271580      -0.41927817
H        2.05482392      -1.11860850       0.62736820
H        0.38266207       2.40136398       0.02769628
10
Frame=12 idx=000368 GeodesicLength=0.5441400452779576 rxn_smarts="[N:1]([c:2]1[n:3][c:4]([H:9])[n:5][n:6]1[H:10])([H:7])[H:8]>>[N:1]([C:2]1=[N:3][C@:4]1(/[N:5]=[N:6]/[H:10])[H:9])([H:7])[H:8]"
N       -1.65981063      -0.48778159       0.00073160
C       -0.34785296      -0.34385262      -0.25764731
N        0.50885786      -1.02772848      -0.90098130
C        1.33964760      -0.47617803       0.14006680
N        1.55153257       0.87862371       0.15852081
N        0.39696853       1.38597356      -0.12430520
H       -2.05784693       0.04739174       0.74967686
H       -2.15048766      -1.24729498      -0.43695679
H        2.05442143      -1.11736812       0.63416363
H        0.36457018       2.38821480       0.03673090
10
Frame=13 idx=000368 GeodesicLength=0.5897459615533853 rxn_smarts="[N:1]([c:2]1[n:3][c:4]([H:9])[n:5][n:6]1[H:10])([H:7])[H:8]>>[N:1]([C:2]1=[N:3][C@:4]1(/[N:5]=[N:6]/[H:10])[H:9])([H:7])[H:8]"
N       -1.66004726      -0.48035906       0.00253046
C       -0.34377656      -0.33265703      -0.24724237
N        0.50679722      -1.02711577      -0.89413124
C        1.33984799      -0.47807349       0.14163234
N        1.55925820       0.87836389       0.14780471
N        0.40192454       1.37842063      -0.14359221
H       -2.06013529       0.03516023       0.76389140
H       -2.14532614      -1.23202792      -0.45394750
H        2.05400551      -1.11647364       0.64017849
H        0.34745181       2.37476216       0.04287591
10
Frame=14 idx=000368 GeodesicLength=0.6353938506047669 rxn_smarts="[N:1]([c:2]1[n:3][c:4]([H:9])[n:5][n:6]1[H:10])([H:7])[H:8]>>[N:1]([C:2]1=[N:3][C@:4]1(/[N:5]=[N:6]/[H:10])[H:9])([H:7])[H:8]"
N       -1.66030355      -0.47307946       0.00452009
C       -0.33976778      -0.32140247      -0.23653406
N        0.50464466      -1.02570049      -0.88762920
C        1.33992380      -0.47991255       0.14326018
N        1.56669889       0.87804327       0.13811671
N        0.40650350       1.37093767      -0.16085264
H       -2.06264718       0.02192201       0.77804054
H       -2.13998841      -1.21632541      -0.47092427
H        2.05365158      -1.11576556       0.64562510
H        0.33128449       2.36128299       0.04637756
10
Frame=15 idx=000368 GeodesicLength=0.6810672609650561 rxn_smarts="[N:1]([c:2]1[n:3][c:4]([H:9])[n:5][n:6]1[H:10])([H:7])[H:8]>>[N:1]([C:2]1=[N:3][C@:4]1(/[N:5]=[N:6]/[H:10])[H:9])([H:7])[H:8]"
N       -1.66056966      -0.46596974       0.00676215
C       -0.33581985      -0.31018833      -0.22546793
N        0.50239072      -1.02372593      -0.88130636
C        1.33988666      -0.48170361       0.14498835
N        1.57385732       0.87768262       0.12919482
N        0.41067950       1.36348576      -0.17641279
H       -2.06525994       0.00737118       0.79235471
H       -2.13460153      -1.19980637      -0.48823090
H        2.05339005      -1.11515978       0.65066149
H        0.31604674       2.34801420       0.04745645
10
Frame=16 idx=000368 GeodesicLength=0.7267363548829061 rxn_smarts="[N:1]([c:2]1[n:3][c:4]([H:9])[n:5][n:6]1[H:10])([H:7])[H:8]>>[N:1]([C:2]1=[N:3][C@:4]1(/[N:5]=[N:6]/[H:10])[H:9])([H:7])[H:8]"
N       -1.66085197      -0.45907400       0.00923573
C       -0.33194625      -0.29902449      -0.21411062
N        0.50004180      -1.02122870      -0.87519694
C        1.33971368      -0.48347318       0.14679394
N        1.58071944       0.87727511       0.12105207
N        0.41447000       1.35607295      -0.19041294
H       -2.06803446      -0.00829192       0.80655792
H       -2.12910996      -1.18271226      -0.50555421
H        2.05320575      -1.11470162       0.65523923
H        0.30179197       2.33515811       0.04639582
