17
Frame=0 idx=011059 GeodesicLength=0.0 rxn_smarts="[C:1]([C:2]([C@@:3]1([H:13])[O:4][C@@:5]2([H:14])[C:6]([H:15])([H:16])[C@@:7]12[H:17])([H:11])[H:12])([H:8])([H:9])[H:10]>>[C:1]([C:2](/[C:3](=[C:7](\[C:6]([C:5](=[O:4])[H:14])([H:15])[H:16])[H:17])[H:13])([H:11])[H:12])([H:8])([H:9])[H:10]"
C        2.35846177      -0.04536593      -0.20306080
C        1.08915633       0.68540641       0.21656477
C        0.02095543      -0.30220910       0.64539523
O       -1.14866426       0.56214073       1.31391694
C       -2.09171814       0.38038922       0.46036623
C       -1.75128779      -0.07253075      -0.89303854
C       -0.72956742      -1.05310970      -0.36826452
H        2.14508621      -0.73536194      -1.02069547
H        2.77242239      -0.62401758       0.62662710
H        3.12351380       0.66022311      -0.53075557
H        0.71738638       1.28864407      -0.61550117
H        1.30341625       1.37088829       1.04065802
H        0.35252050      -0.89889124       1.49502169
H       -3.09697889       0.59185848       0.82688124
H       -2.60782649      -0.51562003      -1.39816030
H       -1.35892457       0.73772716      -1.52393069
H       -1.09795152      -2.03017120      -0.07202412
17
Frame=1 idx=011059 GeodesicLength=0.07972270131868638 rxn_smarts="[C:1]([C:2]([C@@:3]1([H:13])[O:4][C@@:5]2([H:14])[C:6]([H:15])([H:16])[C@@:7]12[H:17])([H:11])[H:12])([H:8])([H:9])[H:10]>>[C:1]([C:2](/[C:3](=[C:7](\[C:6]([C:5](=[O:4])[H:14])([H:15])[H:16])[H:17])[H:13])([H:11])[H:12])([H:8])([H:9])[H:10]"
C        2.36063600      -0.05286701      -0.20838053
C        1.09682367       0.68549291       0.21516057
C        0.02357401      -0.29167672       0.65277330
O       -1.16800046       0.60087224       1.31111365
C       -2.10483517       0.37566463       0.45922113
C       -1.74938559      -0.06233753      -0.89680236
C       -0.73898946      -1.04059123      -0.34908888
H        2.14201960      -0.73915081      -1.02784667
H        2.77206744      -0.63672399       0.61886988
H        3.12980808       0.64825277      -0.53599415
H        0.72437439       1.28996249      -0.61562411
H        1.32065325       1.37100232       1.03686013
H        0.35427834      -0.88735145       1.50371484
H       -3.12022333       0.52198516       0.83073037
H       -2.59609644      -0.51052914      -1.41356089
H       -1.34928091       0.75272809      -1.51479781
H       -1.09742343      -2.02473273      -0.06634846
17
Frame=2 idx=011059 GeodesicLength=0.15928687159768332 rxn_smarts="[C:1]([C:2]([C@@:3]1([H:13])[O:4][C@@:5]2([H:14])[C:6]([H:15])([H:16])[C@@:7]12[H:17])([H:11])[H:12])([H:8])([H:9])[H:10]>>[C:1]([C:2](/[C:3](=[C:7](\[C:6]([C:5](=[O:4])[H:14])([H:15])[H:16])[H:17])[H:13])([H:11])[H:12])([H:8])([H:9])[H:10]"
C        2.36242041      -0.06000615      -0.21366514
C        1.10399632       0.68540855       0.21417819
C        0.02613619      -0.28175099       0.66024508
O       -1.18837601       0.63921744       1.30762452
C       -2.11769486       0.37091417       0.45802383
C       -1.74764373      -0.05281289      -0.90028273
C       -0.74845173      -1.02826048      -0.32993822
H        2.13871455      -0.74227948      -1.03520051
H        2.77148311      -0.64926562       0.61088898
H        3.13548566       0.63694786      -0.54098411
H        0.73061537       1.29134288      -0.61505103
H        1.33711948       1.37058513       1.03374544
H        0.35625592      -0.87673823       1.51218313
H       -3.13911169       0.45601541       0.83345460
H       -2.58454350      -0.50635689      -1.42795616
H       -1.34021610       0.76671042      -1.50576231
H       -1.09618939      -2.01967113      -0.06150357
17
Frame=3 idx=011059 GeodesicLength=0.23871109428322362 rxn_smarts="[C:1]([C:2]([C@@:3]1([H:13])[O:4][C@@:5]2([H:14])[C:6]([H:15])([H:16])[C@@:7]12[H:17])([H:11])[H:12])([H:8])([H:9])[H:10]>>[C:1]([C:2](/[C:3](=[C:7](\[C:6]([C:5](=[O:4])[H:14])([H:15])[H:16])[H:17])[H:13])([H:11])[H:12])([H:8])([H:9])[H:10]"
C        2.36384271      -0.06680545      -0.21893275
C        1.11071884       0.68514971       0.21360591
C        0.02867182      -0.27242364       0.66781729
O       -1.20979567       0.67720861       1.30343459
C       -2.13025696       0.36624815       0.45673983
C       -1.74600544      -0.04392741      -0.90351305
C       -0.75795654      -1.01612129      -0.31076928
H        2.13517403      -0.74478075      -1.04275382
H        2.77070265      -0.66165078       0.60266242
H        3.14058400       0.62626684      -0.54576415
H        0.73615840       1.29277394      -0.61378844
H        1.35288276       1.36964585       1.03129064
H        0.35849364      -0.86704837       1.52042062
H       -3.15421597       0.39375947       0.83528870
H       -2.57312166      -0.50305754      -1.44140857
H       -1.33159926       0.77967515      -1.49689150
H       -1.09427733      -2.01491250      -0.05743846
17
Frame=4 idx=011059 GeodesicLength=0.3180185308707022 rxn_smarts="[C:1]([C:2]([C@@:3]1([H:13])[O:4][C@@:5]2([H:14])[C:6]([H:15])([H:16])[C@@:7]12[H:17])([H:11])[H:12])([H:8])([H:9])[H:10]>>[C:1]([C:2](/[C:3](=[C:7](\[C:6]([C:5](=[O:4])[H:14])([H:15])[H:16])[H:17])[H:13])([H:11])[H:12])([H:8])([H:9])[H:10]"
C        2.36493244      -0.07327702      -0.22420704
C        1.11702349       0.68471414       0.21344013
C        0.03120134      -0.26369958       0.67549980
O       -1.23227511       0.71487284       1.29853808
C       -2.14249495       0.36172766       0.45535194
C       -1.74442682      -0.03566982      -0.90651242
C       -0.76751089      -1.00418736      -0.29153793
H        2.13140856      -0.74666642      -1.05051993
H        2.76976586      -0.67389241       0.59415909
H        3.14514111       0.61618993      -0.55037277
H        0.74103473       1.29426173      -0.61183082
H        1.36799348       1.36818695       1.02948830
H        0.36102481      -0.85830268       1.52842578
H       -3.16599765       0.33514039       0.83637760
H       -2.56179725      -0.50060973      -1.45396867
H       -1.32332323       0.79162120      -1.48822635
H       -1.09169992      -2.01040983      -0.05410478
17
Frame=5 idx=011059 GeodesicLength=0.39734584041363874 rxn_smarts="[C:1]([C:2]([C@@:3]1([H:13])[O:4][C@@:5]2([H:14])[C:6]([H:15])([H:16])[C@@:7]12[H:17])([H:11])[H:12])([H:8])([H:9])[H:10]>>[C:1]([C:2](/[C:3](=[C:7](\[C:6]([C:5](=[O:4])[H:14])([H:15])[H:16])[H:17])[H:13])([H:11])[H:12])([H:8])([H:9])[H:10]"
C        2.36570409      -0.07948152      -0.22951280
C        1.12298968       0.68411134       0.21366159
C        0.03376018      -0.25551031       0.68334588
O       -1.25574280       0.75245880       1.29288329
C       -2.15450250       0.35736100       0.45388477
C       -1.74285702      -0.02796708      -0.90924756
C       -0.77712107      -0.99240585      -0.27214164
H        2.12737051      -0.74803676      -1.05847256
H        2.76867774      -0.68602172       0.58535652
H        3.14919328       0.60661133      -0.55488594
H        0.74536254       1.29579947      -0.60920614
H        1.38260231       1.36625718       1.02828107
H        0.36392190      -0.85048132       1.53618422
H       -3.17513356       0.27962199       0.83674683
H       -2.55046899      -0.49891936      -1.46570302
H       -1.31531405       0.80264741      -1.47968723
H       -1.08844224      -2.00604460      -0.05148728
17
Frame=6 idx=011059 GeodesicLength=0.47661430594339194 rxn_smarts="[C:1]([C:2]([C@@:3]1([H:13])[O:4][C@@:5]2([H:14])[C:6]([H:15])([H:16])[C@@:7]12[H:17])([H:11])[H:12])([H:8])([H:9])[H:10]>>[C:1]([C:2](/[C:3](=[C:7](\[C:6]([C:5](=[O:4])[H:14])([H:15])[H:16])[H:17])[H:13])([H:11])[H:12])([H:8])([H:9])[H:10]"
C        2.36617782      -0.08539257      -0.23487540
C        1.12861134       0.68333054       0.21428793
C        0.03635720      -0.24791295       0.69134890
O       -1.28027215       0.78985475       1.28646210
C       -2.16619546       0.35322523       0.45229737
C       -1.74125156      -0.02086013      -0.91176470
C       -0.78679299      -0.98082525      -0.25256901
H        2.12308279      -0.74883036      -1.06665671
H        2.76748424      -0.69803874       0.57620438
H        3.15275374       0.59757791      -0.55931611
H        0.74910753       1.29740384      -0.60586669
H        1.39669226       1.36381998       1.02770694
H        0.36719221      -0.84363536       1.54370458
H       -3.18183972       0.22743421       0.83657840
H       -2.53912706      -0.49802885      -1.47664374
H       -1.30745422       0.81268202      -1.47137840
H       -1.08452597      -2.00180427      -0.04951984
17
Frame=7 idx=011059 GeodesicLength=0.5558494824144481 rxn_smarts="[C:1]([C:2]([C@@:3]1([H:13])[O:4][C@@:5]2([H:14])[C:6]([H:15])([H:16])[C@@:7]12[H:17])([H:11])[H:12])([H:8])([H:9])[H:10]>>[C:1]([C:2](/[C:3](=[C:7](\[C:6]([C:5](=[O:4])[H:14])([H:15])[H:16])[H:17])[H:13])([H:11])[H:12])([H:8])([H:9])[H:10]"
C        2.36636250      -0.09102147      -0.24032252
C        1.13392168       0.68237211       0.21532616
C        0.03901578      -0.24090816       0.69953400
O       -1.30587128       0.82712265       1.27924121
C       -2.17758235       0.34934239       0.45058591
C       -1.73956388      -0.01434660      -0.91406182
C       -0.79653215      -0.96944614      -0.23276152
H        2.11852160      -0.74905146      -1.07509020
H        2.76620266      -0.70995982       0.56665464
H        3.15583763       0.58907129      -0.56370940
H        0.75230590       1.29908709      -0.60178774
H        1.41032884       1.36087670       1.02776747
H        0.37086932      -0.83778673       1.55099112
H       -3.18650723       0.17848210       0.83593238
H       -2.52771106      -0.49793316      -1.48682587
H       -1.29965851       0.82172505      -1.46329972
H       -1.07993946      -1.99762585      -0.04817410
17
Frame=8 idx=011059 GeodesicLength=0.6350586689952088 rxn_smarts="[C:1]([C:2]([C@@:3]1([H:13])[O:4][C@@:5]2([H:14])[C:6]([H:15])([H:16])[C@@:7]12[H:17])([H:11])[H:12])([H:8])([H:9])[H:10]>>[C:1]([C:2](/[C:3](=[C:7](\[C:6]([C:5](=[O:4])[H:14])([H:15])[H:16])[H:17])[H:13])([H:11])[H:12])([H:8])([H:9])[H:10]"
C        2.36627041      -0.09637656      -0.24587665
C        1.13894431       0.68123482       0.21678095
C        0.04174834      -0.23449871       0.70791774
O       -1.33255685       0.86432596       1.27116512
C       -2.18866802       0.34574098       0.44874204
C       -1.73775327      -0.00842602      -0.91614536
C       -0.80635080      -0.95826637      -0.21267259
H        2.11367585      -0.74869609      -1.08379165
H        2.76485363      -0.72180209       0.55666819
H        3.15846430       0.58107603      -0.56809568
H        0.75498245       1.30086099      -0.59694947
H        1.42355905       1.35741703       1.02846851
H        0.37497664      -0.83295595       1.55803999
H       -3.18944147       0.13265512       0.83489820
H       -2.51617353      -0.49862807      -1.49628562
H       -1.29184803       0.82978187      -1.45545910
H       -1.07468301      -1.99344295      -0.04740462
17
Frame=9 idx=011059 GeodesicLength=0.7143766591346645 rxn_smarts="[C:1]([C:2]([C@@:3]1([H:13])[O:4][C@@:5]2([H:14])[C:6]([H:15])([H:16])[C@@:7]12[H:17])([H:11])[H:12])([H:8])([H:9])[H:10]>>[C:1]([C:2](/[C:3](=[C:7](\[C:6]([C:5](=[O:4])[H:14])([H:15])[H:16])[H:17])[H:13])([H:11])[H:12])([H:8])([H:9])[H:10]"
C        2.36589141      -0.10151457      -0.25155504
C        1.14374310       0.67992499       0.21864794
C        0.04458233      -0.22861893       0.71657215
O       -1.36027285       0.90176560       1.26205255
C       -2.19958535       0.34235053       0.44684213
C       -1.73579729      -0.00303290      -0.91793169
C       -0.81625950      -0.94721601      -0.19217222
H        2.10846837      -0.74785245      -1.09272108
H        2.76341828      -0.73360062       0.54622529
H        3.16064095       0.57349301      -0.57254941
H        0.75724131       1.30271990      -0.59136160
H        1.43651764       1.35348077       1.02975849
H        0.37957864      -0.82914288       1.56483528
H       -3.19104495       0.08944080       0.83334602
H       -2.50443511      -0.50002564      -1.50503646
H       -1.28401899       0.83695827      -1.44770785
H       -1.06866800      -1.98912986      -0.04724452
17
Frame=10 idx=011059 GeodesicLength=0.7936785520600221 rxn_smarts="[C:1]([C:2]([C@@:3]1([H:13])[O:4][C@@:5]2([H:14])[C:6]([H:15])([H:16])[C@@:7]12[H:17])([H:11])[H:12])([H:8])([H:9])[H:10]>>[C:1]([C:2](/[C:3](=[C:7](\[C:6]([C:5](=[O:4])[H:14])([H:15])[H:16])[H:17])[H:13])([H:11])[H:12])([H:8])([H:9])[H:10]"
C        2.36523767      -0.10638967      -0.25738750
C        1.14829913       0.67843066       0.22095680
C        0.04752311      -0.22334912       0.72546339
O       -1.38913407       0.93925087       1.25190752
C       -2.21021708       0.33929138       0.44479160
C       -1.73363135       0.00175853      -0.91950647
C       -0.82626501      -0.93635866      -0.17129279
H        2.10292051      -0.74640384      -1.10195910
H        2.76192923      -0.74535947       0.53525222
H        3.16237397       0.56639862      -0.57705561
H        0.75902334       1.30469562      -0.58494522
H        1.44916641       1.34899968       1.03171405
H        0.38465049      -0.82639162       1.57139411
H       -3.19142281       0.04916219       0.83157290
H       -2.49246720      -0.50222020      -1.51311644
H       -1.27602550       0.84313929      -1.44020398
H       -1.06196085      -1.98465425      -0.04758549
17
Frame=11 idx=011059 GeodesicLength=0.8729820254586108 rxn_smarts="[C:1]([C:2]([C@@:3]1([H:13])[O:4][C@@:5]2([H:14])[C:6]([H:15])([H:16])[C@@:7]12[H:17])([H:11])[H:12])([H:8])([H:9])[H:10]>>[C:1]([C:2](/[C:3](=[C:7](\[C:6]([C:5](=[O:4])[H:14])([H:15])[H:16])[H:17])[H:13])([H:11])[H:12])([H:8])([H:9])[H:10]"
C        2.36430069      -0.11100737      -0.26340388
C        1.15264349       0.67675362       0.22372737
C        0.05059055      -0.21868863       0.73461968
O       -1.41915675       0.97686609       1.24062743
C       -2.22057858       0.33658466       0.44258020
C       -1.73120723       0.00594336      -0.92086193
C       -0.83637246      -0.92567884      -0.14997276
H        2.09698555      -0.74433050      -1.11153149
H        2.76037790      -0.75710642       0.52368265
H        3.16366297       0.55977889      -0.58164827
H        0.76036594       1.30681274      -0.57765011
H        1.46157381       1.34395867       1.03435598
H        0.39021385      -0.82472713       1.57771411
H       -3.19083794       0.01167193       0.82961665
H       -2.48020286      -0.50522240      -1.52054038
H       -1.26779611       0.84831881      -1.43293985
H       -1.05456281      -1.97992749      -0.04837540
17
Frame=12 idx=011059 GeodesicLength=0.9522719843002537 rxn_smarts="[C:1]([C:2]([C@@:3]1([H:13])[O:4][C@@:5]2([H:14])[C:6]([H:15])([H:16])[C@@:7]12[H:17])([H:11])[H:12])([H:8])([H:9])[H:10]>>[C:1]([C:2](/[C:3](=[C:7](\[C:6]([C:5](=[O:4])[H:14])([H:15])[H:16])[H:17])[H:13])([H:11])[H:12])([H:8])([H:9])[H:10]"
C        2.36307482      -0.11536518      -0.26963351
C        1.15679607       0.67489166       0.22698181
C        0.05379777      -0.21465022       0.74406083
O       -1.45036381       1.01465352       1.22811606
C       -2.23067467       0.33425259       0.44020186
C       -1.72848027       0.00950463      -0.92199511
C       -0.84658876      -0.91517321      -0.12816370
H        2.09062698      -0.74159040      -1.12147562
H        2.75876277      -0.76886932       0.51144869
H        3.16450961       0.55363434      -0.58635487
H        0.76128559       1.30909752      -0.56942006
H        1.47379013       1.33832988       1.03771189
H        0.39628197      -0.82417720       1.58379461
H       -3.18948173      -0.02310676       0.82749635
H       -2.46758853      -0.50905197      -1.52732125
H       -1.25926291       0.85248119      -1.42591463
H       -1.04648503      -1.97486109      -0.04953334
17
Frame=13 idx=011059 GeodesicLength=1.0315599047351816 rxn_smarts="[C:1]([C:2]([C@@:3]1([H:13])[O:4][C@@:5]2([H:14])[C:6]([H:15])([H:16])[C@@:7]12[H:17])([H:11])[H:12])([H:8])([H:9])[H:10]>>[C:1]([C:2](/[C:3](=[C:7](\[C:6]([C:5](=[O:4])[H:14])([H:15])[H:16])[H:17])[H:13])([H:11])[H:12])([H:8])([H:9])[H:10]"
C        2.36155392      -0.11945616      -0.27610872
C        1.16078399       0.67284243       0.23074446
C        0.05716451      -0.21124808       0.75380750
O       -1.48278557       1.05267836       1.21422329
C       -2.24051286       0.33231129       0.43764215
C       -1.72539784       0.01243614      -0.92290159
C       -0.85691499      -0.90482607      -0.10582459
H        2.08380367      -0.73813194      -1.13182878
H        2.75707724      -0.78067234       0.49847167
H        3.16491568       0.54796840      -0.59120270
H        0.76181099       1.31157515      -0.56018957
H        1.48587507       1.33207760       1.04181398
H        0.40287599      -0.82478098       1.58962390
H       -3.18755409      -0.05531111       0.82524942
H       -2.45455260      -0.51371877      -1.53347481
H       -1.25035135       0.85562483      -1.41911849
H       -1.03779176      -1.96936874      -0.05092711
17
Frame=14 idx=011059 GeodesicLength=1.1108484397683531 rxn_smarts="[C:1]([C:2]([C@@:3]1([H:13])[O:4][C@@:5]2([H:14])[C:6]([H:15])([H:16])[C@@:7]12[H:17])([H:11])[H:12])([H:8])([H:9])[H:10]>>[C:1]([C:2](/[C:3](=[C:7](\[C:6]([C:5](=[O:4])[H:14])([H:15])[H:16])[H:17])[H:13])([H:11])[H:12])([H:8])([H:9])[H:10]"
C        2.35972508      -0.12327137      -0.28286132
C        1.16462557       0.67059939       0.23504531
C        0.06070539      -0.20850260       0.76387606
O       -1.51645964       1.09098470       1.19879331
C       -2.25010454       0.33076808       0.43489954
C       -1.72191203       0.01471706      -0.92357551
C       -0.86735655      -0.89463352      -0.08291106
H        2.07646862      -0.73389434      -1.14263254
H        2.75531107      -0.79254220       0.48467133
H        3.16487486       0.54278820      -0.59621299
H        0.76195576       1.31427286      -0.54988500
H        1.49787872       1.32515597       1.04670319
H        0.41000989      -0.82657645       1.59518938
H       -3.18518265      -0.08500561       0.82289472
H       -2.44103614      -0.51924577      -1.53901071
H       -1.24099638       0.85773369      -1.41254191
H       -1.02850702      -1.96334808      -0.05244179
17
Frame=15 idx=011059 GeodesicLength=1.1901362672031581 rxn_smarts="[C:1]([C:2]([C@@:3]1([H:13])[O:4][C@@:5]2([H:14])[C:6]([H:15])([H:16])[C@@:7]12[H:17])([H:11])[H:12])([H:8])([H:9])[H:10]>>[C:1]([C:2](/[C:3](=[C:7](\[C:6]([C:5](=[O:4])[H:14])([H:15])[H:16])[H:17])[H:13])([H:11])[H:12])([H:8])([H:9])[H:10]"
C        2.35757658      -0.12679241      -0.28992640
C        1.16834462       0.66815712       0.23991687
C        0.06443890      -0.20643934       0.77428133
O       -1.55142235       1.12960628       1.18164008
C       -2.25945089       0.32963507       0.43195501
C       -1.71796752       0.01633240      -0.92401472
C       -0.87791051      -0.88458338      -0.05939253
H        2.06857519      -0.72879567      -1.15393553
H        2.75345020      -0.80450186       0.46995112
H        3.16438332       0.53811248      -0.60140462
H        0.76174110       1.31722253      -0.53841931
H        1.50985702       1.31751128       1.05242762
H        0.41769962      -0.82961468       1.60046860
H       -3.18249744      -0.11228053       0.82046148
H       -2.42696822      -0.52565206      -1.54394068
H       -1.23112321       0.85879639      -1.40617696
H       -1.01872641      -1.95671360      -0.05389135
17
Frame=16 idx=011059 GeodesicLength=1.269425925037078 rxn_smarts="[C:1]([C:2]([C@@:3]1([H:13])[O:4][C@@:5]2([H:14])[C:6]([H:15])([H:16])[C@@:7]12[H:17])([H:11])[H:12])([H:8])([H:9])[H:10]>>[C:1]([C:2](/[C:3](=[C:7](\[C:6]([C:5](=[O:4])[H:14])([H:15])[H:16])[H:17])[H:13])([H:11])[H:12])([H:8])([H:9])[H:10]"
C        2.35509653      -0.12999330      -0.29734386
C        1.17196441       0.66550953       0.24539992
C        0.06838644      -0.20509187       0.78503898
O       -1.58771996       1.16856179       1.16254403
C       -2.26854335       0.32892128       0.42879054
C       -1.71350727       0.01726478      -0.92421381
C       -0.88856966      -0.87466197      -0.03524350
H        2.06007606      -0.72273708      -1.16579516
H        2.75148237      -0.81657306       0.45420373
H        3.16343511       0.53397073      -0.60679740
H        0.76118460       1.32046197      -0.52569032
H        1.52186555       1.30908078       1.05904770
H        0.42596481      -0.83395983       1.60543069
H       -3.17960285      -0.13719809       0.81796036
H       -2.41228276      -0.53295901      -1.54826774
H       -1.22065520       0.85879566      -1.40001175
H       -1.00857483      -1.94939232      -0.05505241
