16
Frame=0 idx=006829 GeodesicLength=0.0 rxn_smarts="[C:1]([C@@:2]1([H:11])[C:3]([H:12])([H:13])[C:4]([H:14])([H:15])/[C:5]1=[N:6]\[O:7][H:16])([H:8])([H:9])[H:10]>>[C:1](/[C:5]([C:2]1([H:11])[C:3]([H:12])([H:13])[C:4]1([H:14])[H:15])=[N:6]\[O:7][H:16])([H:8])([H:9])[H:10]"
C       -0.68179574      -1.08894048       0.69245007
C       -0.48290430       0.05245539      -1.30794222
C       -0.88294987       1.40712431      -0.81404683
C        0.22246392       1.27128907       0.24303461
C        0.36638779      -0.26209135      -0.18363263
N        1.54200560      -0.95139951      -0.26256216
O        1.96624371      -1.23491061       1.04394360
H       -1.56612231      -0.50701844       0.94258188
H       -0.11599599      -1.34387125       1.59260572
H       -0.96036019      -2.00313726       0.17191015
H       -0.54160407      -0.39882576      -2.29280810
H       -0.70053029       2.21336048      -1.53039326
H       -1.91569771       1.50266422      -0.46272597
H       -0.01605461       1.43451403       1.29202421
H        1.12499490       1.81002468      -0.03020266
H        2.64191909      -1.90123746       0.90576366
16
Frame=1 idx=006829 GeodesicLength=0.10982927310608567 rxn_smarts="[C:1]([C@@:2]1([H:11])[C:3]([H:12])([H:13])[C:4]([H:14])([H:15])/[C:5]1=[N:6]\[O:7][H:16])([H:8])([H:9])[H:10]>>[C:1](/[C:5]([C:2]1([H:11])[C:3]([H:12])([H:13])[C:4]1([H:14])[H:15])=[N:6]\[O:7][H:16])([H:8])([H:9])[H:10]"
C       -0.69983068      -1.09299554       0.68360334
C       -0.47893244       0.05304179      -1.28411145
C       -0.89474692       1.40846236      -0.80593312
C        0.23401879       1.28864613       0.22544997
C        0.38634119      -0.26643060      -0.17366505
N        1.54872010      -0.96360521      -0.25636367
O        1.97612881      -1.25266520       1.04733741
H       -1.59033561      -0.51987288       0.93199995
H       -0.15176305      -1.34287546       1.59632710
H       -0.96345534      -2.01417467       0.16747106
H       -0.49644928      -0.37440372      -2.28102458
H       -0.73840558       2.20814372      -1.53491388
H       -1.91965853       1.49305629      -0.43189087
H        0.01064995       1.45782945       1.27684334
H        1.12581652       1.83584258      -0.06601822
H        2.65190208      -1.91799904       0.90488866
16
Frame=2 idx=006829 GeodesicLength=0.21959397853061396 rxn_smarts="[C:1]([C@@:2]1([H:11])[C:3]([H:12])([H:13])[C:4]([H:14])([H:15])/[C:5]1=[N:6]\[O:7][H:16])([H:8])([H:9])[H:10]>>[C:1](/[C:5]([C:2]1([H:11])[C:3]([H:12])([H:13])[C:4]1([H:14])[H:15])=[N:6]\[O:7][H:16])([H:8])([H:9])[H:10]"
C       -0.71810333      -1.09734117       0.67416890
C       -0.47398569       0.05398895      -1.26010986
C       -0.90594863       1.40980841      -0.79756633
C        0.24560189       1.30614319       0.20746126
C        0.40613368      -0.27073431      -0.16284332
N        1.55535087      -0.97558999      -0.24980560
O        1.98669995      -1.27005510       1.05083132
H       -1.61590091      -0.53428654       0.91939466
H       -0.18861124      -1.34125333       1.59966936
H       -0.96589035      -2.02567543       0.16283330
H       -0.45366660      -0.34992822      -2.26670440
H       -0.77579084       2.20209959      -1.53889677
H       -1.92227025       1.48422087      -0.40076213
H        0.03759029       1.48160936       1.26099227
H        1.12628204       1.86137606      -0.10240489
H        2.66250912      -1.93438232       0.90374225
16
Frame=3 idx=006829 GeodesicLength=0.32930603090910887 rxn_smarts="[C:1]([C@@:2]1([H:11])[C:3]([H:12])([H:13])[C:4]([H:14])([H:15])/[C:5]1=[N:6]\[O:7][H:16])([H:8])([H:9])[H:10]>>[C:1](/[C:5]([C:2]1([H:11])[C:3]([H:12])([H:13])[C:4]1([H:14])[H:15])=[N:6]\[O:7][H:16])([H:8])([H:9])[H:10]"
C       -0.73663090      -1.10197357       0.66414680
C       -0.46815087       0.05531188      -1.23584085
C       -0.91656640       1.41118575      -0.78887390
C        0.25723336       1.32379628       0.18909111
C        0.42575177      -0.27496853      -0.15108307
N        1.56187051      -0.98731943      -0.24286341
O        1.99800784      -1.28707802       1.05440900
H       -1.64280077      -0.55028310       0.90461642
H       -0.22663432      -1.33896503       1.60260748
H       -0.96765843      -2.03760501       0.15805183
H       -0.41312022      -0.32562454      -2.25009889
H       -0.81272878       2.19521294      -1.54229656
H       -1.92353059       1.47620381      -0.36921899
H        0.06483981       1.50591836       1.24448128
H        1.12639692       1.88661944      -0.13938588
H        2.67372109      -1.95043123       0.90225763
16
Frame=4 idx=006829 GeodesicLength=0.43897979703621826 rxn_smarts="[C:1]([C@@:2]1([H:11])[C:3]([H:12])([H:13])[C:4]([H:14])([H:15])/[C:5]1=[N:6]\[O:7][H:16])([H:8])([H:9])[H:10]>>[C:1](/[C:5]([C:2]1([H:11])[C:3]([H:12])([H:13])[C:4]1([H:14])[H:15])=[N:6]\[O:7][H:16])([H:8])([H:9])[H:10]"
C       -0.75543038      -1.10689253       0.65353224
C       -0.46151901       0.05701272      -1.21120975
C       -0.92661563       1.41260574      -0.77977341
C        0.26893947       1.34161772       0.17034634
C        0.44517587      -0.27911034      -0.13830572
N        1.56825091      -0.99876178      -0.23550636
O        2.01009811      -1.30372438       1.05806013
H       -1.67100045      -0.56788054       0.88750650
H       -0.26594397      -1.33595983       1.60509851
H       -0.96876328      -2.04993647       0.15318378
H       -0.37463860      -0.30164735      -2.23142814
H       -0.84928546       2.18744987      -1.54505123
H       -1.92343009       1.46903051      -0.33712148
H        0.09249255       1.53081803       1.22730133
H        1.12616029       1.91156143      -0.17701752
H        2.68550967      -1.96618281       0.90038477
16
Frame=5 idx=006829 GeodesicLength=0.5486210404799254 rxn_smarts="[C:1]([C@@:2]1([H:11])[C:3]([H:12])([H:13])[C:4]([H:14])([H:15])/[C:5]1=[N:6]\[O:7][H:16])([H:8])([H:9])[H:10]>>[C:1](/[C:5]([C:2]1([H:11])[C:3]([H:12])([H:13])[C:4]1([H:14])[H:15])=[N:6]\[O:7][H:16])([H:8])([H:9])[H:10]"
C       -0.77452355      -1.11209677       0.64231849
C       -0.45416981       0.05909079      -1.18612916
C       -0.93611315       1.41407624      -0.77018140
C        0.28074131       1.35961090       0.15122310
C        0.46438405      -0.28313954      -0.12443346
N        1.57447045      -1.00988012      -0.22769731
O        2.02301684      -1.31998007       1.06176855
H       -1.70044120      -0.58710277       0.86789376
H       -0.30665921      -1.33216958       1.60708201
H       -0.96920727      -2.06264428       0.14829204
H       -0.33806761      -0.27812114      -2.21087666
H       -0.88552863       2.17877344      -1.54708886
H       -1.92193912       1.46272115      -0.30432832
H        0.12063795       1.55635458       1.20943225
H        1.12555911       1.93617713      -0.21536211
H        2.69783984      -1.98166993       0.89808706
16
Frame=6 idx=006829 GeodesicLength=0.6582412887636763 rxn_smarts="[C:1]([C@@:2]1([H:11])[C:3]([H:12])([H:13])[C:4]([H:14])([H:15])/[C:5]1=[N:6]\[O:7][H:16])([H:8])([H:9])[H:10]>>[C:1](/[C:5]([C:2]1([H:11])[C:3]([H:12])([H:13])[C:4]1([H:14])[H:15])=[N:6]\[O:7][H:16])([H:8])([H:9])[H:10]"
C       -0.79393175      -1.11759323       0.63047089
C       -0.44618080       0.06154096      -1.16051533
C       -0.94506899       1.41560278      -0.76000686
C        0.29265562       1.37776833       0.13171107
C        0.48335259      -0.28704702      -0.10939532
N        1.58050330      -1.02064935      -0.21939074
O        2.03682185      -1.33580680       1.06553315
H       -1.73103617      -0.60792404       0.84559657
H       -0.34890997      -1.32754649       1.60848057
H       -0.96900814      -2.07570480       0.14343268
H       -0.30326987      -0.25514054      -2.18858925
H       -0.92153040       2.16913985      -1.54831208
H       -1.91901753       1.45727371      -0.27069626
H        0.14937456       1.58256110       1.19083424
H        1.12456502       1.96043673      -0.25449859
H        2.71068068      -1.99691118       0.89534527
16
Frame=7 idx=006829 GeodesicLength=0.767844380682326 rxn_smarts="[C:1]([C@@:2]1([H:11])[C:3]([H:12])([H:13])[C:4]([H:14])([H:15])/[C:5]1=[N:6]\[O:7][H:16])([H:8])([H:9])[H:10]>>[C:1](/[C:5]([C:2]1([H:11])[C:3]([H:12])([H:13])[C:4]1([H:14])[H:15])=[N:6]\[O:7][H:16])([H:8])([H:9])[H:10]"
C       -0.81367433      -1.12337857       0.61795641
C       -0.43762185       0.06435802      -1.13428809
C       -0.95349175       1.41719043      -0.74915908
C        0.30469262       1.39607838       0.11179142
C        0.50205774      -0.29082484      -0.09312122
N        1.58633028      -1.03103870      -0.21053548
O        2.05156387      -1.35115734       1.06935908
H       -1.76265786      -0.63030758       0.82041606
H       -0.39283046      -1.32204319       1.60918646
H       -0.96818501      -2.08909499       0.13867708
H       -0.27012929      -0.23278257      -2.16468215
H       -0.95736518       2.15849701      -1.54860873
H       -1.91461192       1.45267818      -0.23608836
H        0.17879527       1.60945725       1.17145800
H        1.12313417       1.98429955      -0.29450414
H        2.72399371      -2.01193104       0.89214274
16
Frame=8 idx=006829 GeodesicLength=0.8774479552078586 rxn_smarts="[C:1]([C@@:2]1([H:11])[C:3]([H:12])([H:13])[C:4]([H:14])([H:15])/[C:5]1=[N:6]\[O:7][H:16])([H:8])([H:9])[H:10]>>[C:1](/[C:5]([C:2]1([H:11])[C:3]([H:12])([H:13])[C:4]1([H:14])[H:15])=[N:6]\[O:7][H:16])([H:8])([H:9])[H:10]"
C       -0.83376749      -1.12945488       0.60472733
C       -0.42856261       0.06752992      -1.10736708
C       -0.96138621       1.41883881      -0.73753295
C        0.31686077       1.41451829       0.09143643
C        0.52047625      -0.29448042      -0.07554496
N        1.59192843      -1.04103435      -0.20107641
O        2.06730778      -1.36595762       1.07324670
H       -1.79513613      -0.65415558       0.79216176
H       -0.43858911      -1.31562709       1.60905609
H       -0.96677840      -2.10277816       0.13409019
H       -0.23852741      -0.21111970      -2.13926788
H       -0.99311281       2.14679184      -1.54783066
H       -1.90866079       1.44889811      -0.20035816
H        0.20899311       1.63704100       1.15124247
H        1.12121044       2.00771790      -0.33547075
H        2.73774417      -2.02672807       0.88848789
16
Frame=9 idx=006829 GeodesicLength=0.9869928174679408 rxn_smarts="[C:1]([C@@:2]1([H:11])[C:3]([H:12])([H:13])[C:4]([H:14])([H:15])/[C:5]1=[N:6]\[O:7][H:16])([H:8])([H:9])[H:10]>>[C:1](/[C:5]([C:2]1([H:11])[C:3]([H:12])([H:13])[C:4]1([H:14])[H:15])=[N:6]\[O:7][H:16])([H:8])([H:9])[H:10]"
C       -0.85432439      -1.13576067       0.59072271
C       -0.41903102       0.07098791      -1.07973406
C       -0.96872801       1.42054324      -0.72508618
C        0.32916626       1.43299835       0.07065426
C        0.53849452      -0.29807979      -0.05654429
N        1.59715926      -1.05072718      -0.19090049
O        2.08425805      -1.37998659       1.07709735
H       -1.82819470      -0.67917005       0.76061211
H       -0.48638490      -1.30837817       1.60785571
H       -0.96500473      -2.11672660       0.12990689
H       -0.20842426      -0.19005059      -2.11227712
H       -1.02871610       2.13404225      -1.54590253
H       -1.90114100       1.44571762      -0.16348346
H        0.24006573       1.66514296       1.13012766
H        1.11873631       2.03056483      -0.37737081
H        2.75206897      -2.04111754       0.88432226
16
Frame=10 idx=006829 GeodesicLength=1.0965514417375162 rxn_smarts="[C:1]([C@@:2]1([H:11])[C:3]([H:12])([H:13])[C:4]([H:14])([H:15])/[C:5]1=[N:6]\[O:7][H:16])([H:8])([H:9])[H:10]>>[C:1](/[C:5]([C:2]1([H:11])[C:3]([H:12])([H:13])[C:4]1([H:14])[H:15])=[N:6]\[O:7][H:16])([H:8])([H:9])[H:10]"
C       -0.87527447      -1.14233088       0.57587693
C       -0.40910321       0.07477168      -1.05126901
C       -0.97553377       1.42231299      -0.71166272
C        0.34159277       1.45151407       0.04938949
C        0.55617057      -0.30158023      -0.03610651
N        1.60210291      -1.06000953      -0.17997769
O        2.10234894      -1.39330162       1.08100984
H       -1.86162789      -0.70535554       0.72565201
H       -0.53633100      -1.30015829       1.60543917
H       -0.96282924      -2.13087203       0.12604155
H       -0.17971915      -0.16980546      -2.08392341
H       -1.06435414       2.12016023      -1.54256358
H       -1.89194521       1.44320454      -0.12528859
H        0.27206570       1.69386097       1.10802316
H        1.11561716       2.05280256      -0.42035872
H        2.76682002      -2.05521346       0.87971808
16
Frame=11 idx=006829 GeodesicLength=1.2061214492977652 rxn_smarts="[C:1]([C@@:2]1([H:11])[C:3]([H:12])([H:13])[C:4]([H:14])([H:15])/[C:5]1=[N:6]\[O:7][H:16])([H:8])([H:9])[H:10]>>[C:1](/[C:5]([C:2]1([H:11])[C:3]([H:12])([H:13])[C:4]1([H:14])[H:15])=[N:6]\[O:7][H:16])([H:8])([H:9])[H:10]"
C       -0.89663730      -1.14915002       0.56011420
C       -0.39881709       0.07886144      -1.02191117
C       -0.98179525       1.42414573      -0.69716990
C        0.35412384       1.46999026       0.02762773
C        0.57347156      -0.30500239      -0.01416999
N        1.60672556      -1.06888331      -0.16823324
O        2.12164810      -1.40581286       1.08499618
H       -1.89517566      -0.73252009       0.68716493
H       -0.58854381      -1.29092713       1.60159858
H       -0.96040883      -2.14514229       0.12251957
H       -0.15238691      -0.15044406      -2.05424999
H       -1.10008564       2.10509462      -1.53764913
H       -1.88099396       1.44128982      -0.08571455
H        0.30504618       1.72310998       1.08485610
H        1.11178657       2.07431048      -0.46445979
H        2.78204263      -2.06892018       0.87468047
16
Frame=12 idx=006829 GeodesicLength=1.3157083713001754 rxn_smarts="[C:1]([C@@:2]1([H:11])[C:3]([H:12])([H:13])[C:4]([H:14])([H:15])/[C:5]1=[N:6]\[O:7][H:16])([H:8])([H:9])[H:10]>>[C:1](/[C:5]([C:2]1([H:11])[C:3]([H:12])([H:13])[C:4]1([H:14])[H:15])=[N:6]\[O:7][H:16])([H:8])([H:9])[H:10]"
C       -0.91843030      -1.15618955       0.54335777
C       -0.38821544       0.08322989      -0.99160119
C       -0.98748937       1.42603925      -0.68151591
C        0.36673424       1.48833110       0.00536103
C        0.59035860      -0.30838760       0.00932197
N        1.61098182      -1.07737586      -0.15559174
O        2.14224960      -1.41739676       1.08904944
H       -1.92855494      -0.76040114       0.64506197
H       -0.64314712      -1.28067106       1.59608194
H       -0.95793408      -2.15946245       0.11937852
H       -0.12641150      -0.13204258      -2.02329829
H       -1.13593661       2.08880501      -1.53097647
H       -1.86821780       1.43989315      -0.04472721
H        0.33904930       1.75277131       1.06055657
H        1.10715504       2.09495663      -0.50967808
H        2.79780856      -2.08209934       0.86921969
16
Frame=13 idx=006829 GeodesicLength=1.4253379537876072 rxn_smarts="[C:1]([C@@:2]1([H:11])[C:3]([H:12])([H:13])[C:4]([H:14])([H:15])/[C:5]1=[N:6]\[O:7][H:16])([H:8])([H:9])[H:10]>>[C:1](/[C:5]([C:2]1([H:11])[C:3]([H:12])([H:13])[C:4]1([H:14])[H:15])=[N:6]\[O:7][H:16])([H:8])([H:9])[H:10]"
C       -0.94065978      -1.16340527       0.52552703
C       -0.37734276       0.08784474      -0.96028332
C       -0.99259073       1.42799356      -0.66460924
C        0.37938651       1.50643695      -0.01742408
C        0.60679706      -0.31178745       0.03441738
N        1.61482898      -1.08552916      -0.14197190
O        2.16423517      -1.42790494       1.09317018
H       -1.96144692      -0.78871825       0.59926104
H       -0.70026298      -1.26935824       1.58860376
H       -0.95561980      -2.17373835       0.11665990
H       -0.10178141      -0.11468082      -1.99110717
H       -1.17193840       2.07123482      -1.52231658
H       -1.85353451       1.43892206      -0.00230764
H        0.37411114       1.78269228       1.03505050
H        1.10162524       2.11460168      -0.55601438
H        2.81419320      -2.09460361       0.86334452
16
Frame=14 idx=006829 GeodesicLength=1.5350195432127978 rxn_smarts="[C:1]([C@@:2]1([H:11])[C:3]([H:12])([H:13])[C:4]([H:14])([H:15])/[C:5]1=[N:6]\[O:7][H:16])([H:8])([H:9])[H:10]>>[C:1](/[C:5]([C:2]1([H:11])[C:3]([H:12])([H:13])[C:4]1([H:14])[H:15])=[N:6]\[O:7][H:16])([H:8])([H:9])[H:10]"
C       -0.96335109      -1.17072860       0.50654726
C       -0.36625063       0.09265844      -0.92789858
C       -0.99706294       1.43002535      -0.64640236
C        0.39202126       1.52416270      -0.04070987
C        0.62273122      -0.31528372       0.06115942
N        1.61819328      -1.09342938      -0.12728877
O        2.18774356      -1.43716774       1.09732434
H       -1.99362501      -0.81708391       0.54975660
H       -0.75991295      -1.25706985       1.57889815
H       -0.95375178      -2.18787348       0.11439830
H       -0.07851400      -0.09846649      -1.95770571
H       -1.20800458       2.05238201      -1.51151855
H       -1.83691763       1.43833129       0.04150748
H        0.41020432       1.81266153       1.00828386
H        1.09509989       2.13305321      -0.60339066
H        2.83139708      -2.10617136       0.85703909
16
Frame=15 idx=006829 GeodesicLength=1.64478011248244 rxn_smarts="[C:1]([C@@:2]1([H:11])[C:3]([H:12])([H:13])[C:4]([H:14])([H:15])/[C:5]1=[N:6]\[O:7][H:16])([H:8])([H:9])[H:10]>>[C:1](/[C:5]([C:2]1([H:11])[C:3]([H:12])([H:13])[C:4]1([H:14])[H:15])=[N:6]\[O:7][H:16])([H:8])([H:9])[H:10]"
C       -0.98651267      -1.17807316       0.48634733
C       -0.35498843       0.09761812      -0.89439112
C       -1.00087265       1.43214750      -0.62684675
C        0.40457092       1.54135767      -0.06447602
C        0.63811548      -0.31896955       0.08957915
N        1.62100831      -1.10117988      -0.11145789
O        2.21290868      -1.44500039       1.10147589
H       -2.02481964      -0.84510943       0.49655311
H       -0.82211126      -1.24385119       1.56667529
H       -0.95262970      -2.20175498       0.11263856
H       -0.05662809      -0.08350596      -1.92311695
H       -1.24404976       2.03225015      -1.49841857
H       -1.81835432       1.43805915       0.08666346
H        0.44729822       1.84244141       0.98020704
H        1.08746138       2.15012684      -0.65172235
H        2.84960353      -2.11655630       0.85028980
16
Frame=16 idx=006829 GeodesicLength=1.754667779920214 rxn_smarts="[C:1]([C@@:2]1([H:11])[C:3]([H:12])([H:13])[C:4]([H:14])([H:15])/[C:5]1=[N:6]\[O:7][H:16])([H:8])([H:9])[H:10]>>[C:1](/[C:5]([C:2]1([H:11])[C:3]([H:12])([H:13])[C:4]1([H:14])[H:15])=[N:6]\[O:7][H:16])([H:8])([H:9])[H:10]"
C       -1.01016879      -1.18532536       0.46486068
C       -0.34360928       0.10265614      -0.85970672
C       -1.00398565       1.43437843      -0.60591038
C        0.41695397       1.55784859      -0.08869459
C        0.65289268      -0.32296924       0.11970872
N        1.62318593      -1.10893024      -0.09437460
O        2.23986644      -1.45122671       1.10558552
H       -2.05480095      -0.87236611       0.43967458
H       -0.88684364      -1.22976146       1.55163974
H       -0.95260824      -2.21526283       0.11142919
H       -0.03613654      -0.06991057      -1.88735444
H       -1.27995727       2.01087261      -1.48286634
H       -1.79783246       1.43805906       0.13307922
H        0.48534174       1.87175010       0.95077526
H        1.07859048       2.16560172      -0.70089413
H        2.86911157      -2.12541414       0.84304829
