13
Frame=0 idx=006246 GeodesicLength=0.0 rxn_smarts="[O:1]=[C:2]([N:3]1[C:4]([H:8])([H:9])[C:5]([H:10])([H:11])[C:6]1([H:12])[H:13])[H:7]>>[O:1]=[C:2]([N:3]([C:4]([C:5][H:10])([H:8])[H:9])[C:6]([H:11])([H:12])[H:13])[H:7]"
O        2.19607037       1.32679911      -0.73112693
C        1.70607247       0.25048619      -0.48836611
N        0.42689551       0.06264482      -0.10034820
C       -0.57376876       1.10356689      -0.05622220
C       -1.79875602       0.28949991       0.37338190
C       -0.19011083      -1.22714306       0.10849703
H        2.26654420      -0.70261761      -0.55743209
H       -0.32015169       1.88621088       0.66637286
H       -0.69391182       1.57042266      -1.03707664
H       -1.69397434       0.11671186       1.45738406
H       -1.33859040      -1.06030638      -0.05554080
H        0.03759049      -1.95565136      -0.67379046
H       -0.02390920      -1.66062390       1.09426759
13
Frame=1 idx=006246 GeodesicLength=0.0596997475365117 rxn_smarts="[O:1]=[C:2]([N:3]1[C:4]([H:8])([H:9])[C:5]([H:10])([H:11])[C:6]1([H:12])[H:13])[H:7]>>[O:1]=[C:2]([N:3]([C:4]([C:5][H:10])([H:8])[H:9])[C:6]([H:11])([H:12])[H:13])[H:7]"
O        2.19964715       1.33171532      -0.71103740
C        1.70899448       0.25211025      -0.48333632
N        0.42677158       0.06018984      -0.10957733
C       -0.57533474       1.10006415      -0.06420605
C       -1.78896632       0.29144448       0.39404340
C       -0.19552874      -1.22660117       0.10240217
H        2.27126243      -0.69983922      -0.55077167
H       -0.31637648       1.88611860       0.65386019
H       -0.70913574       1.55825481      -1.04721776
H       -1.67808445       0.12837523       1.47830475
H       -1.35820131      -1.06515217      -0.07413441
H        0.04180091      -1.95596903      -0.67607654
H       -0.02684875      -1.66071111       1.08774697
13
Frame=2 idx=006246 GeodesicLength=0.11944221006207154 rxn_smarts="[O:1]=[C:2]([N:3]1[C:4]([H:8])([H:9])[C:5]([H:10])([H:11])[C:6]1([H:12])[H:13])[H:7]>>[O:1]=[C:2]([N:3]([C:4]([C:5][H:10])([H:8])[H:9])[C:6]([H:11])([H:12])[H:13])[H:7]"
O        2.20302770       1.33659379      -0.69045192
C        1.71188953       0.25373661      -0.47832772
N        0.42681126       0.05770972      -0.11873514
C       -0.57694631       1.09640324      -0.07212908
C       -1.77866710       0.29302154       0.41407557
C       -0.20079344      -1.22608643       0.09645609
H        2.27584906      -0.69708523      -0.54472376
H       -0.31286985       1.88584608       0.64144706
H       -0.72443315       1.54594839      -1.05702722
H       -1.66215551       0.14050533       1.49867378
H       -1.37791843      -1.06954177      -0.09236611
H        0.04570083      -1.95627527      -0.67827295
H       -0.02949460      -1.66077598       1.08138141
13
Frame=3 idx=006246 GeodesicLength=0.17911658047714024 rxn_smarts="[O:1]=[C:2]([N:3]1[C:4]([H:8])([H:9])[C:5]([H:10])([H:11])[C:6]1([H:12])[H:13])[H:7]>>[O:1]=[C:2]([N:3]([C:4]([C:5][H:10])([H:8])[H:9])[C:6]([H:11])([H:12])[H:13])[H:7]"
O        2.20619105       1.34144058      -0.66931854
C        1.71471901       0.25539312      -0.47335022
N        0.42699732       0.05520843      -0.12784311
C       -0.57856016       1.09256500      -0.07999534
C       -1.76784448       0.29422515       0.43346333
C       -0.20590733      -1.22558714       0.09068071
H        2.28024504      -0.69430118      -0.53933729
H       -0.30957689       1.88535330       0.62910629
H       -0.73973063       1.53349281      -1.06647643
H       -1.64618799       0.15304844       1.51841774
H       -1.39774935      -1.07350473      -0.11018755
H        0.04927642      -1.95655169      -0.68032869
H       -0.03187201      -1.66078208       1.07516910
13
Frame=4 idx=006246 GeodesicLength=0.2388523916242887 rxn_smarts="[O:1]=[C:2]([N:3]1[C:4]([H:8])([H:9])[C:5]([H:10])([H:11])[C:6]1([H:12])[H:13])[H:7]>>[O:1]=[C:2]([N:3]([C:4]([C:5][H:10])([H:8])[H:9])[C:6]([H:11])([H:12])[H:13])[H:7]"
O        2.20915878       1.34622213      -0.64760556
C        1.71750378       0.25704930      -0.46848331
N        0.42732343       0.05267366      -0.13695308
C       -0.58021929       1.08857456      -0.08781717
C       -1.75656921       0.29512480       0.45228676
C       -0.21085224      -1.22512506       0.08503447
H        2.28457922      -0.69151231      -0.53444008
H       -0.30650889       1.88469365       0.61683723
H       -0.75512850       1.52090361      -1.07560994
H       -1.63016506       0.16603725       1.53761918
H       -1.41775147      -1.07704608      -0.12761751
H        0.05255259      -1.95683450      -0.68234446
H       -0.03392315      -1.66076101       1.06909346
13
Frame=5 idx=006246 GeodesicLength=0.29863016111961044 rxn_smarts="[O:1]=[C:2]([N:3]1[C:4]([H:8])([H:9])[C:5]([H:10])([H:11])[C:6]1([H:12])[H:13])[H:7]>>[O:1]=[C:2]([N:3]([C:4]([C:5][H:10])([H:8])[H:9])[C:6]([H:11])([H:12])[H:13])[H:7]"
O        2.21192075       1.35091223      -0.62535074
C        1.72024937       0.25870963      -0.46373168
N        0.42778939       0.05010762      -0.14607229
C       -0.58190539       1.08443951      -0.09557326
C       -1.74488068       0.29573993       0.47050144
C       -0.21560656      -1.22469722       0.07954720
H        2.28884511      -0.68871092      -0.53012083
H       -0.30364386       1.88384215       0.60469874
H       -0.77057990       1.50823022      -1.08439250
H       -1.61418538       0.17943702       1.55621859
H       -1.43793401      -1.08019025      -0.14465219
H        0.05557667      -1.95714373      -0.68427091
H       -0.03564550      -1.66067620       1.06319843
13
Frame=6 idx=006246 GeodesicLength=0.358373456935789 rxn_smarts="[O:1]=[C:2]([N:3]1[C:4]([H:8])([H:9])[C:5]([H:10])([H:11])[C:6]1([H:12])[H:13])[H:7]>>[O:1]=[C:2]([N:3]([C:4]([C:5][H:10])([H:8])[H:9])[C:6]([H:11])([H:12])[H:13])[H:7]"
O        2.21444073       1.35550995      -0.60249657
C        1.72290414       0.26039718      -0.45914190
N        0.42837441       0.04751261      -0.15523194
C       -0.58359165       1.08014349      -0.10328562
C       -1.73273813       0.29607229       0.48816700
C       -0.22018669      -1.22429824       0.07420069
H        2.29302072      -0.68584344      -0.52623649
H       -0.30092870       1.88279475       0.59260855
H       -0.78607481       1.49543518      -1.09282248
H       -1.59815597       0.19320710       1.57420305
H       -1.45831823      -1.08294469      -0.16126963
H        0.05831140      -1.95745147      -0.68612424
H       -0.03705721      -1.66053471       1.05742957
13
Frame=7 idx=006246 GeodesicLength=0.4181681590953833 rxn_smarts="[O:1]=[C:2]([N:3]1[C:4]([H:8])([H:9])[C:5]([H:10])([H:11])[C:6]1([H:12])[H:13])[H:7]>>[O:1]=[C:2]([N:3]([C:4]([C:5][H:10])([H:8])[H:9])[C:6]([H:11])([H:12])[H:13])[H:7]"
O        2.21674978       1.35997658      -0.57898949
C        1.72550936       0.26209708      -0.45472793
N        0.42908624       0.04488488      -0.16443935
C       -0.58530287       1.07570595      -0.11095443
C       -1.72021049       0.29617086       0.50529367
C       -0.22456347      -1.22393778       0.06899736
H        2.29716545      -0.68293458      -0.52286350
H       -0.29838902       1.88158394       0.58059415
H       -0.80164371       1.48253287      -1.10093065
H       -1.58214696       0.20736453       1.59159878
H       -1.47894631      -1.08531980      -0.17746403
H        0.06080855      -1.95778782      -0.68793242
H       -0.03811654      -1.66033671       1.05181785
13
Frame=8 idx=006246 GeodesicLength=0.4779897422611401 rxn_smarts="[O:1]=[C:2]([N:3]1[C:4]([H:8])([H:9])[C:5]([H:10])([H:11])[C:6]1([H:12])[H:13])[H:7]>>[O:1]=[C:2]([N:3]([C:4]([C:5][H:10])([H:8])[H:9])[C:6]([H:11])([H:12])[H:13])[H:7]"
O        2.21882593       1.36428831      -0.55483450
C        1.72805696       0.26382110      -0.45049500
N        0.42992083       0.04222724      -0.17369946
C       -0.58702449       1.07112632      -0.11857837
C       -1.70730175       0.29604872       0.52189346
C       -0.22873144      -1.22361359       0.06394036
H        2.30127521      -0.67996254      -0.51998754
H       -0.29600038       1.88020799       0.56864701
H       -0.81726866       1.46952494      -1.10870597
H       -1.56617072       0.22188193       1.60838389
H       -1.49983699      -1.08732299      -0.19323358
H        0.06308329      -1.95814996      -0.68968890
H       -0.03882778      -1.66007746       1.04635861
13
Frame=9 idx=006246 GeodesicLength=0.5378375814282405 rxn_smarts="[O:1]=[C:2]([N:3]1[C:4]([H:8])([H:9])[C:5]([H:10])([H:11])[C:6]1([H:12])[H:13])[H:7]>>[O:1]=[C:2]([N:3]([C:4]([C:5][H:10])([H:8])[H:9])[C:6]([H:11])([H:12])[H:13])[H:7]"
O        2.22065710       1.36841508      -0.53003071
C        1.73054931       0.26557598      -0.44645094
N        0.43087820       0.03954189      -0.18301280
C       -0.58875043       1.06640797      -0.12615616
C       -1.69402673       0.29572462       0.53797951
C       -0.23268051      -1.22332538       0.05903212
H        2.30536028      -0.67691477      -0.51760879
H       -0.29375032       1.87867278       0.55676531
H       -0.83294207       1.45641377      -1.11614687
H       -1.55025364       0.23674052       1.62454995
H       -1.52101402      -1.08895735      -0.20857859
H        0.06515909      -1.95853938      -0.69139544
H       -0.03918627      -1.65975574       1.04105340
13
Frame=10 idx=006246 GeodesicLength=0.5977138452827611 rxn_smarts="[O:1]=[C:2]([N:3]1[C:4]([H:8])([H:9])[C:5]([H:10])([H:11])[C:6]1([H:12])[H:13])[H:7]>>[O:1]=[C:2]([N:3]([C:4]([C:5][H:10])([H:8])[H:9])[C:6]([H:11])([H:12])[H:13])[H:7]"
O        2.22223394       1.37232578      -0.50456062
C        1.73299018       0.26736893      -0.44260174
N        0.43195935       0.03683073      -0.19237764
C       -0.59047627       1.06155348      -0.13368871
C       -1.68039908       0.29521625       0.55356671
C       -0.23640037      -1.22307328       0.05427610
H        2.30942863      -0.67377914      -0.51574404
H       -0.29162981       1.87698707       0.54494200
H       -0.84865803       1.44319696      -1.12325591
H       -1.53442053       0.25192602       1.64009117
H       -1.54250176      -1.09022357      -0.22349968
H        0.06705961      -1.95895825      -0.69305288
H       -0.03918587      -1.65937099       1.03590524
13
Frame=11 idx=006246 GeodesicLength=0.6576294188598468 rxn_smarts="[O:1]=[C:2]([N:3]1[C:4]([H:8])([H:9])[C:5]([H:10])([H:11])[C:6]1([H:12])[H:13])[H:7]>>[O:1]=[C:2]([N:3]([C:4]([C:5][H:10])([H:8])[H:9])[C:6]([H:11])([H:12])[H:13])[H:7]"
O        2.22354905       1.37598538      -0.47841177
C        1.73539075       0.26920432      -0.43894499
N        0.43316798       0.03409457      -0.20178909
C       -0.59220198       1.05656803      -0.14117678
C       -1.66643804       0.29454356       0.56867111
C       -0.23987815      -1.22285929       0.04967658
H        2.31349566      -0.67054853      -0.51442351
H       -0.28963723       1.87516278       0.53317378
H       -0.86441433       1.42987619      -1.13004111
H       -1.51870591       0.26742887       1.65500947
H       -1.56432615      -1.09111721      -0.23800188
H        0.06881591      -1.95941104      -0.69466477
H       -0.03881756      -1.65892762       1.03092297
13
Frame=12 idx=006246 GeodesicLength=0.7175554333618196 rxn_smarts="[O:1]=[C:2]([N:3]1[C:4]([H:8])([H:9])[C:5]([H:10])([H:11])[C:6]1([H:12])[H:13])[H:7]>>[O:1]=[C:2]([N:3]([C:4]([C:5][H:10])([H:8])[H:9])[C:6]([H:11])([H:12])[H:13])[H:7]"
O        2.22460433       1.37935527      -0.45148894
C        1.73774400       0.27110260      -0.43547177
N        0.43450243       0.03133955      -0.21123724
C       -0.59391402       1.05144471      -0.14862810
C       -1.65214135       0.29371445       0.58329090
C       -0.24310437      -1.22268089       0.04524401
H        2.31753328      -0.66719166      -0.51375730
H       -0.28776222       1.87320686       0.52143322
H       -0.88018265       1.41641840      -1.13650749
H       -1.50313890       0.28324712       1.66928447
H       -1.58650468      -1.09165021      -0.25205315
H        0.07043951      -1.95989236      -0.69621104
H       -0.03807539      -1.65841382       1.02610243
13
Frame=13 idx=006246 GeodesicLength=0.7775344487917419 rxn_smarts="[O:1]=[C:2]([N:3]1[C:4]([H:8])([H:9])[C:5]([H:10])([H:11])[C:6]1([H:12])[H:13])[H:7]>>[O:1]=[C:2]([N:3]([C:4]([C:5][H:10])([H:8])[H:9])[C:6]([H:11])([H:12])[H:13])[H:7]"
O        2.22537012       1.38240138      -0.42371796
C        1.74004682       0.27307132      -0.43223342
N        0.43595913       0.02856172      -0.22074916
C       -0.59562257       1.04617817      -0.15606423
C       -1.63749062       0.29274190       0.59749284
C       -0.24608205      -1.22253771       0.04095794
H        2.32157804      -0.66369329      -0.51362951
H       -0.28599988       1.87114114       0.50965724
H       -0.89600886       1.40279587      -1.14267591
H       -1.48764193       0.29936935       1.68293651
H       -1.60909294      -1.09178940      -0.26565989
H        0.07193022      -1.96039812      -0.69773564
H       -0.03694549      -1.65784232       1.02142119
13
Frame=14 idx=006246 GeodesicLength=0.8375708569768738 rxn_smarts="[O:1]=[C:2]([N:3]1[C:4]([H:8])([H:9])[C:5]([H:10])([H:11])[C:6]1([H:12])[H:13])[H:7]>>[O:1]=[C:2]([N:3]([C:4]([C:5][H:10])([H:8])[H:9])[C:6]([H:11])([H:12])[H:13])[H:7]"
O        2.22586580       1.38505547      -0.39496634
C        1.74231604       0.27512189      -0.42921735
N        0.43754369       0.02576397      -0.23031777
C       -0.59733311       1.04077404      -0.16349661
C       -1.62251171       0.29165447       0.61127565
C       -0.24878700      -1.22243550       0.03683265
H        2.32562702      -0.66003750      -0.51422326
H       -0.28436797       1.86898683       0.49783197
H       -0.91188541       1.38899271      -1.14857569
H       -1.47228486       0.31581908       1.69597458
H       -1.63211231      -1.09154349      -0.27879367
H        0.07333084      -1.96094265      -0.69922431
H       -0.03540100      -1.65720932       1.01690015
13
Frame=15 idx=006246 GeodesicLength=0.8976453932312936 rxn_smarts="[O:1]=[C:2]([N:3]1[C:4]([H:8])([H:9])[C:5]([H:10])([H:11])[C:6]1([H:12])[H:13])[H:7]>>[O:1]=[C:2]([N:3]([C:4]([C:5][H:10])([H:8])[H:9])[C:6]([H:11])([H:12])[H:13])[H:7]"
O        2.22605266       1.38727396      -0.36530884
C        1.74455771       0.27726795      -0.42636232
N        0.43926021       0.02294716      -0.23992407
C       -0.59903332       1.03522886      -0.17091602
C       -1.60720373       0.29045492       0.62464285
C       -0.25121215      -1.22237327       0.03287166
H        2.32968059      -0.65619440      -0.51554921
H       -0.28285005       1.86673929       0.48595962
H       -0.92778829       1.37500330      -1.15419172
H       -1.45709864       0.33257571       1.70837722
H       -1.65558214      -1.09088672      -0.29146615
H        0.07466787      -1.96151435      -0.70066817
H       -0.03345074      -1.65652240       1.01253515
13
Frame=16 idx=006246 GeodesicLength=0.957767327421498 rxn_smarts="[O:1]=[C:2]([N:3]1[C:4]([H:8])([H:9])[C:5]([H:10])([H:11])[C:6]1([H:12])[H:13])[H:7]>>[O:1]=[C:2]([N:3]([C:4]([C:5][H:10])([H:8])[H:9])[C:6]([H:11])([H:12])[H:13])[H:7]"
O        2.22591805       1.38900775      -0.33483187
C        1.74678576       0.27951861      -0.42366738
N        0.44112177       0.02011609      -0.24953250
C       -0.60070774       1.02954858      -0.17829776
C       -1.59159765       0.28915031       0.63757216
C       -0.25334020      -1.22235011       0.02910281
H        2.33375465      -0.65214177      -0.51768278
H       -0.28142891       1.86438442       0.47409283
H       -0.94367033       1.36085834      -1.15949835
H       -1.44220355       0.34960862       1.72011368
H       -1.67952324      -1.08981163      -0.30370434
H        0.07598863      -1.96212377      -0.70203069
H       -0.03109725      -1.65576545       1.00836420
