12
Frame=0 idx=003762 GeodesicLength=0.0 rxn_smarts="[C:1]([C@@:2]1([C:5]#[N:6])[C:3]([H:10])([H:11])[N:4]1[H:12])([H:7])([H:8])[H:9]>>[C:1]([C:2][C:3]([N:4]([C:5]#[N:6])[H:12])([H:10])[H:11])([H:7])([H:8])[H:9]"
C        1.62673397      -0.30022120      -0.06216772
C        0.32611144       0.18309800      -0.54151084
C       -0.87592298      -0.69468251      -0.34567258
N       -1.54060522       0.31750608       0.47681945
C       -0.61668283       1.39233409       0.44281072
N       -0.22334319       2.40561025       0.89539648
H        1.92253393      -1.06607655      -0.79593686
H        1.57992250      -0.81754761       0.90485504
H        2.38294321       0.48221376      -0.03205315
H       -1.37205827      -0.88774275      -1.30063340
H       -0.75847057      -1.63175656       0.20696526
H       -2.45116200       0.61726504       0.15112759
12
Frame=1 idx=003762 GeodesicLength=0.08174179531350752 rxn_smarts="[C:1]([C@@:2]1([C:5]#[N:6])[C:3]([H:10])([H:11])[N:4]1[H:12])([H:7])([H:8])[H:9]>>[C:1]([C:2][C:3]([N:4]([C:5]#[N:6])[H:12])([H:10])[H:11])([H:7])([H:8])[H:9]"
C        1.62361068      -0.31150726      -0.06774171
C        0.31838309       0.17823285      -0.53014780
C       -0.87585610      -0.70354538      -0.33521042
N       -1.53720451       0.32177020       0.46829037
C       -0.61500830       1.41846289       0.44746487
N       -0.23563676       2.43494688       0.90090932
H        1.93626580      -1.04283961      -0.82815247
H        1.58345129      -0.85959150       0.88213468
H        2.36765386       0.48127021      -0.00570542
H       -1.36727578      -0.90844245      -1.29002498
H       -0.75695457      -1.63247774       0.23020703
H       -2.44142871       0.62372092       0.12797653
12
Frame=2 idx=003762 GeodesicLength=0.16338431981867088 rxn_smarts="[C:1]([C@@:2]1([C:5]#[N:6])[C:3]([H:10])([H:11])[N:4]1[H:12])([H:7])([H:8])[H:9]>>[C:1]([C:2][C:3]([N:4]([C:5]#[N:6])[H:12])([H:10])[H:11])([H:7])([H:8])[H:9]"
C        1.62048697      -0.32288919      -0.07364117
C        0.31072557       0.17330461      -0.51853074
C       -0.87577742      -0.71250799      -0.32450692
N       -1.53351319       0.32586128       0.45984104
C       -0.61313118       1.44463341       0.45217468
N       -0.24894572       2.46487541       0.90581640
H        1.94960716      -1.01789857      -0.85963569
H        1.58703802      -0.90181755       0.85764551
H        2.35237560       0.47850522       0.02152567
H       -1.36245254      -0.92915211      -1.27903769
H       -0.75543572      -1.63306849       0.25365624
H       -2.43097755       0.63015396       0.10469267
12
Frame=3 idx=003762 GeodesicLength=0.24490885418190791 rxn_smarts="[C:1]([C@@:2]1([C:5]#[N:6])[C:3]([H:10])([H:11])[N:4]1[H:12])([H:7])([H:8])[H:9]>>[C:1]([C:2][C:3]([N:4]([C:5]#[N:6])[H:12])([H:10])[H:11])([H:7])([H:8])[H:9]"
C        1.61736877      -0.33436573      -0.07984648
C        0.30317719       0.16832009      -0.50666642
C       -0.87567018      -0.72153098      -0.31358276
N       -1.52950068       0.32974308       0.45154587
C       -0.61105226       1.47085900       0.45691063
N       -0.26335234       2.49542189       0.90998259
H        1.96253756      -0.99130236      -0.89030569
H        1.59059636      -0.94413251       0.83139578
H        2.33717287       0.47379760       0.04962376
H       -1.35759886      -0.94977342      -1.26769280
H       -0.75388077      -1.63353100       0.27721683
H       -2.41979766       0.63649433       0.08141869
12
Frame=4 idx=003762 GeodesicLength=0.32633808702331146 rxn_smarts="[C:1]([C@@:2]1([C:5]#[N:6])[C:3]([H:10])([H:11])[N:4]1[H:12])([H:7])([H:8])[H:9]>>[C:1]([C:2][C:3]([N:4]([C:5]#[N:6])[H:12])([H:10])[H:11])([H:7])([H:8])[H:9]"
C        1.61425771      -0.34595062      -0.08634113
C        0.29576979       0.16328027      -0.49455419
C       -0.87552489      -0.73058473      -0.30244481
N       -1.52515453       0.33339321       0.44346689
C       -0.60876554       1.49716207       0.46165017
N       -0.27892598       2.52660944       0.91327596
H        1.97506162      -0.96300069      -0.92006231
H        1.59404928      -0.98649248       0.80334765
H        2.32210478       0.46700120       0.07856864
H       -1.35272589      -0.97024170      -1.25599866
H       -0.75226370      -1.63386684       0.30083127
H       -2.40788266       0.64269086       0.05826052
12
Frame=5 idx=003762 GeodesicLength=0.40760832895510823 rxn_smarts="[C:1]([C@@:2]1([C:5]#[N:6])[C:3]([H:10])([H:11])[N:4]1[H:12])([H:7])([H:8])[H:9]>>[C:1]([C:2][C:3]([N:4]([C:5]#[N:6])[H:12])([H:10])[H:11])([H:7])([H:8])[H:9]"
C        1.61115381      -0.35763292      -0.09313386
C        0.28852826       0.15819272      -0.48222356
C       -0.87533101      -0.73963555      -0.29112033
N       -1.52044879       0.33679001       0.43567037
C       -0.60627566       1.52354687       0.46635531
N       -0.29570032       2.55839757       0.91560693
H        1.98719005      -0.93307001      -0.94874475
H        1.59731505      -1.02875454       0.77349734
H        2.30720980       0.45802187       0.10831226
H       -1.34785789      -0.99047549      -1.24398399
H       -0.75054473      -1.63408590       0.32440819
H       -2.39523857       0.64870537       0.03535608
12
Frame=6 idx=003762 GeodesicLength=0.4887661956101307 rxn_smarts="[C:1]([C@@:2]1([C:5]#[N:6])[C:3]([H:10])([H:11])[N:4]1[H:12])([H:7])([H:8])[H:9]>>[C:1]([C:2][C:3]([N:4]([C:5]#[N:6])[H:12])([H:10])[H:11])([H:7])([H:8])[H:9]"
C        1.60805579      -0.36939783      -0.10021745
C        0.28147480       0.15306910      -0.46967651
C       -0.87508038      -0.74865457      -0.27961212
N       -1.51538582       0.33992266       0.42821164
C       -0.60358594       1.55006131       0.47098294
N       -0.31372721       2.59077734       0.91687340
H        1.99895688      -0.90147092      -0.97618223
H        1.60032304      -1.07088662       0.74176183
H        2.29254561       0.44670019       0.13880226
H       -1.34300700      -1.01042491      -1.23165723
H       -0.74868811      -1.63418862       0.34790706
H       -2.38188164       0.65449287       0.01280642
12
Frame=7 idx=003762 GeodesicLength=0.5697592398362569 rxn_smarts="[C:1]([C@@:2]1([C:5]#[N:6])[C:3]([H:10])([H:11])[N:4]1[H:12])([H:7])([H:8])[H:9]>>[C:1]([C:2][C:3]([N:4]([C:5]#[N:6])[H:12])([H:10])[H:11])([H:7])([H:8])[H:9]"
C        1.60495944      -0.38121674      -0.10759379
C        0.27462603       0.14792437      -0.45693772
C       -0.87476180      -0.75761265      -0.26794190
N       -1.50995786       0.34278537       0.42113423
C       -0.60071487       1.57672317       0.47549758
N       -0.33302465       2.62366697       0.91705209
H        2.01038470      -0.86828435      -1.00216096
H        1.60299666      -1.11272591       0.70813248
H        2.27815194       0.43291893       0.16989164
H       -1.33818345      -1.03003419      -1.21904282
H       -0.74664777      -1.63418026       0.37126655
H       -2.36782837       0.66003529      -0.00929737
12
Frame=8 idx=003762 GeodesicLength=0.6506254363383147 rxn_smarts="[C:1]([C@@:2]1([C:5]#[N:6])[C:3]([H:10])([H:11])[N:4]1[H:12])([H:7])([H:8])[H:9]>>[C:1]([C:2][C:3]([N:4]([C:5]#[N:6])[H:12])([H:10])[H:11])([H:7])([H:8])[H:9]"
C        1.60185723      -0.39305901      -0.11528449
C        0.26799241       0.14277355      -0.44403051
C       -0.87437092      -0.76648291      -0.25611220
N       -1.50416728       0.34538313       0.41448309
C       -0.59768394       1.60359795       0.47982229
N       -0.35360370       2.65700051       0.91610276
H        2.02156529      -0.83352455      -1.02642017
H        1.60526055      -1.15421199       0.67249091
H        2.26405135       0.41654963       0.20148533
H       -1.33340826      -1.04927274      -1.20614132
H       -0.74438047      -1.63405819       0.39446254
H       -2.35311226       0.66530463      -0.03085822
12
Frame=9 idx=003762 GeodesicLength=0.7312802164246748 rxn_smarts="[C:1]([C@@:2]1([C:5]#[N:6])[C:3]([H:10])([H:11])[N:4]1[H:12])([H:7])([H:8])[H:9]>>[C:1]([C:2][C:3]([N:4]([C:5]#[N:6])[H:12])([H:10])[H:11])([H:7])([H:8])[H:9]"
C        1.59878559      -0.40480179      -0.12325668
C        0.26159571       0.13766611      -0.43099559
C       -0.87388802      -0.77521984      -0.24415859
N       -1.49797359       0.34770652       0.40836243
C       -0.59447858       1.63072934       0.48385272
N       -0.37541314       2.69067651       0.91388757
H        2.03263674      -0.79756665      -1.04873465
H        1.60707857      -1.19528610       0.63467934
H        2.24997177       0.39771253       0.23362815
H       -1.32872497      -1.06802805      -1.19301776
H       -0.74180918      -1.63384459       0.41736783
H       -2.33778089       0.67025602      -0.05161478
12
Frame=10 idx=003762 GeodesicLength=0.8118300676359406 rxn_smarts="[C:1]([C@@:2]1([C:5]#[N:6])[C:3]([H:10])([H:11])[N:4]1[H:12])([H:7])([H:8])[H:9]>>[C:1]([C:2][C:3]([N:4]([C:5]#[N:6])[H:12])([H:10])[H:11])([H:7])([H:8])[H:9]"
C        1.59571125      -0.41651472      -0.13149482
C        0.25545128       0.13258014      -0.41779907
C       -0.87330637      -0.78382680      -0.23205775
N       -1.49141659       0.34976047       0.40276369
C       -0.59114047       1.65817773       0.48755581
N       -0.39849220       2.72465033       0.91044016
H        2.04355487      -0.76014453      -1.06901385
H        1.60832436      -1.23580029       0.59477702
H        2.23618502       0.37610024       0.26607619
H       -1.32409771      -1.08633534      -1.17963963
H       -0.73891756      -1.63354305       0.44003066
H       -2.32185588       0.67489580      -0.07163843
12
Frame=11 idx=003762 GeodesicLength=0.8922305468520969 rxn_smarts="[C:1]([C@@:2]1([C:5]#[N:6])[C:3]([H:10])([H:11])[N:4]1[H:12])([H:7])([H:8])[H:9]>>[C:1]([C:2][C:3]([N:4]([C:5]#[N:6])[H:12])([H:10])[H:11])([H:7])([H:8])[H:9]"
C        1.59262563      -0.42814082      -0.14000387
C        0.24956219       0.12753513      -0.40449414
C       -0.87261643      -0.79228510      -0.21984046
N       -1.48449267       0.35154627       0.39771774
C       -0.58769943       1.68599271       0.49080252
N       -0.42274099       2.75875555       0.90584063
H        2.05436330      -0.72146844      -1.08705033
H        1.60891704      -1.27551412       0.55284612
H        2.22267129       0.35171192       0.29866268
H       -1.31954822      -1.10416062      -1.16604083
H       -0.73564854      -1.63316769       0.46238682
H       -2.30539316       0.67919522      -0.09082687
12
Frame=12 idx=003762 GeodesicLength=0.9725296365190347 rxn_smarts="[C:1]([C@@:2]1([C:5]#[N:6])[C:3]([H:10])([H:11])[N:4]1[H:12])([H:7])([H:8])[H:9]>>[C:1]([C:2][C:3]([N:4]([C:5]#[N:6])[H:12])([H:10])[H:11])([H:7])([H:8])[H:9]"
C        1.58952939      -0.43966328      -0.14876948
C        0.24394726       0.12254454      -0.39106251
C       -0.87180356      -0.80057844      -0.20750078
N       -1.47719561       0.35306520       0.39328283
C       -0.58418054       1.71423741       0.49352529
N       -0.44817023       2.79295765       0.89998437
H        2.06514137      -0.68154071      -1.10262610
H        1.60877885      -1.31435484       0.50876746
H        2.20941586       0.32440357       0.33128997
H       -1.31507510      -1.12146869      -1.15222795
H       -0.73195484      -1.63274229       0.48440888
H       -2.28843286       0.68313989      -0.10907199
12
Frame=13 idx=003762 GeodesicLength=1.0526304272276497 rxn_smarts="[C:1]([C@@:2]1([C:5]#[N:6])[C:3]([H:10])([H:11])[N:4]1[H:12])([H:7])([H:8])[H:9]>>[C:1]([C:2][C:3]([N:4]([C:5]#[N:6])[H:12])([H:10])[H:11])([H:7])([H:8])[H:9]"
C        1.58643559      -0.45096366      -0.15776112
C        0.23859908       0.11765686      -0.37761298
C       -0.87085629      -0.80867782      -0.19513556
N       -1.46951571       0.35430180       0.38950708
C       -0.58059782       1.74295654       0.49553340
N       -0.47461449       2.82699826       0.89313324
H        2.07598756      -0.64106438      -1.11559377
H        1.60787463      -1.35194094       0.46285450
H        2.19626538       0.29451293       0.36366261
H       -1.31072658      -1.13815751      -1.13832182
H       -0.72777684      -1.63231418       0.50591601
H       -2.27107450       0.68669211      -0.12618157
12
Frame=14 idx=003762 GeodesicLength=1.132705112734864 rxn_smarts="[C:1]([C@@:2]1([C:5]#[N:6])[C:3]([H:10])([H:11])[N:4]1[H:12])([H:7])([H:8])[H:9]>>[C:1]([C:2][C:3]([N:4]([C:5]#[N:6])[H:12])([H:10])[H:11])([H:7])([H:8])[H:9]"
C        1.58332679      -0.46208569      -0.16697881
C        0.23353734       0.11285961      -0.36405024
C       -0.86976001      -0.81659018      -0.18266361
N       -1.46147927       0.35527532       0.38641922
C       -0.57700253       1.77224581       0.49677320
N       -0.50212785       2.86095108       0.88507937
H        2.08694361      -0.59961383      -1.12574807
H        1.60610720      -1.38831442       0.41479209
H        2.18334154       0.26158837       0.39577379
H       -1.30645734      -1.15428379      -1.12424102
H       -0.72307835      -1.63188407       0.52701985
H       -2.25335113       0.68985180      -0.14217579
12
Frame=15 idx=003762 GeodesicLength=1.2127396772766612 rxn_smarts="[C:1]([C@@:2]1([C:5]#[N:6])[C:3]([H:10])([H:11])[N:4]1[H:12])([H:7])([H:8])[H:9]>>[C:1]([C:2][C:3]([N:4]([C:5]#[N:6])[H:12])([H:10])[H:11])([H:7])([H:8])[H:9]"
C        1.58019910      -0.47296410      -0.17641895
C        0.22875546       0.10816763      -0.35045100
C       -0.86850344      -0.82431138      -0.17012232
N       -1.45309329       0.35599647       0.38400112
C       -0.57345032       1.80218605       0.49698971
N       -0.53052726       2.89458242       0.87616634
H        2.09803395      -0.55758991      -1.13296289
H        1.60343043      -1.42316244       0.36482878
H        2.17057872       0.22581212       0.42734040
H       -1.30227563      -1.16985557      -1.11002311
H       -0.71781197      -1.63146465       0.54767538
H       -2.23533576       0.69260335      -0.15702346
12
Frame=16 idx=003762 GeodesicLength=1.2928275353765029 rxn_smarts="[C:1]([C@@:2]1([C:5]#[N:6])[C:3]([H:10])([H:11])[N:4]1[H:12])([H:7])([H:8])[H:9]>>[C:1]([C:2][C:3]([N:4]([C:5]#[N:6])[H:12])([H:10])[H:11])([H:7])([H:8])[H:9]"
C        1.57706870      -0.48358523      -0.18607164
C        0.22427285       0.10360055      -0.33671883
C       -0.86706555      -0.83183099      -0.15747158
N       -1.44434948       0.35645218       0.38238503
C       -0.56994461       1.83281824       0.49620510
N       -0.55988369       2.92802188       0.86596666
H        2.10940368      -0.51487838      -1.13709634
H        1.59981409      -1.45654391       0.31260627
H        2.15786617       0.18693167       0.45853448
H       -1.29817286      -1.18480485      -1.09565908
H       -0.71192425      -1.63111216       0.56785788
H       -2.21708505       0.69493100      -0.17053795
