13
Frame=0 idx=003883 GeodesicLength=0.0 rxn_smarts="[O:1]([C:2]([C:3]([N:4]([C:5](=[O:6])[H:13])[H:12])([H:10])[H:11])([H:8])[H:9])[H:7]>>[N:4](=[C:5](/[O:6][H:7])[H:13])\[H:12].[O:1]=[C:2]([C:3]([H:8])([H:10])[H:11])[H:9]"
O       -1.01647138      -0.80314570       1.39934536
C       -1.31685601      -0.76335799       0.15113257
C       -0.92199993       0.31613193      -0.68381250
N        1.19519949       0.24958331      -0.74154522
C        1.78148460       0.30556333       0.40533516
O        1.22137150       0.11760026       1.54289594
H        0.16862874      -0.27244745       1.51329798
H       -2.28174446       0.02010771      -0.21088350
H       -1.61227847      -1.68832140      -0.35975866
H       -0.80136998       1.29060019      -0.23295283
H       -1.09139882       0.24406688      -1.74973055
H        1.82555881       0.44886403      -1.50705701
H        2.84987595       0.53475495       0.47373327
13
Frame=1 idx=003883 GeodesicLength=0.057901968531017596 rxn_smarts="[O:1]([C:2]([C:3]([N:4]([C:5](=[O:6])[H:13])[H:12])([H:10])[H:11])([H:8])[H:9])[H:7]>>[N:4](=[C:5](/[O:6][H:7])[H:13])\[H:12].[O:1]=[C:2]([C:3]([H:8])([H:10])[H:11])[H:9]"
O       -1.01887415      -0.79395856       1.40481220
C       -1.32539104      -0.76086335       0.15698489
C       -0.92479110       0.31870166      -0.68303494
N        1.19197506       0.26475153      -0.73740656
C        1.78898560       0.30731526       0.40569712
O        1.23655722       0.10900602       1.54437921
H        0.17118719      -0.27706477       1.52153011
H       -2.29216720       0.01625978      -0.24082601
H       -1.61730702      -1.69338079      -0.34260906
H       -0.82705907       1.29774057      -0.23478661
H       -1.06167595       0.22757800      -1.75218850
H        1.81425935       0.47802928      -1.50559401
H        2.86430110       0.50588537       0.46304217
13
Frame=2 idx=003883 GeodesicLength=0.11577324229239186 rxn_smarts="[O:1]([C:2]([C:3]([N:4]([C:5](=[O:6])[H:13])[H:12])([H:10])[H:11])([H:8])[H:9])[H:7]>>[N:4](=[C:5](/[O:6][H:7])[H:13])\[H:12].[O:1]=[C:2]([C:3]([H:8])([H:10])[H:11])[H:9]"
O       -1.02103633      -0.78481495       1.41014562
C       -1.33410100      -0.75814687       0.16286271
C       -0.92748740       0.32135020      -0.68232163
N        1.18882639       0.28002809      -0.73287643
C        1.79676255       0.30878415       0.40609822
O        1.25203309       0.09987596       1.54572882
H        0.17376971      -0.28172221       1.52979498
H       -2.30185480       0.01187895      -0.27157377
H       -1.62269529      -1.69804413      -0.32528534
H       -0.85313653       1.30469300      -0.23723159
H       -1.03208041       0.21177165      -1.75343070
H        1.80316278       0.50642710      -1.50354783
H        2.87783724       0.47791905       0.45163692
13
Frame=3 idx=003883 GeodesicLength=0.17359403603598073 rxn_smarts="[O:1]([C:2]([C:3]([N:4]([C:5](=[O:6])[H:13])[H:12])([H:10])[H:11])([H:8])[H:9])[H:7]>>[N:4](=[C:5](/[O:6][H:7])[H:13])\[H:12].[O:1]=[C:2]([C:3]([H:8])([H:10])[H:11])[H:9]"
O       -1.02295232      -0.77578506       1.41532424
C       -1.34300627      -0.75519137       0.16875476
C       -0.93009596       0.32412712      -0.68163055
N        1.18573789       0.29539226      -0.72794210
C        1.80481417       0.30985035       0.40651705
O        1.26780594       0.09011250       1.54692322
H        0.17637941      -0.28648741       1.53809508
H       -2.31075359       0.00699565      -0.30306508
H       -1.62848880      -1.70225572      -0.30786128
H       -0.87958282       1.31146526      -0.24023713
H       -1.00267990       0.19675044      -1.75347414
H        1.79234071       0.53364696      -1.50100599
H        2.89048153       0.45137900       0.43960193
13
Frame=4 idx=003883 GeodesicLength=0.23135608737226107 rxn_smarts="[O:1]([C:2]([C:3]([N:4]([C:5](=[O:6])[H:13])[H:12])([H:10])[H:11])([H:8])[H:9])[H:7]>>[N:4](=[C:5](/[O:6][H:7])[H:13])\[H:12].[O:1]=[C:2]([C:3]([H:8])([H:10])[H:11])[H:9]"
O       -1.02462787      -0.76697380       1.42031856
C       -1.35215242      -0.75197245       0.17464239
C       -0.93262197       0.32709821      -0.68090964
N        1.18270073       0.31076064      -0.72259831
C        1.81313604       0.31036226       0.40692400
O        1.28390385       0.07950537       1.54793124
H        0.17902743      -0.29150424       1.54642197
H       -2.31881655       0.00170617      -0.33520504
H       -1.63480351      -1.70593597      -0.29044112
H       -0.90633653       1.31807367      -0.24371637
H       -0.97355160       0.18265309      -1.75233613
H        1.78190180       0.55904293      -1.49812133
H        2.90224060       0.42718412       0.42708979
13
Frame=5 idx=003883 GeodesicLength=0.28901702773482574 rxn_smarts="[O:1]([C:2]([C:3]([N:4]([C:5](=[O:6])[H:13])[H:12])([H:10])[H:11])([H:8])[H:9])[H:7]>>[N:4](=[C:5](/[O:6][H:7])[H:13])\[H:12].[O:1]=[C:2]([C:3]([H:8])([H:10])[H:11])[H:9]"
O       -1.02606831      -0.75848685       1.42508582
C       -1.36159261      -0.74845178       0.18050591
C       -0.93506858       0.33032727      -0.68010398
N        1.17971050       0.32599125      -0.71684312
C        1.82170860       0.31016332       0.40728396
O        1.30036044       0.06778416       1.54869505
H        0.18173898      -0.29697588       1.55473818
H       -2.32600024      -0.00383898      -0.36787685
H       -1.64179738      -1.70897694      -0.27313022
H       -0.93331128       1.32453233      -0.24758653
H       -0.94478311       0.16959177      -1.75002623
H        1.77193843       0.58190490      -1.49506814
H        2.91316455       0.40643543       0.41432615
13
Frame=6 idx=003883 GeodesicLength=0.3466285885042691 rxn_smarts="[O:1]([C:2]([C:3]([N:4]([C:5](=[O:6])[H:13])[H:12])([H:10])[H:11])([H:8])[H:9])[H:7]>>[N:4](=[C:5](/[O:6][H:7])[H:13])\[H:12].[O:1]=[C:2]([C:3]([H:8])([H:10])[H:11])[H:9]"
O       -1.02725703      -0.75015502       1.42970473
C       -1.37122006      -0.74468192       0.18638996
C       -0.93751288       0.33377484      -0.67925486
N        1.17670029       0.34158024      -0.71060568
C        1.83045464       0.30967938       0.40764651
O        1.31706485       0.05545850       1.54926520
H        0.18445053      -0.30251131       1.56312862
H       -2.33227126      -0.01001405      -0.40120087
H       -1.64911291      -1.71156056      -0.25580331
H       -0.96082790       1.33082840      -0.25200557
H       -0.91634433       0.15738921      -1.74663727
H        1.76227044       0.60328686      -1.49177061
H        2.92360564       0.38692542       0.40114316
13
Frame=7 idx=003883 GeodesicLength=0.40417560016880544 rxn_smarts="[O:1]([C:2]([C:3]([N:4]([C:5](=[O:6])[H:13])[H:12])([H:10])[H:11])([H:8])[H:9])[H:7]>>[N:4](=[C:5](/[O:6][H:7])[H:13])\[H:12].[O:1]=[C:2]([C:3]([H:8])([H:10])[H:11])[H:9]"
O       -1.02823252      -0.74181043       1.43423225
C       -1.38101344      -0.74065349       0.19234792
C       -0.93995276       0.33737264      -0.67839691
N        1.17367199       0.35767326      -0.70384831
C        1.83936713       0.30889274       0.40799327
O        1.33398664       0.04262917       1.54962155
H        0.18712601      -0.30794136       1.57162521
H       -2.33754517      -0.01696913      -0.43522872
H       -1.65669580      -1.71373036      -0.23830278
H       -0.98897236       1.33689817      -0.25715454
H       -0.88815442       0.14583597      -1.74221722
H        1.75274672       0.62404561      -1.48810589
H        2.93366799       0.36775722       0.38743416
13
Frame=8 idx=003883 GeodesicLength=0.4616843871204022 rxn_smarts="[O:1]([C:2]([C:3]([N:4]([C:5](=[O:6])[H:13])[H:12])([H:10])[H:11])([H:8])[H:9])[H:7]>>[N:4](=[C:5](/[O:6][H:7])[H:13])\[H:12].[O:1]=[C:2]([C:3]([H:8])([H:10])[H:11])[H:9]"
O       -1.02898688      -0.73362103       1.43861594
C       -1.39102155      -0.73633439       0.19833516
C       -0.94240334       0.34125046      -0.67745627
N        1.17060525       0.37419715      -0.69653528
C        1.84842358       0.30778496       0.40832407
O        1.35118875       0.02894551       1.54972172
H        0.18981235      -0.31353250       1.58020464
H       -2.34177049      -0.02454573      -0.46982748
H       -1.66468377      -1.71537981      -0.22081484
H       -1.01767129       1.34279328      -0.26287412
H       -0.86029642       0.13519798      -1.73676598
H        1.74350939       0.64295585      -1.48433683
H        2.94329442       0.35028828       0.37340926
13
Frame=9 idx=003883 GeodesicLength=0.5190773494649406 rxn_smarts="[O:1]([C:2]([C:3]([N:4]([C:5](=[O:6])[H:13])[H:12])([H:10])[H:11])([H:8])[H:9])[H:7]>>[N:4](=[C:5](/[O:6][H:7])[H:13])\[H:12].[O:1]=[C:2]([C:3]([H:8])([H:10])[H:11])[H:9]"
O       -1.02949424      -0.72578871       1.44275330
C       -1.40127735      -0.73169104       0.20429204
C       -0.94487727       0.34553332      -0.67633215
N        1.16749103       0.39109738      -0.68862230
C        1.85757524       0.30641699       0.40865004
O        1.36869407       0.01413719       1.54947769
H        0.19257097      -0.31961874       1.58877528
H       -2.34490299      -0.03253308      -0.50480376
H       -1.67322956      -1.71636484      -0.20355677
H       -1.04686228       1.34854248      -0.26898196
H       -0.83286823       0.12572735      -1.73024238
H        1.73469128       0.65864650      -1.48078089
H        2.95248931       0.33589518       0.35937186
13
Frame=10 idx=003883 GeodesicLength=0.5764346995351997 rxn_smarts="[O:1]([C:2]([C:3]([N:4]([C:5](=[O:6])[H:13])[H:12])([H:10])[H:11])([H:8])[H:9])[H:7]>>[N:4](=[C:5](/[O:6][H:7])[H:13])\[H:12].[O:1]=[C:2]([C:3]([H:8])([H:10])[H:11])[H:9]"
O       -1.02977037      -0.71818035       1.44672316
C       -1.41170888      -0.72675499       0.21025455
C       -0.94740050       0.35020772      -0.67505851
N        1.16430421       0.40873827      -0.68004222
C        1.86680258       0.30488973       0.40897853
O        1.38643516      -0.00152031       1.54891336
H        0.19535977      -0.32597569       1.59742009
H       -2.34685223      -0.04116049      -0.54022721
H       -1.68212673      -1.71681274      -0.18643345
H       -1.07671530       1.35412775      -0.27561349
H       -0.80579294       0.11732910      -1.72271894
H        1.72609466       0.67182291      -1.47737007
H        2.96137056       0.32328910       0.34517420
13
Frame=11 idx=003883 GeodesicLength=0.6337266176086918 rxn_smarts="[O:1]([C:2]([C:3]([N:4]([C:5](=[O:6])[H:13])[H:12])([H:10])[H:11])([H:8])[H:9])[H:7]>>[N:4](=[C:5](/[O:6][H:7])[H:13])\[H:12].[O:1]=[C:2]([C:3]([H:8])([H:10])[H:11])[H:9]"
O       -1.02983891      -0.71061783       1.45056658
C       -1.42223818      -0.72153413       0.21625430
C       -0.94997941       0.35523128      -0.67366101
N        1.16103059       0.42746253      -0.67068403
C        1.87608912       0.30322229       0.40929986
O        1.40434874      -0.01781726       1.54801188
H        0.19812249      -0.33234089       1.60619158
H       -2.34748755      -0.05066375      -0.57616540
H       -1.69116899      -1.71679701      -0.16931641
H       -1.10739407       1.35946465      -0.28294722
H       -0.77894085       0.10987294      -1.71420081
H        1.71748492       0.68331117      -1.47394361
H        2.96997210       0.31120602       0.33059429
13
Frame=12 idx=003883 GeodesicLength=0.6909450086371531 rxn_smarts="[O:1]([C:2]([C:3]([N:4]([C:5](=[O:6])[H:13])[H:12])([H:10])[H:11])([H:8])[H:9])[H:7]>>[N:4](=[C:5](/[O:6][H:7])[H:13])\[H:12].[O:1]=[C:2]([C:3]([H:8])([H:10])[H:11])[H:9]"
O       -1.02975402      -0.70312280       1.45428250
C       -1.43300523      -0.71594709       0.22232307
C       -0.95253684       0.36055479      -0.67215297
N        1.15779137       0.44661350      -0.66068451
C        1.88544394       0.30115629       0.40953755
O        1.42250654      -0.03522072       1.54662436
H        0.20092593      -0.33909266       1.61499768
H       -2.34675166      -0.06070381      -0.61241754
H       -1.70085494      -1.71614959      -0.15216647
H       -1.13851565       1.36451390      -0.29109919
H       -0.75235555       0.10320370      -1.70471657
H        1.70876865       0.69299566      -1.47050522
H        2.97833746       0.30119883       0.31597732
13
Frame=13 idx=003883 GeodesicLength=0.7481170656107489 rxn_smarts="[O:1]([C:2]([C:3]([N:4]([C:5](=[O:6])[H:13])[H:12])([H:10])[H:11])([H:8])[H:9])[H:7]>>[N:4](=[C:5](/[O:6][H:7])[H:13])\[H:12].[O:1]=[C:2]([C:3]([H:8])([H:10])[H:11])[H:9]"
O       -1.02953462      -0.69556094       1.45792833
C       -1.44396238      -0.70999539       0.22849711
C       -0.95506920       0.36614058      -0.67057174
N        1.15458839       0.46633153      -0.64999304
C        1.89484875       0.29866435       0.40965629
O        1.44084425      -0.05359278       1.54473229
H        0.20372037      -0.34603656       1.62390832
H       -2.34451805      -0.07146176      -0.64901693
H       -1.71107442      -1.71492871      -0.13486373
H       -1.17014881       1.36920759      -0.30023226
H       -0.72593747       0.09722273      -1.69429357
H        1.69975308       0.70164479      -1.46691166
H        2.98649010       0.29236459       0.30116060
13
Frame=14 idx=003883 GeodesicLength=0.8052669021026948 rxn_smarts="[O:1]([C:2]([C:3]([N:4]([C:5](=[O:6])[H:13])[H:12])([H:10])[H:11])([H:8])[H:9])[H:7]>>[N:4](=[C:5](/[O:6][H:7])[H:13])\[H:12].[O:1]=[C:2]([C:3]([H:8])([H:10])[H:11])[H:9]"
O       -1.02934054      -0.68736501       1.46169870
C       -1.45524004      -0.70355509       0.23497962
C       -0.95748236       0.37164489      -0.66913515
N        1.15153346       0.48606154      -0.63874135
C        1.90436301       0.29531561       0.40950571
O        1.45939691      -0.07323757       1.54217361
H        0.20647085      -0.35300207       1.63295408
H       -2.34066212      -0.08312656      -0.68603435
H       -1.72214221      -1.71310721      -0.11678605
H       -1.20205551       1.37333941      -0.31108554
H       -0.69947731       0.09107449      -1.68298395
H        1.69014263       0.71232879      -1.46242188
H        2.99449322       0.28362877       0.28587654
13
Frame=15 idx=003883 GeodesicLength=0.8624082706168594 rxn_smarts="[O:1]([C:2]([C:3]([N:4]([C:5](=[O:6])[H:13])[H:12])([H:10])[H:11])([H:8])[H:9])[H:7]>>[N:4](=[C:5](/[O:6][H:7])[H:13])\[H:12].[O:1]=[C:2]([C:3]([H:8])([H:10])[H:11])[H:9]"
O       -1.02921808      -0.67824741       1.46567807
C       -1.46685247      -0.69657218       0.24185459
C       -0.95977336       0.37693481      -0.66794662
N        1.14860075       0.50577041      -0.62688048
C        1.91398408       0.29092079       0.40899498
O        1.47810619      -0.09416946       1.53888165
H        0.20912299      -0.35974868       1.64221576
H       -2.33504571      -0.09600451      -0.72349311
H       -1.73406365      -1.71068452      -0.09764478
H       -1.23426164       1.37675982      -0.32402161
H       -0.67282746       0.08446249      -1.67077286
H        1.67991897       0.72663752      -1.45667120
H        3.00230936       0.27394092       0.26980562
13
Frame=16 idx=003883 GeodesicLength=0.9195478039827389 rxn_smarts="[O:1]([C:2]([C:3]([N:4]([C:5](=[O:6])[H:13])[H:12])([H:10])[H:11])([H:8])[H:9])[H:7]>>[N:4](=[C:5](/[O:6][H:7])[H:13])\[H:12].[O:1]=[C:2]([C:3]([H:8])([H:10])[H:11])[H:9]"
O       -1.02912593      -0.66830722       1.46981070
C       -1.47884870      -0.68899229       0.24910710
C       -0.96194185       0.38205220      -0.66699036
N        1.14578400       0.52532245      -0.61441436
C        1.92366183       0.28567706       0.40812803
O        1.49694421      -0.11651024       1.53474117
H        0.21175692      -0.36661898       1.65159846
H       -2.32761765      -0.11000745      -0.76116776
H       -1.74706954      -1.70752219      -0.07750518
H       -1.26664821       1.37944839      -0.33906888
H       -0.64602440       0.07744398      -1.65761156
H        1.66923301       0.74401029      -1.44970828
H        3.00989630       0.26400402       0.25308093
