12
Frame=0 idx=000968 GeodesicLength=0.0 rxn_smarts="[C:1]([c:2]1[c:3]([H:10])[o:4][c:5]([H:11])[c:6]1[H:12])([H:7])([H:8])[H:9]>>[C:1](=[C:2]1[C:3]([H:8])([H:10])[O:4][C:5]([H:11])=[C:6]1[H:12])([H:7])[H:9]"
C       -1.74443734      -0.05170546      -0.22345670
C       -0.33061119      -0.11072056      -0.30275407
C        0.14479232       1.02601671       0.37729352
O        1.47172095       0.74743809       0.79066437
C        1.77642470      -0.42218174       0.20713874
C        0.78374739      -0.96432432      -0.54748597
H       -2.39542606      -0.38698509      -1.02836813
H       -1.22522729       1.15787869       0.66190573
H       -2.15761194      -0.22984021       0.76196415
H        0.11484846       1.98842106      -0.12591292
H        2.74524123      -0.82788144       0.46192081
H        0.81653872      -1.92611576      -1.03290948
12
Frame=1 idx=000968 GeodesicLength=0.04636601988981815 rxn_smarts="[C:1]([c:2]1[c:3]([H:10])[o:4][c:5]([H:11])[c:6]1[H:12])([H:7])([H:8])[H:9]>>[C:1](=[C:2]1[C:3]([H:8])([H:10])[O:4][C:5]([H:11])=[C:6]1[H:12])([H:7])[H:9]"
C       -1.74210047      -0.05275469      -0.22569544
C       -0.32886495      -0.09919578      -0.31647662
C        0.15022760       1.03170920       0.37464422
O        1.47722758       0.75128677       0.78321747
C        1.78000451      -0.41981934       0.20082995
C        0.77834862      -0.97093832      -0.53319494
H       -2.38709469      -0.35966320      -1.04651207
H       -1.23103603       1.14637992       0.68462844
H       -2.16689913      -0.26292169       0.74819831
H        0.11701142       1.99942416      -0.11843410
H        2.75693430      -0.81650821       0.43922568
H        0.79624122      -1.94699880      -0.99043091
12
Frame=2 idx=000968 GeodesicLength=0.0927412236555549 rxn_smarts="[C:1]([c:2]1[c:3]([H:10])[o:4][c:5]([H:11])[c:6]1[H:12])([H:7])([H:8])[H:9]>>[C:1](=[C:2]1[C:3]([H:8])([H:10])[O:4][C:5]([H:11])=[C:6]1[H:12])([H:7])[H:9]"
C       -1.73966216      -0.05395911      -0.22808280
C       -0.32708038      -0.08835764      -0.32913086
C        0.15568903       1.03728265       0.37210426
O        1.48281649       0.75504344       0.77583914
C        1.78380619      -0.41727670       0.19401825
C        0.77269134      -0.97748051      -0.51790112
H       -2.37848156      -0.33161938      -1.06396276
H       -1.23662730       1.13387600       0.70743707
H       -2.17700860      -0.29582046       0.73262027
H        0.11938071       2.00993373      -0.11136790
H        2.76856962      -0.80501080       0.41527570
H        0.77590660      -1.96661121      -0.94684925
12
Frame=3 idx=000968 GeodesicLength=0.13908188603486377 rxn_smarts="[C:1]([c:2]1[c:3]([H:10])[o:4][c:5]([H:11])[c:6]1[H:12])([H:7])([H:8])[H:9]>>[C:1](=[C:2]1[C:3]([H:8])([H:10])[O:4][C:5]([H:11])=[C:6]1[H:12])([H:7])[H:9]"
C       -1.73711792      -0.05553629      -0.23019196
C       -0.32526342      -0.07807166      -0.34093107
C        0.16123391       1.04295439       0.36927303
O        1.48870777       0.75917201       0.76774739
C        1.78779656      -0.41446731       0.18655587
C        0.76706335      -0.98340908      -0.50248140
H       -2.36984355      -0.30333619      -1.07994267
H       -1.24186823       1.12041933       0.73029275
H       -2.18740833      -0.32874052       0.71584153
H        0.12175352       2.02009324      -0.10517477
H        2.77894813      -0.79482630       0.39261655
H        0.75599821      -1.98425163      -0.90360525
12
Frame=4 idx=000968 GeodesicLength=0.18535354542649615 rxn_smarts="[C:1]([c:2]1[c:3]([H:10])[o:4][c:5]([H:11])[c:6]1[H:12])([H:7])([H:8])[H:9]>>[C:1](=[C:2]1[C:3]([H:8])([H:10])[O:4][C:5]([H:11])=[C:6]1[H:12])([H:7])[H:9]"
C       -1.73453161      -0.05726428      -0.23235542
C       -0.32346074      -0.06851636      -0.35168349
C        0.16677876       1.04848426       0.36653744
O        1.49456303       0.76308922       0.75989345
C        1.79158252      -0.41202654       0.17955366
C        0.76133802      -0.98907271      -0.48630576
H       -2.36091383      -0.27464107      -1.09502352
H       -1.24692500       1.10615045       0.75302245
H       -2.19865117      -0.36118166       0.69730966
H        0.12447292       2.02971176      -0.09956995
H        2.78947634      -0.78425510       0.36821507
H        0.73627076      -2.00047796      -0.85959360
12
Frame=5 idx=000968 GeodesicLength=0.23170470333489157 rxn_smarts="[C:1]([c:2]1[c:3]([H:10])[o:4][c:5]([H:11])[c:6]1[H:12])([H:7])([H:8])[H:9]>>[C:1](=[C:2]1[C:3]([H:8])([H:10])[O:4][C:5]([H:11])=[C:6]1[H:12])([H:7])[H:9]"
C       -1.73194291      -0.05937414      -0.23412263
C       -0.32168565      -0.05954356      -0.36162283
C        0.17238869       1.05415759       0.36349388
O        1.50062159       0.76728411       0.75156671
C        1.79521948      -0.40986168       0.17289684
C        0.75578087      -0.99406987      -0.47024610
H       -2.35206499      -0.24609607      -1.10842197
H       -1.25169735       1.09124636       0.77560096
H       -2.21026907      -0.39335842       0.67769597
H        0.12738110       2.03906461      -0.09504015
H        2.79907252      -0.77471889       0.34475734
H        0.71719573      -2.01473005      -0.81655802
12
Frame=6 idx=000968 GeodesicLength=0.2778767805003483 rxn_smarts="[C:1]([c:2]1[c:3]([H:10])[o:4][c:5]([H:11])[c:6]1[H:12])([H:7])([H:8])[H:9]>>[C:1](=[C:2]1[C:3]([H:8])([H:10])[O:4][C:5]([H:11])=[C:6]1[H:12])([H:7])[H:9]"
C       -1.72928012      -0.06202860      -0.23510995
C       -0.31999935      -0.05104489      -0.37092274
C        0.17806583       1.06010617       0.35978603
O        1.50684122       0.77201548       0.74227295
C        1.79854195      -0.40795686       0.16666734
C        0.75054336      -0.99805279      -0.45494775
H       -2.34348614      -0.21799460      -1.11961648
H       -1.25603907       1.07585089       0.79795137
H       -2.22165527      -0.42539208       0.65768640
H        0.13034889       2.04815122      -0.09207030
H        2.80696081      -0.76715961       0.32421986
H        0.69915790      -2.02649433      -0.77591673
12
Frame=7 idx=000968 GeodesicLength=0.3241050190590505 rxn_smarts="[C:1]([c:2]1[c:3]([H:10])[o:4][c:5]([H:11])[c:6]1[H:12])([H:7])([H:8])[H:9]>>[C:1](=[C:2]1[C:3]([H:8])([H:10])[O:4][C:5]([H:11])=[C:6]1[H:12])([H:7])[H:9]"
C       -1.72666141      -0.06509696      -0.23552040
C       -0.31841888      -0.04305674      -0.37952511
C        0.18380139       1.06627354       0.35563138
O        1.51315726       0.77702662       0.73257456
C        1.80155789      -0.40649949       0.16130910
C        0.74551691      -1.00137642      -0.43997393
H       -2.33517851      -0.19033322      -1.12888765
H       -1.26007459       1.06010571       0.82005486
H       -2.23326222      -0.45707842       0.63688259
H        0.13360569       2.05703887      -0.09044211
H        2.81401120      -0.76064266       0.30511049
H        0.68194527      -2.03636084      -0.73721379
12
Frame=8 idx=000968 GeodesicLength=0.37028489468268044 rxn_smarts="[C:1]([c:2]1[c:3]([H:10])[o:4][c:5]([H:11])[c:6]1[H:12])([H:7])([H:8])[H:9]>>[C:1](=[C:2]1[C:3]([H:8])([H:10])[O:4][C:5]([H:11])=[C:6]1[H:12])([H:7])[H:9]"
C       -1.72406782      -0.06836082      -0.23582068
C       -0.31689545      -0.03563252      -0.38734066
C        0.18952039       1.07238825       0.35145990
O        1.51928539       0.78181416       0.72334623
C        1.80417073      -0.40570998       0.15732144
C        0.74056658      -1.00442419      -0.42463625
H       -2.32676834      -0.16246355      -1.13701477
H       -1.26399010       1.04387639       0.84189770
H       -2.24547230      -0.48828588       0.61449362
H        0.13735376       2.06551648      -0.08959625
H        2.82125640      -0.75353445       0.28420152
H        0.66504076      -2.04518389      -0.69831182
12
Frame=9 idx=000968 GeodesicLength=0.41642545539085674 rxn_smarts="[C:1]([c:2]1[c:3]([H:10])[o:4][c:5]([H:11])[c:6]1[H:12])([H:7])([H:8])[H:9]>>[C:1](=[C:2]1[C:3]([H:8])([H:10])[O:4][C:5]([H:11])=[C:6]1[H:12])([H:7])[H:9]"
C       -1.72149573      -0.07201183      -0.23558879
C       -0.31547838      -0.02864664      -0.39456792
C        0.19527194       1.07866442       0.34690147
O        1.52537346       0.78671996       0.71395531
C        1.80653792      -0.40524709       0.15411723
C        0.73581893      -1.00691458      -0.40956675
H       -2.31861289      -0.13488980      -1.14331684
H       -1.26764089       1.02732815       0.86351457
H       -2.25782236      -0.51913909       0.59116686
H        0.14143597       2.07378052      -0.08996539
H        2.82775177      -0.74715267       0.26429769
H        0.64886027      -2.05249135      -0.66094745
12
Frame=10 idx=000968 GeodesicLength=0.46253834250851694 rxn_smarts="[C:1]([c:2]1[c:3]([H:10])[o:4][c:5]([H:11])[c:6]1[H:12])([H:7])([H:8])[H:9]>>[C:1](=[C:2]1[C:3]([H:8])([H:10])[O:4][C:5]([H:11])=[C:6]1[H:12])([H:7])[H:9]"
C       -1.71896580      -0.07611754      -0.23466368
C       -0.31421236      -0.02206680      -0.40124714
C        0.20106510       1.08518343       0.34184604
O        1.53138088       0.79178176       0.70442085
C        1.80863208      -0.40510464       0.15182014
C        0.73128315      -1.00883045      -0.39484454
H       -2.31087287      -0.10794103      -1.14756366
H       -1.27103242       1.01070481       0.88482203
H       -2.27019285      -0.54954654       0.56714903
H        0.14592362       2.08190378      -0.09176433
H        2.83338880      -0.74175410       0.24601615
H        0.63360267      -2.05821269      -0.62599090
12
Frame=11 idx=000968 GeodesicLength=0.5085087482125128 rxn_smarts="[C:1]([c:2]1[c:3]([H:10])[o:4][c:5]([H:11])[c:6]1[H:12])([H:7])([H:8])[H:9]>>[C:1](=[C:2]1[C:3]([H:8])([H:10])[O:4][C:5]([H:11])=[C:6]1[H:12])([H:7])[H:9]"
C       -1.71649771      -0.08074318      -0.23289884
C       -0.31314841      -0.01582707      -0.40741902
C        0.20687017       1.09199580       0.33612996
O        1.53725803       0.79709161       0.69464909
C        1.81043329      -0.40519291       0.15036637
C        0.72696672      -1.01011920      -0.38067811
H       -2.30352252      -0.08156710      -1.14969738
H       -1.27417403       0.99418849       0.90575843
H       -2.28227116      -0.57966828       0.54301355
H        0.15075615       2.08983310      -0.09525854
H        2.83795147      -0.73764919       0.23026311
H        0.61937799      -2.06234208      -0.59422862
12
Frame=12 idx=000968 GeodesicLength=0.5544325805927132 rxn_smarts="[C:1]([c:2]1[c:3]([H:10])[o:4][c:5]([H:11])[c:6]1[H:12])([H:7])([H:8])[H:9]>>[C:1](=[C:2]1[C:3]([H:8])([H:10])[O:4][C:5]([H:11])=[C:6]1[H:12])([H:7])[H:9]"
C       -1.71409280      -0.08580425      -0.23039954
C       -0.31228625      -0.00991568      -0.41313067
C        0.21269968       1.09906476       0.32987671
O        1.54301333       0.80252773       0.68475928
C        1.81206404      -0.40536671       0.14945106
C        0.72282417      -1.01089712      -0.36686214
H       -2.29667321      -0.05581051      -1.14977851
H       -1.27705632       0.97769365       0.92649565
H       -2.29426852      -0.60936888       0.51825050
H        0.15597409       2.09767298      -0.10018914
H        2.84173601      -0.73457623       0.21657520
H        0.60606577      -2.06521974      -0.56504840
12
Frame=13 idx=000968 GeodesicLength=0.6002960506652962 rxn_smarts="[C:1]([c:2]1[c:3]([H:10])[o:4][c:5]([H:11])[c:6]1[H:12])([H:7])([H:8])[H:9]>>[C:1](=[C:2]1[C:3]([H:8])([H:10])[O:4][C:5]([H:11])=[C:6]1[H:12])([H:7])[H:9]"
C       -1.71174672      -0.09119047      -0.22742924
C       -0.31157316      -0.00438110      -0.41830099
C        0.21852777       1.10622949       0.32332289
O        1.54855442       0.80785282       0.67517784
C        1.81350355      -0.40574011       0.14934784
C        0.71877789      -1.01139833      -0.35294752
H       -2.29006612      -0.03027419      -1.14823749
H       -1.27981485       0.96111103       0.94706161
H       -2.30642157      -0.63856548       0.49235047
H        0.16166295       2.10527398      -0.10626186
H        2.84522460      -0.73160552       0.20310316
H        0.59337125      -2.06731211      -0.53718671
12
Frame=14 idx=000968 GeodesicLength=0.6461506948015899 rxn_smarts="[C:1]([c:2]1[c:3]([H:10])[o:4][c:5]([H:11])[c:6]1[H:12])([H:7])([H:8])[H:9]>>[C:1](=[C:2]1[C:3]([H:8])([H:10])[O:4][C:5]([H:11])=[C:6]1[H:12])([H:7])[H:9]"
C       -1.70946722      -0.09688310      -0.22406270
C       -0.31100165       0.00080926      -0.42297788
C        0.22434622       1.11348373       0.31650461
O        1.55390476       0.81309964       0.66589125
C        1.81481996      -0.40622169       0.14985192
C        0.71481625      -1.01166003      -0.33889937
H       -2.28368226      -0.00473971      -1.14514135
H       -1.28245932       0.94431705       0.96756365
H       -2.31868100      -0.66736573       0.46512644
H        0.16777214       2.11266506      -0.11337516
H        2.84845708      -0.72868691       0.18969285
H        0.58117504      -2.06881758      -0.51017425
12
Frame=15 idx=000968 GeodesicLength=0.6920126924845229 rxn_smarts="[C:1]([c:2]1[c:3]([H:10])[o:4][c:5]([H:11])[c:6]1[H:12])([H:7])([H:8])[H:9]>>[C:1](=[C:2]1[C:3]([H:8])([H:10])[O:4][C:5]([H:11])=[C:6]1[H:12])([H:7])[H:9]"
C       -1.70724954      -0.10282639      -0.22051378
C       -0.31050678       0.00556794      -0.42704502
C        0.23015306       1.12069297       0.30964270
O        1.55900783       0.81808218       0.65728296
C        1.81598681      -0.40692912       0.15127316
C        0.71087008      -1.01187567      -0.32425366
H       -2.27723309       0.02097958      -1.14084023
H       -1.28513572       0.92721428       0.98800876
H       -2.33125465      -0.69556157       0.43609983
H        0.17440983       2.11971767      -0.12129490
H        2.85168500      -0.72503589       0.17462906
H        0.56926717      -2.07002598      -0.48298887
12
Frame=16 idx=000968 GeodesicLength=0.7378093451479228 rxn_smarts="[C:1]([c:2]1[c:3]([H:10])[o:4][c:5]([H:11])[c:6]1[H:12])([H:7])([H:8])[H:9]>>[C:1](=[C:2]1[C:3]([H:8])([H:10])[O:4][C:5]([H:11])=[C:6]1[H:12])([H:7])[H:9]"
C       -1.70508535      -0.10919795      -0.21630808
C       -0.31024241       0.01013156      -0.43085001
C        0.23593757       1.12811992       0.30220713
O        1.56399474       0.82324915       0.64834681
C        1.81713145      -0.40737685       0.15250065
C        0.70708800      -1.01160629      -0.31008975
H       -2.27132839       0.04660971      -1.13443819
H       -1.28749471       0.90982290       1.00858012
H       -2.34343903      -0.72351330       0.40606088
H        0.18122003       2.12669996      -0.13047196
H        2.85416791      -0.72249841       0.16199132
H        0.55805020      -2.07044040      -0.45752892
