9
Frame=0 idx=000018 GeodesicLength=0.0 rxn_smarts="[O:1]([c+:2]1[n-:3][c:4]([H:8])[n:5][n:6]1[H:9])[H:7]>>[O:1]([C:2]1=[N:3][C@@:4]1(/[N:5]=[N:6]/[H:9])[H:8])[H:7]"
O       -1.73867765      -0.61742591      -0.33976870
C       -0.49634261      -0.49306071       0.04895677
N        0.41727756      -1.18705334       0.51281519
C        1.11994980      -0.15261034      -0.35019346
N        1.09661925       1.13159631       0.03703982
N       -0.12582920       1.36254090       0.36080676
H       -1.96498299      -1.55697776      -0.36927462
H        1.87818019      -0.55242201      -1.00541493
H       -0.18619435       2.06541288       1.10503319
9
Frame=1 idx=000018 GeodesicLength=0.025433372887298 rxn_smarts="[O:1]([c+:2]1[n-:3][c:4]([H:8])[n:5][n:6]1[H:9])[H:7]>>[O:1]([C:2]1=[N:3][C@@:4]1(/[N:5]=[N:6]/[H:9])[H:8])[H:7]"
O       -1.74033459      -0.61969953      -0.34892433
C       -0.49791092      -0.48947350       0.04074968
N        0.41614776      -1.18929559       0.50123393
C        1.12249618      -0.15535153      -0.35008961
N        1.10121881       1.12807083       0.04850707
N       -0.12278634       1.35330736       0.37330890
H       -1.97068188      -1.55852860      -0.35205790
H        1.88347074      -0.54676311      -1.00719409
H       -0.19161975       2.07773367       1.09446635
9
Frame=2 idx=000018 GeodesicLength=0.05080815084910777 rxn_smarts="[O:1]([c+:2]1[n-:3][c:4]([H:8])[n:5][n:6]1[H:9])[H:7]>>[O:1]([C:2]1=[N:3][C@@:4]1(/[N:5]=[N:6]/[H:9])[H:8])[H:7]"
O       -1.74200715      -0.62199799      -0.35738537
C       -0.49937462      -0.48601401       0.03283151
N        0.41521138      -1.19186287       0.48940062
C        1.12498316      -0.15813006      -0.35001359
N        1.10580725       1.12424538       0.06047717
N       -0.11961145       1.34357996       0.38687886
H       -1.97613022      -1.55944293      -0.33539017
H        1.88856227      -0.54085188      -1.00920971
H       -0.19744063       2.09047440       1.08241068
9
Frame=3 idx=000018 GeodesicLength=0.07612129213617808 rxn_smarts="[O:1]([c+:2]1[n-:3][c:4]([H:8])[n:5][n:6]1[H:9])[H:7]>>[O:1]([C:2]1=[N:3][C@@:4]1(/[N:5]=[N:6]/[H:9])[H:8])[H:7]"
O       -1.74357570      -0.62427641      -0.36562978
C       -0.50069437      -0.48270564       0.02501013
N        0.41447283      -1.19484770       0.47706465
C        1.12748276      -0.16089887      -0.34997576
N        1.11039844       1.12009204       0.07311579
N       -0.11628379       1.33321742       0.40176890
H       -1.98163931      -1.55960954      -0.31857059
H        1.89362868      -0.53452097      -1.01141143
H       -0.20378954       2.10354967       1.06862810
9
Frame=4 idx=000018 GeodesicLength=0.10137108951399426 rxn_smarts="[O:1]([c+:2]1[n-:3][c:4]([H:8])[n:5][n:6]1[H:9])[H:7]>>[O:1]([C:2]1=[N:3][C@@:4]1(/[N:5]=[N:6]/[H:9])[H:8])[H:7]"
O       -1.74526766      -0.62636753      -0.37269689
C       -0.50188234      -0.47952135       0.01762678
N        0.41396695      -1.19835065       0.46423691
C        1.12992654      -0.16369911      -0.34996095
N        1.11516850       1.11543856       0.08677514
N       -0.11260389       1.32214734       0.41832066
H       -1.98680771      -1.55916916      -0.30261206
H        1.89836733      -0.52774370      -1.01407226
H       -0.21086771       2.11726560       1.05238267
9
Frame=5 idx=000018 GeodesicLength=0.1265544202471179 rxn_smarts="[O:1]([c+:2]1[n-:3][c:4]([H:8])[n:5][n:6]1[H:9])[H:7]>>[O:1]([C:2]1=[N:3][C@@:4]1(/[N:5]=[N:6]/[H:9])[H:8])[H:7]"
O       -1.74669408      -0.62828212      -0.37998982
C       -0.50281823      -0.47657940       0.01018390
N        0.41374838      -1.20265037       0.45023964
C        1.13250142      -0.16640966      -0.34998992
N        1.12008192       1.11020752       0.10187684
N       -0.10858951       1.30994495       0.43721958
H       -1.99250001      -1.55762280      -0.28554859
H        1.90324630      -0.52005150      -1.01705452
H       -0.21897619       2.13144338       1.03306288
9
Frame=6 idx=000018 GeodesicLength=0.15164952966267642 rxn_smarts="[O:1]([c+:2]1[n-:3][c:4]([H:8])[n:5][n:6]1[H:9])[H:7]>>[O:1]([C:2]1=[N:3][C@@:4]1(/[N:5]=[N:6]/[H:9])[H:8])[H:7]"
O       -1.74814221      -0.62963736      -0.38617499
C       -0.50344729      -0.47383267       0.00306244
N        0.41389996      -1.20794345       0.43491210
C        1.13518868      -0.16905647      -0.35001278
N        1.12546894       1.10407386       0.11913589
N       -0.10386261       1.29637984       0.45920649
H       -1.99828457      -1.55497153      -0.26851156
H        1.90788487      -0.51125842      -1.02077420
H       -0.22870577       2.14624620       1.00915660
9
Frame=7 idx=000018 GeodesicLength=0.1765299883054715 rxn_smarts="[O:1]([c+:2]1[n-:3][c:4]([H:8])[n:5][n:6]1[H:9])[H:7]>>[O:1]([C:2]1=[N:3][C@@:4]1(/[N:5]=[N:6]/[H:9])[H:8])[H:7]"
O       -1.74947339      -0.63025328      -0.39172992
C       -0.50371806      -0.47118128      -0.00387515
N        0.41443129      -1.21418901       0.41794130
C        1.13807058      -0.17148871      -0.35005351
N        1.13132289       1.09705589       0.13861990
N       -0.09829518       1.28121794       0.48495243
H       -2.00451513      -1.55077051      -0.25062075
H        1.91254390      -0.50107834      -1.02507366
H       -0.24036689       2.16068729       0.97983935
9
Frame=8 idx=000018 GeodesicLength=0.20089900418610884 rxn_smarts="[O:1]([c+:2]1[n-:3][c:4]([H:8])[n:5][n:6]1[H:9])[H:7]>>[O:1]([C:2]1=[N:3][C@@:4]1(/[N:5]=[N:6]/[H:9])[H:8])[H:7]"
O       -1.75118095      -0.62983439      -0.39509228
C       -0.50395345      -0.46795235      -0.00980439
N        0.41502594      -1.22005183       0.40116444
C        1.14078663      -0.17370908      -0.35009690
N        1.13741382       1.08992484       0.15814599
N       -0.09188680       1.26572800       0.51276288
H       -2.00982547      -1.54599390      -0.23471039
H        1.91667119      -0.49065348      -1.02956315
H       -0.25305091       2.17254220       0.94719378
9
Frame=9 idx=000018 GeodesicLength=0.22509348183216302 rxn_smarts="[O:1]([c+:2]1[n-:3][c:4]([H:8])[n:5][n:6]1[H:9])[H:7]>>[O:1]([C:2]1=[N:3][C@@:4]1(/[N:5]=[N:6]/[H:9])[H:8])[H:7]"
O       -1.75309857      -0.62840370      -0.39717787
C       -0.50409908      -0.46386293      -0.01540062
N        0.41554196      -1.22481229       0.38509482
C        1.14354209      -0.17567439      -0.35013725
N        1.14369452       1.08308486       0.17675756
N       -0.08493326       1.25066442       0.54036389
H       -2.01455048      -1.54038055      -0.21951333
H        1.92071896      -0.48046017      -1.03366618
H       -0.26681615       2.17984475       0.91367898
9
Frame=10 idx=000018 GeodesicLength=0.2493610524389816 rxn_smarts="[O:1]([c+:2]1[n-:3][c:4]([H:8])[n:5][n:6]1[H:9])[H:7]>>[O:1]([C:2]1=[N:3][C@@:4]1(/[N:5]=[N:6]/[H:9])[H:8])[H:7]"
O       -1.75545897      -0.62606203      -0.39722706
C       -0.50445219      -0.45875095      -0.01986558
N        0.41578341      -1.22813262       0.37069956
C        1.14596881      -0.17746519      -0.35016602
N        1.15004805       1.07681129       0.19381496
N       -0.07756928       1.23676643       0.56703136
H       -2.01785568      -1.53505243      -0.20707156
H        1.92409288      -0.47099421      -1.03753473
H       -0.28055703       2.18287970       0.88031907
9
Frame=11 idx=000018 GeodesicLength=0.2736828522435106 rxn_smarts="[O:1]([c+:2]1[n-:3][c:4]([H:8])[n:5][n:6]1[H:9])[H:7]>>[O:1]([C:2]1=[N:3][C@@:4]1(/[N:5]=[N:6]/[H:9])[H:8])[H:7]"
O       -1.75796941      -0.62406982      -0.39753254
C       -0.50519784      -0.45261290      -0.02444358
N        0.41541342      -1.22893124       0.35934083
C        1.14814531      -0.17925783      -0.35031130
N        1.15568324       1.07214435       0.20659444
N       -0.07113548       1.22553733       0.58793861
H       -2.02009778      -1.53043764      -0.19575990
H        1.92768364      -0.46372236      -1.03988304
H       -0.29252508       2.18135011       0.85405649
9
Frame=12 idx=000018 GeodesicLength=0.2980617879216281 rxn_smarts="[O:1]([c+:2]1[n-:3][c:4]([H:8])[n:5][n:6]1[H:9])[H:7]>>[O:1]([C:2]1=[N:3][C@@:4]1(/[N:5]=[N:6]/[H:9])[H:8])[H:7]"
O       -1.76061327      -0.62235007      -0.39778084
C       -0.50623957      -0.44584808      -0.02890375
N        0.41464682      -1.22815153       0.35013010
C        1.15006459      -0.18111817      -0.35053784
N        1.16080446       1.06854019       0.21652244
N       -0.06533360       1.21609739       0.60509736
H       -2.02143356      -1.52655893      -0.18575559
H        1.93123451      -0.45801039      -1.04134664
H       -0.30313037       2.17739960       0.83257476
9
Frame=13 idx=000018 GeodesicLength=0.32249064871452576 rxn_smarts="[O:1]([c+:2]1[n-:3][c:4]([H:8])[n:5][n:6]1[H:9])[H:7]>>[O:1]([C:2]1=[N:3][C@@:4]1(/[N:5]=[N:6]/[H:9])[H:8])[H:7]"
O       -1.76324740      -0.62090025      -0.39824806
C       -0.50745052      -0.43872748      -0.03336061
N        0.41364451      -1.22644836       0.34217730
C        1.15182072      -0.18301018      -0.35082592
N        1.16558355       1.06553492       0.22485461
N       -0.06003223       1.20775167       0.61982091
H       -2.02229630      -1.52302676      -0.17624971
H        1.93478544      -0.45317474      -1.04226860
H       -0.31280777       2.17200119       0.81410009
9
Frame=14 idx=000018 GeodesicLength=0.34695071376662506 rxn_smarts="[O:1]([c+:2]1[n-:3][c:4]([H:8])[n:5][n:6]1[H:9])[H:7]>>[O:1]([C:2]1=[N:3][C@@:4]1(/[N:5]=[N:6]/[H:9])[H:8])[H:7]"
O       -1.76588844      -0.61967528      -0.39882166
C       -0.50879802      -0.43134842      -0.03781291
N        0.41245961      -1.22404353       0.33523291
C        1.15342775      -0.18494945      -0.35118369
N        1.17007124       1.06301924       0.23186209
N       -0.05512779       1.20025941       0.63260964
H       -2.02274630      -1.51982306      -0.16725252
H        1.93834303      -0.44909868      -1.04274309
H       -0.32174108       2.16565978       0.79810923
9
Frame=15 idx=000018 GeodesicLength=0.37142655756241055 rxn_smarts="[O:1]([c+:2]1[n-:3][c:4]([H:8])[n:5][n:6]1[H:9])[H:7]>>[O:1]([C:2]1=[N:3][C@@:4]1(/[N:5]=[N:6]/[H:9])[H:8])[H:7]"
O       -1.76845629      -0.61872272      -0.39974457
C       -0.51022447      -0.42381776      -0.04240941
N        0.41115027      -1.22115905       0.32894037
C        1.15494497      -0.18691496      -0.35161359
N        1.17430067       1.06084227       0.23795843
N       -0.05062626       1.19337098       0.64384205
H       -2.02300736      -1.51671493      -0.15824236
H        1.94200338      -0.44553787      -1.04283123
H       -0.33008490       2.15865404       0.78410030
9
Frame=16 idx=000018 GeodesicLength=0.39591488594117086 rxn_smarts="[O:1]([c+:2]1[n-:3][c:4]([H:8])[n:5][n:6]1[H:9])[H:7]>>[O:1]([C:2]1=[N:3][C@@:4]1(/[N:5]=[N:6]/[H:9])[H:8])[H:7]"
O       -1.77093482      -0.61802692      -0.40102907
C       -0.51169912      -0.41619037      -0.04718778
N        0.40975240      -1.21792829       0.32310436
C        1.15639646      -0.18890038      -0.35211787
N        1.17830454       1.05891813       0.24336588
N       -0.04648471       1.18692618       0.65382062
H       -2.02316005      -1.51359956      -0.14906844
H        1.94579509      -0.44236726      -1.04258321
H       -0.33796977       2.15116848       0.77169551
