17
Frame=0 idx=011428 GeodesicLength=0.0 rxn_smarts="[C:1]1([H:8])([H:9])[C:2]([H:10])([H:11])[C:3]1([C@@:4]1([H:13])[C:5]([H:14])([H:15])[C:6]([H:16])([H:17])[O:7]1)[H:12]>>[C:1]1([H:8])([H:9])[C:2]([H:10])([H:11])[C:3]1([C:4][H:13])[H:12].[C:5]1([H:14])([H:15])[C:6]([H:16])([H:17])[O:7]1"
C       -1.64579762       0.01281914       1.24299611
C       -1.71763543       0.58182847      -0.15577929
C       -1.22744603      -0.81117522       0.06083189
C        0.10780708      -1.33889997      -0.29336630
C        1.62803029      -0.07668742      -1.06519014
C        2.13114428       0.90140437      -0.12638849
O        1.19522088       0.05949298       0.53500392
H       -0.86679015       0.39295786       1.88895294
H       -2.57569699      -0.23413074       1.73959487
H       -2.69203735       0.73211182      -0.60291226
H       -0.98654778       1.33955274      -0.40901308
H       -1.92699200      -1.59751020      -0.23095924
H        0.47762433      -2.00152669       0.49622334
H        2.23762095      -0.92973343      -1.31564767
H        0.91574301       0.23621857      -1.81168402
H        3.14274633       0.79680424       0.26200668
H        1.80300619       1.93647355      -0.21466918
17
Frame=1 idx=011428 GeodesicLength=0.06413385878546943 rxn_smarts="[C:1]1([H:8])([H:9])[C:2]([H:10])([H:11])[C:3]1([C@@:4]1([H:13])[C:5]([H:14])([H:15])[C:6]([H:16])([H:17])[O:7]1)[H:12]>>[C:1]1([H:8])([H:9])[C:2]([H:10])([H:11])[C:3]1([C:4][H:13])[H:12].[C:5]1([H:14])([H:15])[C:6]([H:16])([H:17])[O:7]1"
C       -1.64203380       0.01351906       1.24727782
C       -1.72479776       0.59226902      -0.14406948
C       -1.23935691      -0.80697640       0.05448073
C        0.09748032      -1.32404923      -0.29945984
C        1.65071462      -0.09618748      -1.05865238
C        2.11913834       0.90963396      -0.12825425
O        1.20856150       0.04933864       0.54294315
H       -0.85299327       0.38178218       1.88801949
H       -2.56689326      -0.23713835       1.75122899
H       -2.70280060       0.74831700      -0.58119060
H       -0.99171790       1.34607687      -0.40235057
H       -1.94533633      -1.58704447      -0.23710633
H        0.44934022      -2.02569165       0.46491978
H        2.28304440      -0.93837746      -1.29136494
H        0.96091930       0.20039961      -1.83316344
H        3.13299353       0.84047461       0.26251781
H        1.76373761       1.93365406      -0.23577595
17
Frame=2 idx=011428 GeodesicLength=0.12798929076435403 rxn_smarts="[C:1]1([H:8])([H:9])[C:2]([H:10])([H:11])[C:3]1([C@@:4]1([H:13])[C:5]([H:14])([H:15])[C:6]([H:16])([H:17])[O:7]1)[H:12]>>[C:1]1([H:8])([H:9])[C:2]([H:10])([H:11])[C:3]1([C:4][H:13])[H:12].[C:5]1([H:14])([H:15])[C:6]([H:16])([H:17])[O:7]1"
C       -1.63838060       0.01393716       1.25169674
C       -1.73224609       0.60304606      -0.13175946
C       -1.25106178      -0.80209020       0.04798986
C        0.08764906      -1.30805437      -0.30520200
C        1.67401194      -0.11616004      -1.05142997
C        2.10670306       0.91720287      -0.13089722
O        1.22199632       0.03997343       0.55118720
H       -0.83968481       0.37054426       1.88714683
H       -2.55803819      -0.24117570       1.76272660
H       -2.71381584       0.76451580      -0.55873150
H       -0.99774615       1.35357089      -0.39465973
H       -1.96317363      -1.57596666      -0.24365730
H        0.42084113      -2.04859781       0.43107857
H        2.32916800      -0.94654304      -1.26546336
H        1.00777700       0.16284229      -1.85335600
H        3.12167454       0.88403106       0.26200841
H        1.72432605       1.92892400      -0.25867767
17
Frame=3 idx=011428 GeodesicLength=0.19137336529685947 rxn_smarts="[C:1]1([H:8])([H:9])[C:2]([H:10])([H:11])[C:3]1([C@@:4]1([H:13])[C:5]([H:14])([H:15])[C:6]([H:16])([H:17])[O:7]1)[H:12]>>[C:1]1([H:8])([H:9])[C:2]([H:10])([H:11])[C:3]1([C:4][H:13])[H:12].[C:5]1([H:14])([H:15])[C:6]([H:16])([H:17])[O:7]1"
C       -1.63490280       0.01407503       1.25621532
C       -1.73996579       0.61407952      -0.11890899
C       -1.26250380      -0.79655390       0.04137915
C        0.07839419      -1.29096311      -0.31043173
C        1.69776360      -0.13651276      -1.04347063
C        2.09398479       0.92403937      -0.13434375
O        1.23551195       0.03153376       0.55979588
H       -0.82696772       0.35932690       1.88633528
H       -2.54923163      -0.24624842       1.77398193
H       -2.72504452       0.78054673      -0.53568804
H       -1.00462959       1.36201853      -0.38592934
H       -1.98041376      -1.56436097      -0.25059630
H        0.39223692      -2.07006116       0.39472569
H        2.37576350      -0.95402583      -1.23815379
H        1.05592513       0.12371616      -1.87189172
H        3.10895085       0.92715769       0.26027894
H        1.68512869       1.92223247      -0.28329790
17
Frame=4 idx=011428 GeodesicLength=0.25411223784902215 rxn_smarts="[C:1]1([H:8])([H:9])[C:2]([H:10])([H:11])[C:3]1([C@@:4]1([H:13])[C:5]([H:14])([H:15])[C:6]([H:16])([H:17])[O:7]1)[H:12]>>[C:1]1([H:8])([H:9])[C:2]([H:10])([H:11])[C:3]1([C:4][H:13])[H:12].[C:5]1([H:14])([H:15])[C:6]([H:16])([H:17])[O:7]1"
C       -1.63167387       0.01395272       1.26080588
C       -1.74790762       0.62526728      -0.10562862
C       -1.27363919      -0.79045573       0.03467348
C        0.06977927      -1.27292501      -0.31496792
C        1.72176982      -0.15712338      -1.03476630
C        2.08117144       0.93010357      -0.13858253
O        1.24912080       0.02411928       0.56885421
H       -0.81493692       0.34823623       1.88561641
H       -2.54060850      -0.25231766       1.78491441
H       -2.73641647       0.79623676      -0.51228708
H       -1.01228543       1.37136489      -0.37622422
H       -1.99701407      -1.55237472      -0.25789366
H        0.36363035      -2.08992549       0.35600943
H        2.42255145      -0.96059802      -1.20980021
H        1.10485130       0.08328457      -1.88845537
H        3.09507405       0.96955156       0.25716763
H        1.64653358       1.91360314      -0.30943554
17
Frame=5 idx=011428 GeodesicLength=0.31583270396649327 rxn_smarts="[C:1]1([H:8])([H:9])[C:2]([H:10])([H:11])[C:3]1([C@@:4]1([H:13])[C:5]([H:14])([H:15])[C:6]([H:16])([H:17])[O:7]1)[H:12]>>[C:1]1([H:8])([H:9])[C:2]([H:10])([H:11])[C:3]1([C:4][H:13])[H:12].[C:5]1([H:14])([H:15])[C:6]([H:16])([H:17])[O:7]1"
C       -1.62865532       0.01362320       1.26532782
C       -1.75596711       0.63650516      -0.09203981
C       -1.28431986      -0.78383055       0.02792753
C        0.06193539      -1.25404181      -0.31853043
C        1.74571174      -0.17785533      -1.02521728
C        2.06828949       0.93527959      -0.14353662
O        1.26282601       0.01776128       0.57841919
H       -0.80361563       0.33738345       1.88485054
H       -2.53214042      -0.25923969       1.79527138
H       -2.74777771       0.81143473      -0.48877325
H       -1.02063582       1.38147286      -0.36560390
H       -2.01276341      -1.54002746      -0.26546787
H        0.33521787      -2.10807966       0.31498012
H        2.46919789      -0.96597484      -1.18069873
H        1.15381321       0.04181506      -1.90257170
H        3.08018657       1.01080171       0.25240704
H        1.60869713       1.90297231      -0.33674401
17
Frame=6 idx=011428 GeodesicLength=0.3766334794588015 rxn_smarts="[C:1]1([H:8])([H:9])[C:2]([H:10])([H:11])[C:3]1([C@@:4]1([H:13])[C:5]([H:14])([H:15])[C:6]([H:16])([H:17])[O:7]1)[H:12]>>[C:1]1([H:8])([H:9])[C:2]([H:10])([H:11])[C:3]1([C:4][H:13])[H:12].[C:5]1([H:14])([H:15])[C:6]([H:16])([H:17])[O:7]1"
C       -1.62586455       0.01311375       1.26981491
C       -1.76406746       0.64772656      -0.07824828
C       -1.29457041      -0.77677093       0.02113973
C        0.05481196      -1.23455635      -0.32108835
C        1.76952111      -0.19867960      -1.01487372
C        2.05544455       0.93957792      -0.14917231
O        1.27667977       0.01239787       0.58855530
H       -0.79296499       0.32681497       1.88414461
H       -2.52391450      -0.26693204       1.80511828
H       -2.75908272       0.82609882      -0.46527624
H       -1.02948805       1.39224523      -0.35422933
H       -2.02779793      -1.52742552      -0.27330006
H        0.30702387      -2.12435379       0.27178678
H        2.51561656      -0.97002201      -1.15116788
H        1.20253678      -0.00049619      -1.91424174
H        3.06444440       1.05091357       0.24607256
H        1.57167162       1.89034774      -0.36503427
17
Frame=7 idx=011428 GeodesicLength=0.43630925069629806 rxn_smarts="[C:1]1([H:8])([H:9])[C:2]([H:10])([H:11])[C:3]1([C@@:4]1([H:13])[C:5]([H:14])([H:15])[C:6]([H:16])([H:17])[O:7]1)[H:12]>>[C:1]1([H:8])([H:9])[C:2]([H:10])([H:11])[C:3]1([C:4][H:13])[H:12].[C:5]1([H:14])([H:15])[C:6]([H:16])([H:17])[O:7]1"
C       -1.62327895       0.01254997       1.27414068
C       -1.77205621       0.65883282      -0.06438386
C       -1.30422544      -0.76937216       0.01440599
C        0.04855033      -1.21468849      -0.32234279
C        1.79289078      -0.21946703      -1.00369259
C        2.04262306       0.94293850      -0.15532176
O        1.29067497       0.00800787       0.59931250
H       -0.78305378       0.31674568       1.88335540
H       -2.51593774      -0.27511756       1.81423958
H       -2.77009763       0.84009634      -0.44205871
H       -1.03869108       1.40351139      -0.34221437
H       -2.04187955      -1.51466969      -0.28124306
H        0.27920018      -2.13883618       0.22639655
H        2.56151648      -0.97249579      -1.12166489
H        1.25025656      -0.04337899      -1.92311747
H        3.04798957       1.08955275       0.23792719
H        1.53551844       1.87579056      -0.39373838
17
Frame=8 idx=011428 GeodesicLength=0.4952179783371474 rxn_smarts="[C:1]1([H:8])([H:9])[C:2]([H:10])([H:11])[C:3]1([C@@:4]1([H:13])[C:5]([H:14])([H:15])[C:6]([H:16])([H:17])[O:7]1)[H:12]>>[C:1]1([H:8])([H:9])[C:2]([H:10])([H:11])[C:3]1([C:4][H:13])[H:12].[C:5]1([H:14])([H:15])[C:6]([H:16])([H:17])[O:7]1"
C       -1.62100102       0.01195435       1.27843225
C       -1.77992936       0.66982945      -0.05052612
C       -1.31337659      -0.76176028       0.00775773
C        0.04306792      -1.19474131      -0.32230759
C        1.81591800      -0.24022585      -0.99179609
C        2.02994414       0.94542806      -0.16195354
O        1.30485241       0.00449074       0.61074276
H       -0.77391367       0.30720268       1.88268530
H       -2.50841639      -0.28372624       1.82285433
H       -2.78086941       0.85350142      -0.41922127
H       -1.04808954       1.41525212      -0.32976886
H       -2.05523007      -1.50191838      -0.28922832
H        0.25180208      -2.15148038       0.17892634
H        2.60701844      -0.97337469      -1.09253372
H        1.29698393      -0.08664871      -1.92946862
H        3.03098178       1.12678674       0.22814205
H        1.50025736       1.85943028      -0.42273663
17
Frame=9 idx=011428 GeodesicLength=0.5529020141494998 rxn_smarts="[C:1]1([H:8])([H:9])[C:2]([H:10])([H:11])[C:3]1([C@@:4]1([H:13])[C:5]([H:14])([H:15])[C:6]([H:16])([H:17])[O:7]1)[H:12]>>[C:1]1([H:8])([H:9])[C:2]([H:10])([H:11])[C:3]1([C:4][H:13])[H:12].[C:5]1([H:14])([H:15])[C:6]([H:16])([H:17])[O:7]1"
C       -1.61863737       0.01121818       1.28241946
C       -1.78740646       0.68058114      -0.03665765
C       -1.32181187      -0.75372777       0.00107322
C        0.03837275      -1.17456992      -0.32074096
C        1.83819213      -0.26096220      -0.97884547
C        2.01711922       0.94689456      -0.16902040
O        1.31916465       0.00204804       0.62277796
H       -0.76514517       0.29790954       1.88191320
H       -2.50079276      -0.29286804       1.83044859
H       -2.79106724       0.86622701      -0.39676672
H       -1.05748350       1.42712744      -0.31667419
H       -2.06762591      -1.48869146      -0.29755577
H        0.22472568      -2.16166334       0.12933841
H        2.65164274      -0.97239369      -1.06332168
H        1.34194669      -0.13052474      -1.93281396
H        3.01319892       1.16257136       0.21654913
H        1.46560751       1.84082391      -0.45212318
17
Frame=10 idx=011428 GeodesicLength=0.6101537039472329 rxn_smarts="[C:1]1([H:8])([H:9])[C:2]([H:10])([H:11])[C:3]1([C@@:4]1([H:13])[C:5]([H:14])([H:15])[C:6]([H:16])([H:17])[O:7]1)[H:12]>>[C:1]1([H:8])([H:9])[C:2]([H:10])([H:11])[C:3]1([C:4][H:13])[H:12].[C:5]1([H:14])([H:15])[C:6]([H:16])([H:17])[O:7]1"
C       -1.61673503       0.01053190       1.28644008
C       -1.79461126       0.69124456      -0.02290049
C       -1.32967811      -0.74568526      -0.00544337
C        0.03454123      -1.15493898      -0.31760366
C        1.86008062      -0.28165093      -0.96526803
C        2.00448345       0.94758650      -0.17642208
O        1.33367307       0.00040501       0.63554654
H       -0.75733020       0.28922396       1.88142738
H       -2.49394844      -0.30222379       1.83759852
H       -2.80084393       0.87851595      -0.37490012
H       -1.06673410       1.43942635      -0.30332614
H       -2.07929355      -1.47567092      -0.30586184
H        0.19814646      -2.17015479       0.07770726
H        2.69586224      -0.96973527      -1.03510721
H        1.38546884      -0.17457153      -1.93374159
H        2.99508197       1.19700483       0.20320722
H        1.43183674       1.82069241      -0.48135248
17
Frame=11 idx=011428 GeodesicLength=0.666160581428711 rxn_smarts="[C:1]1([H:8])([H:9])[C:2]([H:10])([H:11])[C:3]1([C@@:4]1([H:13])[C:5]([H:14])([H:15])[C:6]([H:16])([H:17])[O:7]1)[H:12]>>[C:1]1([H:8])([H:9])[C:2]([H:10])([H:11])[C:3]1([C:4][H:13])[H:12].[C:5]1([H:14])([H:15])[C:6]([H:16])([H:17])[O:7]1"
C       -1.61449373       0.01018140       1.28996544
C       -1.80112648       0.70126381      -0.00976808
C       -1.33670801      -0.73762736      -0.01168777
C        0.03142578      -1.13578787      -0.31264218
C        1.88067052      -0.30192492      -0.95084251
C        1.99167400       0.94706286      -0.18356061
O        1.34848703      -0.00075456       0.64906100
H       -0.74958288       0.28154677       1.88052534
H       -2.48680463      -0.31103252       1.84371856
H       -2.80972548       0.88962808      -0.35421290
H       -1.07556919       1.45112818      -0.29039609
H       -2.08999780      -1.46266526      -0.31370885
H        0.17233023      -2.17599941       0.02416372
H        2.73851729      -0.96469407      -1.00837971
H        1.42600483      -0.21802537      -1.93174958
H        2.97637664       1.22925441       0.18862343
H        1.39852185       1.79844583      -0.50910921
17
Frame=12 idx=011428 GeodesicLength=0.7217471907953824 rxn_smarts="[C:1]1([H:8])([H:9])[C:2]([H:10])([H:11])[C:3]1([C@@:4]1([H:13])[C:5]([H:14])([H:15])[C:6]([H:16])([H:17])[O:7]1)[H:12]>>[C:1]1([H:8])([H:9])[C:2]([H:10])([H:11])[C:3]1([C:4][H:13])[H:12].[C:5]1([H:14])([H:15])[C:6]([H:16])([H:17])[O:7]1"
C       -1.61255215       0.01006140       1.29344641
C       -1.80710783       0.71103082       0.00292781
C       -1.34303743      -0.72977303      -0.01764759
C        0.02915216      -1.11775023      -0.30583932
C        1.90056446      -0.32201067      -0.93589660
C        1.97893473       0.94571907      -0.19062235
O        1.36351886      -0.00137297       0.66336504
H       -0.74260603       0.27467524       1.87986045
H       -2.48031890      -0.31957510       1.84936861
H       -2.81789320       0.90020436      -0.33455864
H       -1.08390261       1.46285856      -0.27772580
H       -2.09991387      -1.45003185      -0.32126929
H        0.14720590      -2.17989090      -0.03120980
H        2.78031504      -0.95779646      -0.98343418
H        1.46435269      -0.26111346      -1.92755480
H        2.95736470       1.25991535       0.17263890
H        1.36592349       1.77484986      -0.53584884
17
Frame=13 idx=011428 GeodesicLength=0.7768162928230326 rxn_smarts="[C:1]1([H:8])([H:9])[C:2]([H:10])([H:11])[C:3]1([C@@:4]1([H:13])[C:5]([H:14])([H:15])[C:6]([H:16])([H:17])[O:7]1)[H:12]>>[C:1]1([H:8])([H:9])[C:2]([H:10])([H:11])[C:3]1([C:4][H:13])[H:12].[C:5]1([H:14])([H:15])[C:6]([H:16])([H:17])[O:7]1"
C       -1.61050023       0.01001689       1.29665488
C       -1.81234766       0.72041533       0.01535397
C       -1.34857727      -0.72185070      -0.02342919
C        0.02756868      -1.10056979      -0.29712066
C        1.91959907      -0.34198952      -0.91999581
C        1.96593345       0.94337819      -0.19769621
O        1.37872500      -0.00115672       0.67824250
H       -0.73590949       0.26825893       1.87920697
H       -2.47390187      -0.32805002       1.85409734
H       -2.82513440       0.91015328      -0.31569398
H       -1.09158396       1.47426493      -0.26497658
H       -2.10902712      -1.43719797      -0.32880586
H        0.12258888      -2.18085458      -0.08879684
H        2.82099617      -0.94878476      -0.95946824
H        1.50034260      -0.30431413      -1.92072213
H        2.93763544       1.28908060       0.15514791
H        1.33359271       1.74920002      -0.56199808
17
Frame=14 idx=011428 GeodesicLength=0.831466100466985 rxn_smarts="[C:1]1([H:8])([H:9])[C:2]([H:10])([H:11])[C:3]1([C@@:4]1([H:13])[C:5]([H:14])([H:15])[C:6]([H:16])([H:17])[O:7]1)[H:12]>>[C:1]1([H:8])([H:9])[C:2]([H:10])([H:11])[C:3]1([C:4][H:13])[H:12].[C:5]1([H:14])([H:15])[C:6]([H:16])([H:17])[O:7]1"
C       -1.60844229       0.01045577       1.29965787
C       -1.81679161       0.72928128       0.02695232
C       -1.35330328      -0.71434532      -0.02877317
C        0.02669476      -1.08499257      -0.28639406
C        1.93759761      -0.36158144      -0.90366898
C        1.95279676       0.94006004      -0.20418350
O        1.39418811      -0.00078473       0.69390731
H       -0.72961863       0.26297041       1.87855731
H       -2.46780428      -0.33561953       1.85830712
H       -2.83137652       0.91929762      -0.29831700
H       -1.09845188       1.48513267      -0.25315333
H       -2.11731965      -1.42490266      -0.33562764
H        0.09898992      -2.17921565      -0.14807076
H        2.86017605      -0.93773138      -0.93805026
H        1.53349231      -0.34650863      -1.91188970
H        2.91745901       1.31626601       0.13683133
H        1.30171361       1.72221810      -0.58608485
17
Frame=15 idx=011428 GeodesicLength=0.8858614729920481 rxn_smarts="[C:1]1([H:8])([H:9])[C:2]([H:10])([H:11])[C:3]1([C@@:4]1([H:13])[C:5]([H:14])([H:15])[C:6]([H:16])([H:17])[O:7]1)[H:12]>>[C:1]1([H:8])([H:9])[C:2]([H:10])([H:11])[C:3]1([C:4][H:13])[H:12].[C:5]1([H:14])([H:15])[C:6]([H:16])([H:17])[O:7]1"
C       -1.60626824       0.01139916       1.30241247
C       -1.82034328       0.73758092       0.03768947
C       -1.35718218      -0.70728143      -0.03365174
C        0.02647571      -1.07120715      -0.27354087
C        1.95452401      -0.38080834      -0.88686747
C        1.93939902       0.93573661      -0.20997022
O        1.40993540      -0.00030303       0.71030804
H       -0.72358061       0.25879409       1.87786869
H       -2.46190710      -0.34220372       1.86194414
H       -2.83652946       0.92762239      -0.28247820
H       -1.10437584       1.49530923      -0.24232844
H       -2.12481393      -1.41310787      -0.34169001
H        0.07638887      -2.17458850      -0.20917812
H        2.89772275      -0.92460430      -0.91919040
H        1.56371089      -0.38771013      -1.90110552
H        2.89672342       1.34152018       0.11783000
H        1.27012058       1.69385190      -0.60805183
17
Frame=16 idx=011428 GeodesicLength=0.9401254839161165 rxn_smarts="[C:1]1([H:8])([H:9])[C:2]([H:10])([H:11])[C:3]1([C@@:4]1([H:13])[C:5]([H:14])([H:15])[C:6]([H:16])([H:17])[O:7]1)[H:12]>>[C:1]1([H:8])([H:9])[C:2]([H:10])([H:11])[C:3]1([C:4][H:13])[H:12].[C:5]1([H:14])([H:15])[C:6]([H:16])([H:17])[O:7]1"
C       -1.60390340       0.01299975       1.30488844
C       -1.82291516       0.74521892       0.04734745
C       -1.36018006      -0.70083085      -0.03796660
C        0.02686153      -1.05956978      -0.25847312
C        1.97028370      -0.39958991      -0.86974922
C        1.92566969       0.93037055      -0.21475353
O        1.42600752      -0.00001444       0.72745872
H       -0.71769204       0.25594252       1.87706471
H       -2.45615529      -0.34746845       1.86509664
H       -2.84050302       0.93502327      -0.26843935
H       -1.10922555       1.50459191      -0.23290631
H       -2.13151033      -1.40202725      -0.34672264
H        0.05494299      -2.16668337      -0.27199222
H        2.93336280      -0.90942223      -0.90336692
H        1.59078921      -0.42753851      -1.88863243
H        2.87539918       1.36470271       0.09853505
H        1.23876824       1.66429516      -0.62738867
