13
Frame=0 idx=002743 GeodesicLength=0.0 rxn_smarts="[C:1]1([H:7])([H:8])[N:2]([H:9])[C@:3]1([C@@:4]1([H:11])[C:5]([H:12])([H:13])[O:6]1)[H:10]>>[C:1]1([H:7])([H:8])[N:2]([H:9])[C@:3]1([C@@:4]1([H:11])[C-:5]=[O+:6]1)[H:10].[H:12][H:13]"
C       -1.82598304      -0.39508698      -0.10358866
N       -1.44972357       0.96152524       0.28310069
C       -0.63704156       0.25934315      -0.68878020
C        0.72602417      -0.23337273      -0.32997206
C        1.53139221       0.47333420       0.68315807
O        0.92554385      -0.70554028       1.00634060
H       -1.64957397      -1.19634952       0.60566012
H       -2.73970644      -0.47485767      -0.67993915
H       -0.99399675       0.96006109       1.18999873
H       -0.69379439       0.65648432      -1.69789413
H        1.19719527      -0.86983005      -1.07441907
H        2.86995420      -0.02669520       0.06180652
H        2.73971008       0.59098439       0.74452858
13
Frame=1 idx=002743 GeodesicLength=0.06070528238437479 rxn_smarts="[C:1]1([H:7])([H:8])[N:2]([H:9])[C@:3]1([C@@:4]1([H:11])[C:5]([H:12])([H:13])[O:6]1)[H:10]>>[C:1]1([H:7])([H:8])[N:2]([H:9])[C@:3]1([C@@:4]1([H:11])[C-:5]=[O+:6]1)[H:10].[H:12][H:13]"
C       -1.83048934      -0.39144984      -0.10407687
N       -1.44686557       0.96268367       0.28404918
C       -0.63760880       0.25653111      -0.68833515
C        0.72283260      -0.24403447      -0.33078490
C        1.53141551       0.45343242       0.68548984
O        0.91966181      -0.72144160       1.00461927
H       -1.65923943      -1.19423289       0.60473695
H       -2.74440735      -0.46556265      -0.68088056
H       -0.99202690       0.95704341       1.19139571
H       -0.69261742       0.65480744      -1.69708912
H        1.19334018      -0.87814163      -1.07754138
H        2.88808362      -0.01561156       0.07055172
H        2.74792107       0.62597661       0.73786531
13
Frame=2 idx=002743 GeodesicLength=0.1214150254816729 rxn_smarts="[C:1]1([H:7])([H:8])[N:2]([H:9])[C@:3]1([C@@:4]1([H:11])[C:5]([H:12])([H:13])[O:6]1)[H:10]>>[C:1]1([H:7])([H:8])[N:2]([H:9])[C@:3]1([C@@:4]1([H:11])[C-:5]=[O+:6]1)[H:10].[H:12][H:13]"
C       -1.83496818      -0.38748197      -0.10455498
N       -1.44335954       0.96388909       0.28524388
C       -0.63789573       0.25357290      -0.68779496
C        0.71966427      -0.25546877      -0.33158896
C        1.53179321       0.43207461       0.68800634
O        0.91349026      -0.73852004       1.00277228
H       -1.66925415      -1.19195689       0.60367484
H       -2.74908946      -0.45543238      -0.68181270
H       -0.98941941       0.95372564       1.19302299
H       -0.69097049       0.65319480      -1.69610971
H        1.18942858      -0.88711316      -1.08079679
H        2.90670671      -0.00385021       0.08077449
H        2.75387395       0.66336638       0.72916329
13
Frame=3 idx=002743 GeodesicLength=0.1819652307060655 rxn_smarts="[C:1]1([H:7])([H:8])[N:2]([H:9])[C@:3]1([C@@:4]1([H:11])[C:5]([H:12])([H:13])[O:6]1)[H:10]>>[C:1]1([H:7])([H:8])[N:2]([H:9])[C@:3]1([C@@:4]1([H:11])[C-:5]=[O+:6]1)[H:10].[H:12][H:13]"
C       -1.83933876      -0.38315798      -0.10499767
N       -1.43912479       0.96513869       0.28667842
C       -0.63786063       0.25047942      -0.68715743
C        0.71651686      -0.26767846      -0.33238393
C        1.53256640       0.40922418       0.69064646
O        0.90701293      -0.75674670       1.00081089
H       -1.67953940      -1.18949131       0.60250446
H       -2.75363966      -0.44445178      -0.68271378
H       -0.98608823       0.95010468       1.19486032
H       -0.68881400       0.65166115      -1.69495465
H        1.18541660      -0.89676944      -1.08415943
H        2.92576045       0.00888496       0.09251533
H        2.75713226       0.70280258       0.71835100
13
Frame=4 idx=002743 GeodesicLength=0.24258193819716845 rxn_smarts="[C:1]1([H:7])([H:8])[N:2]([H:9])[C@:3]1([C@@:4]1([H:11])[C:5]([H:12])([H:13])[O:6]1)[H:10]>>[C:1]1([H:7])([H:8])[N:2]([H:9])[C@:3]1([C@@:4]1([H:11])[C-:5]=[O+:6]1)[H:10].[H:12][H:13]"
C       -1.84363391      -0.37847125      -0.10536746
N       -1.43410583       0.96648214       0.28837039
C       -0.63748225       0.24722611      -0.68646682
C        0.71342197      -0.28070005      -0.33324359
C        1.53383712       0.38488254       0.69333286
O        0.90023539      -0.77611800       0.99871193
H       -1.69016096      -1.18682097       0.60129704
H       -2.75812167      -0.43262800      -0.68353337
H       -0.98195790       0.94626337       1.19694458
H       -0.68611682       0.65015303      -1.69371184
H        1.18131983      -0.90719827      -1.08774210
H        2.94531943       0.02307076       0.10574034
H        2.75744559       0.74385860       0.70566804
13
Frame=5 idx=002743 GeodesicLength=0.30310300757177017 rxn_smarts="[C:1]1([H:7])([H:8])[N:2]([H:9])[C@:3]1([C@@:4]1([H:11])[C:5]([H:12])([H:13])[O:6]1)[H:10]>>[C:1]1([H:7])([H:8])[N:2]([H:9])[C@:3]1([C@@:4]1([H:11])[C-:5]=[O+:6]1)[H:10].[H:12][H:13]"
C       -1.84772832      -0.37333354      -0.10558828
N       -1.42824028       0.96789627       0.29017396
C       -0.63678492       0.24373893      -0.68572932
C        0.71037529      -0.29455045      -0.33424296
C        1.53557493       0.35896958       0.69579097
O        0.89327403      -0.79656999       0.99625367
H       -1.70088449      -1.18371950       0.60013107
H       -2.76242628      -0.41988190      -0.68406028
H       -0.97690240       0.94224073       1.19900218
H       -0.68303096       0.64846127      -1.69231844
H        1.17712260      -0.91839274      -1.09151141
H        2.96517068       0.03939812       0.12016165
H        2.75448010       0.78574321       0.69193719
13
Frame=6 idx=002743 GeodesicLength=0.36344295395949083 rxn_smarts="[C:1]1([H:7])([H:8])[N:2]([H:9])[C@:3]1([C@@:4]1([H:11])[C:5]([H:12])([H:13])[O:6]1)[H:10]>>[C:1]1([H:7])([H:8])[N:2]([H:9])[C@:3]1([C@@:4]1([H:11])[C-:5]=[O+:6]1)[H:10].[H:12][H:13]"
C       -1.85163481      -0.36778427      -0.10565446
N       -1.42145882       0.96941839       0.29215420
C       -0.63573696       0.24005308      -0.68500195
C        0.70737244      -0.30924595      -0.33543931
C        1.53791196       0.33161258       0.69792259
O        0.88612869      -0.81799296       0.99355618
H       -1.71176250      -1.18028970       0.59904733
H       -2.76657107      -0.40626454      -0.68433704
H       -0.97083638       0.93807444       1.20116609
H       -0.67948749       0.64668240      -1.69090574
H        1.17272374      -0.93050020      -1.09556583
H        2.98524931       0.05809342       0.13589194
H        2.74810187       0.82814329       0.67716601
13
Frame=7 idx=002743 GeodesicLength=0.42381182831155534 rxn_smarts="[C:1]1([H:7])([H:8])[N:2]([H:9])[C@:3]1([C@@:4]1([H:11])[C:5]([H:12])([H:13])[O:6]1)[H:10]>>[C:1]1([H:7])([H:8])[N:2]([H:9])[C@:3]1([C@@:4]1([H:11])[C-:5]=[O+:6]1)[H:10].[H:12][H:13]"
C       -1.85533568      -0.36178984      -0.10548269
N       -1.41366548       0.97109387       0.29423412
C       -0.63434862       0.23609918      -0.68436735
C        0.70441006      -0.32483877      -0.33698380
C        1.54090150       0.30278766       0.69947052
O        0.87885440      -0.84036033       0.99048076
H       -1.72275770      -1.17642579       0.59819377
H       -2.77057958      -0.39176578      -0.68419461
H       -0.96360744       0.93387885       1.20332820
H       -0.67555915       0.64464335      -1.68959474
H        1.16807084      -0.94362406      -1.10005838
H        3.00535373       0.07973931       0.15265127
H        2.73826312       0.87056235       0.66232292
13
Frame=8 idx=002743 GeodesicLength=0.4841984697518809 rxn_smarts="[C:1]1([H:7])([H:8])[N:2]([H:9])[C@:3]1([C@@:4]1([H:11])[C:5]([H:12])([H:13])[O:6]1)[H:10]>>[C:1]1([H:7])([H:8])[N:2]([H:9])[C@:3]1([C@@:4]1([H:11])[C-:5]=[O+:6]1)[H:10].[H:12][H:13]"
C       -1.85875427      -0.35530977      -0.10500265
N       -1.40478111       0.97292835       0.29632077
C       -0.63264409       0.23182989      -0.68388105
C        0.70146657      -0.34135660      -0.33900623
C        1.54457404       0.27248151       0.70012981
O        0.87153793      -0.86358675       0.98687822
H       -1.73371982      -1.17200963       0.59767153
H       -2.77440053      -0.37636774      -0.68346527
H       -0.95506583       0.92971466       1.20532811
H       -0.67136921       0.64221521      -1.68843234
H        1.16307634      -0.95783508      -1.10507724
H        3.02515339       0.10466814       0.17034933
H        2.72492657       0.91262783       0.64818701
13
Frame=9 idx=002743 GeodesicLength=0.5445225887231011 rxn_smarts="[C:1]1([H:7])([H:8])[N:2]([H:9])[C@:3]1([C@@:4]1([H:11])[C:5]([H:12])([H:13])[O:6]1)[H:10]>>[C:1]1([H:7])([H:8])[N:2]([H:9])[C@:3]1([C@@:4]1([H:11])[C-:5]=[O+:6]1)[H:10].[H:12][H:13]"
C       -1.86186608      -0.34832184      -0.10416382
N       -1.39469357       0.97494576       0.29839454
C       -0.63061178       0.22721841      -0.68360798
C        0.69853791      -0.35885325      -0.34162462
C        1.54904219       0.24067408       0.69968532
O        0.86422930      -0.88763042       0.98269840
H       -1.74462132      -1.16700116       0.59756600
H       -2.77803928      -0.36004775      -0.68205793
H       -0.94504593       0.92562754       1.20713968
H       -0.66693914       0.63934592      -1.68751708
H        1.15764578      -0.97326297      -1.11075666
H        3.04439041       0.13309737       0.18907208
H        2.70797150       0.95420830       0.63517209
13
Frame=10 idx=002743 GeodesicLength=0.6048900174906917 rxn_smarts="[C:1]1([H:7])([H:8])[N:2]([H:9])[C@:3]1([C@@:4]1([H:11])[C:5]([H:12])([H:13])[O:6]1)[H:10]>>[C:1]1([H:7])([H:8])[N:2]([H:9])[C@:3]1([C@@:4]1([H:11])[C-:5]=[O+:6]1)[H:10].[H:12][H:13]"
C       -1.86461060      -0.34077985      -0.10288630
N       -1.38326764       0.97716924       0.30038506
C       -0.62825499       0.22221169      -0.68362495
C        0.69561302      -0.37739270      -0.34499738
C        1.55438936       0.20729402       0.69784055
O        0.85700553      -0.91247117       0.97779863
H       -1.75536294      -1.16129694       0.59800317
H       -2.78147474      -0.34276123      -0.67980182
H       -0.93333467       0.92168191       1.20864771
H       -0.66235505       0.63591379      -1.68694511
H        1.15167983      -0.99002368      -1.11725624
H        3.06268640       0.16523618       0.20894066
H        2.68728648       0.99521873       0.62389601
13
Frame=11 idx=002743 GeodesicLength=0.6653695718811272 rxn_smarts="[C:1]1([H:7])([H:8])[N:2]([H:9])[C@:3]1([C@@:4]1([H:11])[C:5]([H:12])([H:13])[O:6]1)[H:10]>>[C:1]1([H:7])([H:8])[N:2]([H:9])[C@:3]1([C@@:4]1([H:11])[C-:5]=[O+:6]1)[H:10].[H:12][H:13]"
C       -1.86691663      -0.33263792      -0.10108339
N       -1.37032793       0.97964145       0.30224029
C       -0.62555868       0.21676290      -0.68402227
C        0.69268569      -0.39705335      -0.34929832
C        1.56072963       0.17226340       0.69429871
O        0.84994334      -0.93810937       0.97205725
H       -1.76584990      -1.15481607       0.59912634
H       -2.78467548      -0.32445460      -0.67652770
H       -0.91967702       0.91795223       1.20977332
H       -0.65767562       0.63182151      -1.68684620
H        1.14506353      -1.00826666      -1.12477530
H        3.07962289       0.20124946       0.23022296
H        2.66263619       1.03564703       0.61483429
13
Frame=12 idx=002743 GeodesicLength=0.7257671115932007 rxn_smarts="[C:1]1([H:7])([H:8])[N:2]([H:9])[C@:3]1([C@@:4]1([H:11])[C:5]([H:12])([H:13])[O:6]1)[H:10]>>[C:1]1([H:7])([H:8])[N:2]([H:9])[C@:3]1([C@@:4]1([H:11])[C-:5]=[O+:6]1)[H:10].[H:12][H:13]"
C       -1.86866963      -0.32381961      -0.09867096
N       -1.35569568       0.98234013       0.30386762
C       -0.62251547       0.21082048      -0.68485327
C        0.68975905      -0.41788349      -0.35467609
C        1.56820345       0.13550064       0.68869871
O        0.84319551      -0.96446470       0.96530171
H       -1.77589439      -1.14739550       0.60103408
H       -2.78757601      -0.30503522      -0.67203105
H       -0.90378770       0.91444459       1.21033503
H       -0.65300755       0.62695167      -1.68724409
H        1.13767581      -1.02807751      -1.13342448
H        3.09469766       0.24123788       0.25337775
H        2.63361496       1.07538063       0.60828502
13
Frame=13 idx=002743 GeodesicLength=0.7865389746857289 rxn_smarts="[C:1]1([H:7])([H:8])[N:2]([H:9])[C@:3]1([C@@:4]1([H:11])[C:5]([H:12])([H:13])[O:6]1)[H:10]>>[C:1]1([H:7])([H:8])[N:2]([H:9])[C@:3]1([C@@:4]1([H:11])[C-:5]=[O+:6]1)[H:10].[H:12][H:13]"
C       -1.86978658      -0.31428312      -0.09550483
N       -1.33907427       0.98539881       0.30519535
C       -0.61909121       0.20432042      -0.68630166
C        0.68682777      -0.44001102      -0.36141566
C        1.57699593       0.09691627       0.68065635
O        0.83685043      -0.99160811       0.95740746
H       -1.78541466      -1.13898137       0.60402348
H       -2.79016228      -0.28446084      -0.66607036
H       -0.88525247       0.91135315       1.21027961
H       -0.64840896       0.62117044      -1.68845999
H        1.12933942      -1.04972209      -1.14358449
H        3.10732464       0.28543718       0.27880602
H        2.59985224       1.11447027       0.60496871
13
Frame=14 idx=002743 GeodesicLength=0.8474322602326813 rxn_smarts="[C:1]1([H:7])([H:8])[N:2]([H:9])[C@:3]1([C@@:4]1([H:11])[C:5]([H:12])([H:13])[O:6]1)[H:10]>>[C:1]1([H:7])([H:8])[N:2]([H:9])[C@:3]1([C@@:4]1([H:11])[C-:5]=[O+:6]1)[H:10].[H:12][H:13]"
C       -1.87003359      -0.30385430      -0.09136887
N       -1.32015864       0.98882271       0.30593707
C       -0.61529672       0.19710633      -0.68848803
C        0.68392799      -0.46350562      -0.36983324
C        1.58727836       0.05634029       0.66946555
O        0.83121010      -1.01943304       0.94790269
H       -1.79399210      -1.12914084       0.60839444
H       -2.79230062      -0.26258905      -0.65813628
H       -0.86355446       0.90882593       1.20910166
H       -0.64417052       0.61405003      -1.69056616
H        1.11993835      -1.07329514      -1.15547626
H        3.11657722       0.33409705       0.30702010
H        2.56057462       1.15257566       0.60604735
13
Frame=15 idx=002743 GeodesicLength=0.9090490634397904 rxn_smarts="[C:1]1([H:7])([H:8])[N:2]([H:9])[C@:3]1([C@@:4]1([H:11])[C:5]([H:12])([H:13])[O:6]1)[H:10]>>[C:1]1([H:7])([H:8])[N:2]([H:9])[C@:3]1([C@@:4]1([H:11])[C-:5]=[O+:6]1)[H:10].[H:12][H:13]"
C       -1.86926487      -0.29255781      -0.08610848
N       -1.29867697       0.99276686       0.30606638
C       -0.61110458       0.18920518      -0.69162938
C        0.68106244      -0.48840177      -0.38026069
C        1.59930136       0.01397501       0.65463416
O        0.82650786      -1.04782018       0.93676265
H       -1.80140603      -1.11796213       0.61447327
H       -2.79393359      -0.23944714      -0.64796726
H       -0.83827215       0.90706575       1.20683063
H       -0.64038289       0.60565850      -1.69394847
H        1.10923943      -1.09904520      -1.16956362
H        3.12175823       0.38692960       0.33937642
H        2.51517176       1.18963332       0.61133437
13
Frame=16 idx=002743 GeodesicLength=0.971039455685032 rxn_smarts="[C:1]1([H:7])([H:8])[N:2]([H:9])[C@:3]1([C@@:4]1([H:11])[C:5]([H:12])([H:13])[O:6]1)[H:10]>>[C:1]1([H:7])([H:8])[N:2]([H:9])[C@:3]1([C@@:4]1([H:11])[C-:5]=[O+:6]1)[H:10].[H:12][H:13]"
C       -1.86717215      -0.28022262      -0.07945155
N       -1.27426395       0.99715516       0.30501195
C       -0.60661887       0.18041487      -0.69590059
C        0.67825838      -0.51455784      -0.39307836
C        1.61336666      -0.03004354       0.63513552
O        0.82327937      -1.07623553       0.92336710
H       -1.80698907      -1.10477664       0.62270668
H       -2.79493187      -0.21509656      -0.63489723
H       -0.80865462       0.90632624       1.20254487
H       -0.63765346       0.59528287      -1.69870374
H        1.09696777      -1.12687393      -1.18596653
H        3.12149499       0.44389995       0.37631901
H        2.46291683       1.22472758       0.62291287
