12
Frame=0 idx=003472 GeodesicLength=0.0 rxn_smarts="[N:1]([C@@:2]1([H:9])[C:3]([H:10])([H:11])[O:4]/[C:5]1=[N:6]\[H:12])([H:7])[H:8]>>[N:1](=[C:2](\[C:3]([O:4]/[C:5](=[N:6]\[H:12])[H:7])([H:10])[H:11])[H:9])\[H:8]"
N        1.88301738      -0.65016244       0.15627991
C        0.79053558      -0.21004793      -0.52846393
C       -0.56418476      -0.89007041      -0.68591325
O       -1.40096637       0.10382987      -0.10504875
C       -0.48848337       0.93582955       0.48873410
N       -0.69622899       1.96526535       1.15281734
H        1.00090956       0.32954770       0.62302761
H        1.60249258      -1.40345482       0.78247692
H        1.01825884       0.52186025      -1.30314724
H       -0.83739087      -1.06106358      -1.72816553
H       -0.62118173      -1.82572400      -0.12431527
H       -1.68677786       2.18419042       1.27171814
12
Frame=1 idx=003472 GeodesicLength=0.08528363712170174 rxn_smarts="[N:1]([C@@:2]1([H:9])[C:3]([H:10])([H:11])[O:4]/[C:5]1=[N:6]\[H:12])([H:7])[H:8]>>[N:1](=[C:2](\[C:3]([O:4]/[C:5](=[N:6]\[H:12])[H:7])([H:10])[H:11])[H:9])\[H:8]"
N        1.88123964      -0.65168313       0.15088511
C        0.79068836      -0.20878287      -0.53329339
C       -0.56367274      -0.88954718      -0.68572143
O       -1.39945565       0.10595134      -0.10439553
C       -0.48743685       0.92854191       0.50268538
N       -0.70119785       1.96343137       1.15751894
H        1.00901343       0.33755529       0.64831473
H        1.60623687      -1.41419857       0.76807551
H        1.01761435       0.52259304      -1.30869108
H       -0.84099560      -1.06209234      -1.72646856
H       -0.61982284      -1.82295166      -0.12028835
H       -1.69221110       2.19118279       1.25137866
12
Frame=2 idx=003472 GeodesicLength=0.17036379803730722 rxn_smarts="[N:1]([C@@:2]1([H:9])[C:3]([H:10])([H:11])[O:4]/[C:5]1=[N:6]\[H:12])([H:7])[H:8]>>[N:1](=[C:2](\[C:3]([O:4]/[C:5](=[N:6]\[H:12])[H:7])([H:10])[H:11])[H:9])\[H:8]"
N        1.87930957      -0.65243503       0.14565214
C        0.79062554      -0.20742768      -0.53831175
C       -0.56324876      -0.88914110      -0.68555301
O       -1.39800736       0.10753857      -0.10302321
C       -0.48654381       0.92058484       0.51729631
N       -0.70597801       1.96160325       1.16172580
H        1.01676729       0.34481194       0.67529679
H        1.61033576      -1.42492111       0.75289447
H        1.01647352       0.52395981      -1.31397818
H       -0.84496381      -1.06281480      -1.72477054
H       -0.61811730      -1.82056149      -0.11670825
H       -1.69665263       2.19880280       1.22947943
12
Frame=3 idx=003472 GeodesicLength=0.255352115613988 rxn_smarts="[N:1]([C@@:2]1([H:9])[C:3]([H:10])([H:11])[O:4]/[C:5]1=[N:6]\[H:12])([H:7])[H:8]>>[N:1](=[C:2](\[C:3]([O:4]/[C:5](=[N:6]\[H:12])[H:7])([H:10])[H:11])[H:9])\[H:8]"
N        1.87710661      -0.65241430       0.14086697
C        0.79043290      -0.20610593      -0.54366049
C       -0.56291599      -0.88880312      -0.68549741
O       -1.39654835       0.10901561      -0.10155741
C       -0.48568486       0.91249918       0.53173032
N       -0.71041987       1.96030041       1.16458146
H        1.02406161       0.35150852       0.70386886
H        1.61446656      -1.43536763       0.73740395
H        1.01519082       0.52549097      -1.31939734
H       -0.84915392      -1.06355494      -1.72313633
H       -0.61632263      -1.81826954      -0.11329717
H       -1.70021288       2.20570075       1.20809461
12
Frame=4 idx=003472 GeodesicLength=0.3403403734202004 rxn_smarts="[N:1]([C@@:2]1([H:9])[C:3]([H:10])([H:11])[O:4]/[C:5]1=[N:6]\[H:12])([H:7])[H:8]>>[N:1](=[C:2](\[C:3]([O:4]/[C:5](=[N:6]\[H:12])[H:7])([H:10])[H:11])[H:9])\[H:8]"
N        1.87463890      -0.65153038       0.13649930
C        0.79010529      -0.20480974      -0.54941308
C       -0.56267960      -0.88853726      -0.68553511
O       -1.39506237       0.11038587      -0.09996378
C       -0.48481233       0.90434661       0.54592477
N       -0.71449457       1.95916336       1.16664718
H        1.03082694       0.35752893       0.73418351
H        1.61872711      -1.44550556       0.72150340
H        1.01372903       0.52717391      -1.32504978
H       -0.85362038      -1.06434989      -1.72152580
H       -0.61440795      -1.81606325      -0.11000730
H       -1.70295008       2.21219740       1.18673671
12
Frame=5 idx=003472 GeodesicLength=0.42536626308109443 rxn_smarts="[N:1]([C@@:2]1([H:9])[C:3]([H:10])([H:11])[O:4]/[C:5]1=[N:6]\[H:12])([H:7])[H:8]>>[N:1](=[C:2](\[C:3]([O:4]/[C:5](=[N:6]\[H:12])[H:7])([H:10])[H:11])[H:9])\[H:8]"
N        1.87184004      -0.64965907       0.13265774
C        0.78964563      -0.20355799      -0.55568142
C       -0.56255220      -0.88834524      -0.68567235
O       -1.39353329       0.11174163      -0.09836986
C       -0.48387224       0.89629470       0.55963543
N       -0.71821985       1.95795350       1.16832465
H        1.03694212       0.36271619       0.76639249
H        1.62314965      -1.45512021       0.70514534
H        1.01212321       0.52888923      -1.33112898
H       -0.85838441      -1.06532439      -1.71991834
H       -0.61239235      -1.81387261      -0.10673246
H       -1.70474631       2.21828426       1.16534777
12
Frame=6 idx=003472 GeodesicLength=0.5104394490275678 rxn_smarts="[N:1]([C@@:2]1([H:9])[C:3]([H:10])([H:11])[O:4]/[C:5]1=[N:6]\[H:12])([H:7])[H:8]>>[N:1](=[C:2](\[C:3]([O:4]/[C:5](=[N:6]\[H:12])[H:7])([H:10])[H:11])[H:9])\[H:8]"
N        1.86869699      -0.64668923       0.12932018
C        0.78903480      -0.20233201      -0.56252803
C       -0.56253818      -0.88824138      -0.68589402
O       -1.39196316       0.11304033      -0.09670608
C       -0.48283684       0.88832414       0.57289503
N       -0.72165880       1.95643057       1.17003621
H        1.04227759       0.36684575       0.80070693
H        1.62790111      -1.46414975       0.68819511
H        1.01029960       0.53066657      -1.33770318
H       -0.86350319      -1.06649265      -1.71828006
H       -0.61021679      -1.81172206      -0.10346800
H       -1.70549313       2.22431972       1.14342591
12
Frame=7 idx=003472 GeodesicLength=0.5955990735401134 rxn_smarts="[N:1]([C@@:2]1([H:9])[C:3]([H:10])([H:11])[O:4]/[C:5]1=[N:6]\[H:12])([H:7])[H:8]>>[N:1](=[C:2](\[C:3]([O:4]/[C:5](=[N:6]\[H:12])[H:7])([H:10])[H:11])[H:9])\[H:8]"
N        1.86516297      -0.64249872       0.12653921
C        0.78827030      -0.20114702      -0.57004510
C       -0.56264357      -0.88823712      -0.68620272
O       -1.39033680       0.11429748      -0.09499103
C       -0.48165108       0.88046691       0.58564558
N       -0.72479984       1.95452133       1.17193628
H        1.04666097       0.36969005       0.83734106
H        1.63310220      -1.47247928       0.67057190
H        1.00823704       0.53247274      -1.34488356
H       -0.86901694      -1.06790805      -1.71659151
H       -0.60785611      -1.80959830      -0.10018514
H       -1.70512915       2.23041996       1.12086502
12
Frame=8 idx=003472 GeodesicLength=0.6808948905761187 rxn_smarts="[N:1]([C@@:2]1([H:9])[C:3]([H:10])([H:11])[O:4]/[C:5]1=[N:6]\[H:12])([H:7])[H:8]>>[N:1](=[C:2](\[C:3]([O:4]/[C:5](=[N:6]\[H:12])[H:7])([H:10])[H:11])[H:9])\[H:8]"
N        1.86109905      -0.63719787       0.12464008
C        0.78753433      -0.20025869      -0.57843886
C       -0.56284737      -0.88826106      -0.68673563
O       -1.38848437       0.11610228      -0.09403632
C       -0.48006989       0.87338364       0.59692136
N       -0.72728327       1.95319697       1.17257214
H        1.04992824       0.37146335       0.87614072
H        1.63842611      -1.47992309       0.65290322
H        1.00648119       0.53362068      -1.35318218
H       -0.87474064      -1.06992120      -1.71495887
H       -0.60565240      -1.80712328      -0.09658675
H       -1.70439098       2.23491827       1.10076109
12
Frame=9 idx=003472 GeodesicLength=0.7662501655054774 rxn_smarts="[N:1]([C@@:2]1([H:9])[C:3]([H:10])([H:11])[O:4]/[C:5]1=[N:6]\[H:12])([H:7])[H:8]>>[N:1](=[C:2](\[C:3]([O:4]/[C:5](=[N:6]\[H:12])[H:7])([H:10])[H:11])[H:9])\[H:8]"
N        1.85636860      -0.63049677       0.12368002
C        0.78679854      -0.19969351      -0.58785515
C       -0.56317090      -0.88835341      -0.68748246
O       -1.38639090       0.11836982      -0.09370447
C       -0.47802323       0.86691728       0.60690029
N       -0.72907822       1.95206661       1.17256569
H        1.05170519       0.37164223       0.91744034
H        1.64423496      -1.48617641       0.63496715
H        1.00489122       0.53416962      -1.36269351
H       -0.88081094      -1.07252556      -1.71333458
H       -0.60349703      -1.80436638      -0.09272052
H       -1.70302729       2.23844649       1.08223719
12
Frame=10 idx=003472 GeodesicLength=0.8515924332074525 rxn_smarts="[N:1]([C@@:2]1([H:9])[C:3]([H:10])([H:11])[O:4]/[C:5]1=[N:6]\[H:12])([H:7])[H:8]>>[N:1](=[C:2](\[C:3]([O:4]/[C:5](=[N:6]\[H:12])[H:7])([H:10])[H:11])[H:9])\[H:8]"
N        1.85100117      -0.62231596       0.12350220
C        0.78599595      -0.19938103      -0.59827354
C       -0.56362069      -0.88854611      -0.68838251
O       -1.38409840       0.12088251      -0.09367568
C       -0.47555079       0.86083975       0.61595109
N       -0.73030673       1.95081791       1.17246766
H        1.05190685       0.36992577       0.96147617
H        1.65079553      -1.49123328       0.61647768
H        1.00323932       0.53434855      -1.37329154
H       -0.88733495      -1.07560441      -1.71164714
H       -0.60122903      -1.80146705      -0.08868668
H       -1.70079822       2.24173334       1.06408229
12
Frame=11 idx=003472 GeodesicLength=0.9369188668342114 rxn_smarts="[N:1]([C@@:2]1([H:9])[C:3]([H:10])([H:11])[O:4]/[C:5]1=[N:6]\[H:12])([H:7])[H:8]>>[N:1](=[C:2](\[C:3]([O:4]/[C:5](=[N:6]\[H:12])[H:7])([H:10])[H:11])[H:9])\[H:8]"
N        1.84487500      -0.61258174       0.12420480
C        0.78518843      -0.19945119      -0.60983076
C       -0.56419530      -0.88882826      -0.68948294
O       -1.38152584       0.12381819      -0.09418010
C       -0.47252179       0.85530855       0.62382843
N       -0.73080250       1.94967799       1.17195649
H        1.05028584       0.36617904       1.00830496
H        1.65815806      -1.49488884       0.59762190
H        1.00166058       0.53392490      -1.38518955
H       -0.89430946      -1.07926467      -1.70991036
H       -0.59892696      -1.79832088      -0.08441429
H       -1.69788606       2.24442690       1.04709142
12
Frame=12 idx=003472 GeodesicLength=1.0221406234546393 rxn_smarts="[N:1]([C@@:2]1([H:9])[C:3]([H:10])([H:11])[O:4]/[C:5]1=[N:6]\[H:12])([H:7])[H:8]>>[N:1](=[C:2](\[C:3]([O:4]/[C:5](=[N:6]\[H:12])[H:7])([H:10])[H:11])[H:9])\[H:8]"
N        1.83789080      -0.60108853       0.12575401
C        0.78434059      -0.19992276      -0.62260738
C       -0.56490897      -0.88923183      -0.69076742
O       -1.37866767       0.12707620      -0.09506179
C       -0.46889994       0.85015037       0.63074904
N       -0.73057615       1.94838080       1.17145553
H        1.04657181       0.36001685       1.05808221
H        1.66657393      -1.49688518       0.57832357
H        0.99999880       0.53298236      -1.39840518
H       -0.90184219      -1.08346565      -1.70807624
H       -0.59648773      -1.79501124      -0.07997169
H       -1.69399328       2.24699861       1.03052533
12
Frame=13 idx=003472 GeodesicLength=1.1072734875507977 rxn_smarts="[N:1]([C@@:2]1([H:9])[C:3]([H:10])([H:11])[O:4]/[C:5]1=[N:6]\[H:12])([H:7])[H:8]>>[N:1](=[C:2](\[C:3]([O:4]/[C:5](=[N:6]\[H:12])[H:7])([H:10])[H:11])[H:9])\[H:8]"
N        1.82989933      -0.58784507       0.12825120
C        0.78357248      -0.20102243      -0.63676010
C       -0.56575447      -0.88972191      -0.69232000
O       -1.37538523       0.13096834      -0.09672142
C       -0.46449416       0.84563324       0.63630693
N       -0.72934065       1.94735065       1.17033854
H        1.04052563       0.35148563       1.11066513
H        1.67597932      -1.49698299       0.55902044
H        0.99852797       0.53111804      -1.41321797
H       -0.90989009      -1.08834160      -1.70619375
H       -0.59408451      -1.79135374      -0.07525784
H       -1.68955563       2.24871185       1.01588882
12
Frame=14 idx=003472 GeodesicLength=1.1922192343675242 rxn_smarts="[N:1]([C@@:2]1([H:9])[C:3]([H:10])([H:11])[O:4]/[C:5]1=[N:6]\[H:12])([H:7])[H:8]>>[N:1](=[C:2](\[C:3]([O:4]/[C:5](=[N:6]\[H:12])[H:7])([H:10])[H:11])[H:9])\[H:8]"
N        1.82081033      -0.57267242       0.13156809
C        0.78281014      -0.20272658      -0.65230383
C       -0.56674857      -0.89034643      -0.69409520
O       -1.37170995       0.13526183      -0.09882965
C       -0.45933222       0.84142837       0.64094496
N       -0.72721288       1.94611323       1.16933199
H        1.03195566       0.34021342       1.16609028
H        1.68664994      -1.49488472       0.53959924
H        0.99697339       0.52855735      -1.42951019
H       -0.91859043      -1.09376873      -1.70419199
H       -0.59155121      -1.78752395      -0.07041489
H       -1.68405420       2.25034862       1.00181119
12
Frame=15 idx=003472 GeodesicLength=1.277004210100609 rxn_smarts="[N:1]([C@@:2]1([H:9])[C:3]([H:10])([H:11])[O:4]/[C:5]1=[N:6]\[H:12])([H:7])[H:8]>>[N:1](=[C:2](\[C:3]([O:4]/[C:5](=[N:6]\[H:12])[H:7])([H:10])[H:11])[H:9])\[H:8]"
N        1.81051333      -0.55557630       0.13566816
C        0.78211910      -0.20519603      -0.66930823
C       -0.56788762      -0.89109213      -0.69613947
O       -1.36755301       0.14008729      -0.10154873
C       -0.45330913       0.83757606       0.64457356
N       -0.72405104       1.94477474       1.16827629
H        1.02071359       0.32627747       1.22409016
H        1.69854808      -1.49035439       0.52042725
H        0.99543548       0.52509392      -1.44738655
H       -0.92793999      -1.09976297      -1.70209187
H       -0.58896552      -1.78346221      -0.06544645
H       -1.67762326       2.25163455       0.98888588
12
Frame=16 idx=003472 GeodesicLength=1.3616656904398796 rxn_smarts="[N:1]([C@@:2]1([H:9])[C:3]([H:10])([H:11])[O:4]/[C:5]1=[N:6]\[H:12])([H:7])[H:8]>>[N:1](=[C:2](\[C:3]([O:4]/[C:5](=[N:6]\[H:12])[H:7])([H:10])[H:11])[H:9])\[H:8]"
N        1.79891151      -0.53651327       0.14038909
C        0.78147443      -0.20847065      -0.68774693
C       -0.56917931      -0.89198411      -0.69843903
O       -1.36291734       0.14531661      -0.10470261
C       -0.44644819       0.83382559       0.64751366
N       -0.71992971       1.94302409       1.16762923
H        1.00672373       0.30962421       1.28441066
H        1.71177901      -1.48312082       0.50164621
H        0.99376025       0.52082447      -1.46673126
H       -0.93800460      -1.10621838      -1.69986767
H       -0.58626126      -1.77928301      -0.06047591
H       -1.66990850       2.25297528       0.97637456
