11
Frame=0 idx=002173 GeodesicLength=0.0 rxn_smarts="[O:1]([C:2]([C:3]([C:4]#[C:5][H:11])([H:9])[H:10])([H:7])[H:8])[H:6]>>[O:1]([C:5](=[C:4]1[C:2]([H:7])([H:8])[C:3]1([H:9])[H:10])[H:11])[H:6]"
O        0.33712556      -1.15446175       0.86567899
C       -1.01750430      -0.25296652      -0.31300942
C       -0.44209298       1.01076269      -0.67486669
C        0.94465718       1.03440996       0.08007963
C        1.26064272      -0.04110713       0.75410541
H        0.74577140      -1.95578917       0.51023318
H       -1.01271477      -1.08952413      -1.00053521
H       -1.72675546      -0.32536205       0.49979791
H       -0.23947650       1.11992942      -1.73824281
H       -1.01334146       1.86257169      -0.31136151
H        2.16368863      -0.20846304       1.32812050
11
Frame=1 idx=002173 GeodesicLength=0.10027091808767125 rxn_smarts="[O:1]([C:2]([C:3]([C:4]#[C:5][H:11])([H:9])[H:10])([H:7])[H:8])[H:6]>>[O:1]([C:5](=[C:4]1[C:2]([H:7])([H:8])[C:3]1([H:9])[H:10])[H:11])[H:6]"
O        0.32316823      -1.16292442       0.88614264
C       -1.00327806      -0.25804092      -0.31904262
C       -0.44749143       1.02081028      -0.67630823
C        0.95233706       0.99195427       0.03048044
C        1.27611819      -0.04035035       0.75843796
H        0.74180124      -1.96702705       0.55079238
H       -0.99814638      -1.08283814      -1.02127918
H       -1.74051265      -0.32852498       0.46908647
H       -0.27861766       1.15108461      -1.74322107
H       -1.00347039       1.86456702      -0.27297971
H        2.17809185      -0.18871031       1.33789094
11
Frame=2 idx=002173 GeodesicLength=0.20033771549451207 rxn_smarts="[O:1]([C:2]([C:3]([C:4]#[C:5][H:11])([H:9])[H:10])([H:7])[H:8])[H:6]>>[O:1]([C:5](=[C:4]1[C:2]([H:7])([H:8])[C:3]1([H:9])[H:10])[H:11])[H:6]"
O        0.30848399      -1.17084900       0.90623654
C       -0.99019325      -0.26324928      -0.32520263
C       -0.45215517       1.03009397      -0.67670589
C        0.95726392       0.94766310      -0.01689661
C        1.29142674      -0.03847396       0.76193592
H        0.73768781      -1.97665300       0.59071133
H       -0.98477146      -1.07609071      -1.04192415
H       -1.75442245      -0.33207585       0.43743241
H       -0.31530464       1.18101396      -1.74549389
H       -0.99114191       1.86549907      -0.23520983
H        2.19312641      -0.16687829       1.34511680
11
Frame=3 idx=002173 GeodesicLength=0.3001542374481253 rxn_smarts="[O:1]([C:2]([C:3]([C:4]#[C:5][H:11])([H:9])[H:10])([H:7])[H:8])[H:6]>>[O:1]([C:5](=[C:4]1[C:2]([H:7])([H:8])[C:3]1([H:9])[H:10])[H:11])[H:6]"
O        0.29303563      -1.17814434       0.92618107
C       -0.97825585      -0.26856170      -0.33126712
C       -0.45612795       1.03864786      -0.67598076
C        0.95842773       0.90341101      -0.05943561
C        1.30701931      -0.03592104       0.76390475
H        0.73310327      -1.98479203       0.63030149
H       -0.97234589      -1.06918827      -1.06225535
H       -1.76865354      -0.33583791       0.40487436
H       -0.34794046       1.20916639      -1.74504980
H       -0.97800400       1.86537285      -0.19941411
H        2.20974174      -0.14415282       1.34814108
11
Frame=4 idx=002173 GeodesicLength=0.40002187211168116 rxn_smarts="[O:1]([C:2]([C:3]([C:4]#[C:5][H:11])([H:9])[H:10])([H:7])[H:8])[H:6]>>[O:1]([C:5](=[C:4]1[C:2]([H:7])([H:8])[C:3]1([H:9])[H:10])[H:11])[H:6]"
O        0.27677957      -1.18485311       0.94608448
C       -0.96742055      -0.27404439      -0.33716957
C       -0.45945784       1.04654198      -0.67419339
C        0.95601852       0.86023773      -0.09655104
C        1.32341198      -0.03319317       0.76375402
H        0.72776797      -1.99168327       0.66978559
H       -0.96076445      -1.06216405      -1.08233385
H       -1.78313155      -0.33984180       0.37157929
H       -0.37630857       1.23561334      -1.74233741
H       -0.96490060       1.86423372      -0.16574247
H        2.22800551      -0.12084699       1.34712436
11
Frame=5 idx=002173 GeodesicLength=0.49982126438956126 rxn_smarts="[O:1]([C:2]([C:3]([C:4]#[C:5][H:11])([H:9])[H:10])([H:7])[H:8])[H:6]>>[O:1]([C:5](=[C:4]1[C:2]([H:7])([H:8])[C:3]1([H:9])[H:10])[H:11])[H:6]"
O        0.25979981      -1.19126724       0.96575442
C       -0.95761748      -0.27967645      -0.34274031
C       -0.46220412       1.05377125      -0.67148543
C        0.95041456       0.81873320      -0.12813743
C        1.34054724      -0.03050266       0.76177772
H        0.72199900      -1.99741208       0.70875677
H       -0.95013557      -1.05493136      -1.10202020
H       -1.79764833      -0.34380882       0.33787318
H       -0.40046140       1.26015049      -1.73782168
H       -0.95242381       1.86224482      -0.13444723
H        2.24773010      -0.09730115       1.34249019
11
Frame=6 idx=002173 GeodesicLength=0.5994539562743035 rxn_smarts="[O:1]([C:2]([C:3]([C:4]#[C:5][H:11])([H:9])[H:10])([H:7])[H:8])[H:6]>>[O:1]([C:5](=[C:4]1[C:2]([H:7])([H:8])[C:3]1([H:9])[H:10])[H:11])[H:6]"
O        0.24216990      -1.19765126       0.98499416
C       -0.94878295      -0.28544402      -0.34791597
C       -0.46440254       1.06029564      -0.66799387
C        0.94217370       0.77895754      -0.15463911
C        1.35836855      -0.02799278       0.75823003
H        0.71606847      -2.00204387       0.74690199
H       -0.94061441      -1.04738085      -1.12128131
H       -1.81195515      -0.34752286       0.30401601
H       -0.42081679       1.28277213      -1.73190619
H       -0.94072133       1.85946295      -0.10540183
H        2.26851254      -0.07345263       1.33499608
11
Frame=7 idx=002173 GeodesicLength=0.6990860404342096 rxn_smarts="[O:1]([C:2]([C:3]([C:4]#[C:5][H:11])([H:9])[H:10])([H:7])[H:8])[H:6]>>[O:1]([C:5](=[C:4]1[C:2]([H:7])([H:8])[C:3]1([H:9])[H:10])[H:11])[H:6]"
O        0.22377373      -1.20410793       1.00392792
C       -0.94082665      -0.29140790      -0.35273668
C       -0.46612445       1.06621910      -0.66378471
C        0.93178314       0.74102135      -0.17649354
C        1.37692017      -0.02577042       0.75316001
H        0.70996132      -2.00573112       0.78450318
H       -0.93191788      -1.03958486      -1.14018592
H       -1.82608359      -0.35102790       0.26994889
H       -0.43773606       1.30375898      -1.72487379
H       -0.93002987       1.85604019      -0.07827097
H        2.29028013      -0.04940947       1.32480561
11
Frame=8 idx=002173 GeodesicLength=0.7986835437191114 rxn_smarts="[O:1]([C:2]([C:3]([C:4]#[C:5][H:11])([H:9])[H:10])([H:7])[H:8])[H:6]>>[O:1]([C:5](=[C:4]1[C:2]([H:7])([H:8])[C:3]1([H:9])[H:10])[H:11])[H:6]"
O        0.20452587      -1.21063624       1.02262778
C       -0.93364403      -0.29758749      -0.35726619
C       -0.46742227       1.07155800      -0.65887900
C        0.91963058       0.70481718      -0.19418187
C        1.39624667      -0.02398272       0.74650406
H        0.70362270      -2.00844776       0.82180740
H       -0.92380388      -1.03150542      -1.15880406
H       -1.83993955      -0.35434338       0.23556534
H       -0.45165568       1.32332665      -1.71686918
H       -0.92037477       1.85194767      -0.05266229
H        2.31281435      -0.02514649       1.31215801
11
Frame=9 idx=002173 GeodesicLength=0.8982204251749295 rxn_smarts="[O:1]([C:2]([C:3]([C:4]#[C:5][H:11])([H:9])[H:10])([H:7])[H:8])[H:6]>>[O:1]([C:5](=[C:4]1[C:2]([H:7])([H:8])[C:3]1([H:9])[H:10])[H:11])[H:6]"
O        0.18441315      -1.21750319       1.04099199
C       -0.92721484      -0.30398729      -0.36148052
C       -0.46832633       1.07634148      -0.65337126
C        0.90604302       0.67024327      -0.20801353
C        1.41616744      -0.02253561       0.73859823
H        0.69731205      -2.01025457       0.85868921
H       -0.91628904      -1.02313800      -1.17709830
H       -1.85346384      -0.35734685       0.20101417
H       -0.46279733       1.34153276      -1.70810669
H       -0.91180582       1.84733709      -0.02851332
H        2.33596154      -0.00068909       1.29729004
11
Frame=10 idx=002173 GeodesicLength=0.9976925007431807 rxn_smarts="[O:1]([C:2]([C:3]([C:4]#[C:5][H:11])([H:9])[H:10])([H:7])[H:8])[H:6]>>[O:1]([C:5](=[C:4]1[C:2]([H:7])([H:8])[C:3]1([H:9])[H:10])[H:11])[H:6]"
O        0.16335318      -1.22469969       1.05905738
C       -0.92148814      -0.31065133      -0.36549617
C       -0.46884059       1.08056482      -0.64723828
C        0.89135485       0.63697557      -0.21857885
C        1.43684301      -0.02164741       0.72914132
H        0.69092061      -2.01114788       0.89546827
H       -0.90923591      -1.01448414      -1.19520738
H       -1.86660944      -0.36004997       0.16616950
H       -0.47159983       1.35864880      -1.69858351
H       -0.90409322       1.84213084      -0.00531477
H        2.35939548       0.02436039       1.28058248
11
Frame=11 idx=002173 GeodesicLength=1.097147903764354 rxn_smarts="[O:1]([C:2]([C:3]([C:4]#[C:5][H:11])([H:9])[H:10])([H:7])[H:8])[H:6]>>[O:1]([C:5](=[C:4]1[C:2]([H:7])([H:8])[C:3]1([H:9])[H:10])[H:11])[H:6]"
O        0.14087546      -1.23178364       1.07737308
C       -0.91624044      -0.31767179      -0.36951704
C       -0.46916961       1.08435508      -0.64032232
C        0.87553897       0.60540997      -0.22557594
C        1.45803434      -0.02107126       0.71837609
H        0.68403027      -2.01062377       0.93329514
H       -0.90153310      -1.00558076      -1.21326904
H       -1.87948016      -0.36292890       0.13017949
H       -0.47813716       1.37506794      -1.68812440
H       -0.89788318       1.83616872       0.01723918
H        2.38396459       0.04865842       1.26034576
11
Frame=12 idx=002173 GeodesicLength=1.1965704002741333 rxn_smarts="[O:1]([C:2]([C:3]([C:4]#[C:5][H:11])([H:9])[H:10])([H:7])[H:8])[H:6]>>[O:1]([C:5](=[C:4]1[C:2]([H:7])([H:8])[C:3]1([H:9])[H:10])[H:11])[H:6]"
O        0.11696241      -1.23890014       1.09587122
C       -0.91148956      -0.32504558      -0.37359526
C       -0.46935568       1.08772870      -0.63265002
C        0.85882626       0.57528921      -0.22935575
C        1.47982691      -0.02091838       0.70620651
H        0.67677230      -2.00865363       0.97222693
H       -0.89320719      -0.99643235      -1.23136324
H       -1.89200612      -0.36588041       0.09308756
H       -0.48268913       1.39090037      -1.67680858
H       -0.89310744       1.82950918       0.03937202
H        2.40946724       0.07240303       1.23700860
11
Frame=13 idx=002173 GeodesicLength=1.295986601832004 rxn_smarts="[O:1]([C:2]([C:3]([C:4]#[C:5][H:11])([H:9])[H:10])([H:7])[H:8])[H:6]>>[O:1]([C:5](=[C:4]1[C:2]([H:7])([H:8])[C:3]1([H:9])[H:10])[H:11])[H:6]"
O        0.09152386      -1.24612750       1.11449738
C       -0.90718864      -0.33281582      -0.37779881
C       -0.46938700       1.09067792      -0.62418213
C        0.84138822       0.54634614      -0.23027915
C        1.50225979      -0.02131315       0.69235265
H        0.66913497      -2.00510889       1.01252548
H       -0.88416115      -0.98702762      -1.24956042
H       -1.90405936      -0.36888076       0.05485337
H       -0.48546468       1.40634201      -1.66456443
H       -0.88961266       1.82206997       0.06140036
H        2.43556666       0.09583769       1.21075571
11
Frame=14 idx=002173 GeodesicLength=1.3953676431685402 rxn_smarts="[O:1]([C:2]([C:3]([C:4]#[C:5][H:11])([H:9])[H:10])([H:7])[H:8])[H:6]>>[O:1]([C:5](=[C:4]1[C:2]([H:7])([H:8])[C:3]1([H:9])[H:10])[H:11])[H:6]"
O        0.06390244      -1.25295322       1.13359357
C       -0.90310481      -0.34104707      -0.38231030
C       -0.46953134       1.09325718      -0.61461323
C        0.82301019       0.51927698      -0.22739934
C        1.52485645      -0.02169759       0.67737759
H        0.66063004      -1.99898067       1.05514946
H       -0.87314455      -0.97735618      -1.26785708
H       -1.91560658      -0.37257683       0.01440937
H       -0.48627319       1.42147244      -1.65094814
H       -0.88835493       1.81358402       0.08337775
H        2.46361628       0.11702094       1.17922034
11
Frame=15 idx=002173 GeodesicLength=1.4946871706631515 rxn_smarts="[O:1]([C:2]([C:3]([C:4]#[C:5][H:11])([H:9])[H:10])([H:7])[H:8])[H:6]>>[O:1]([C:5](=[C:4]1[C:2]([H:7])([H:8])[C:3]1([H:9])[H:10])[H:11])[H:6]"
O        0.03431446      -1.25995248       1.15294558
C       -0.89927718      -0.34968112      -0.38706948
C       -0.46977327       1.09551885      -0.60409168
C        0.80391590       0.49358419      -0.22127945
C        1.54781408      -0.02242765       0.66088025
H        0.65162785      -1.99050741       1.09986452
H       -0.86049438      -0.96737495      -1.28628154
H       -1.92643137      -0.37657857      -0.02767289
H       -0.48538005       1.43640720      -1.63626939
H       -0.88909589       1.80429463       0.10539912
H        2.49277985       0.13671730       1.14357496
11
Frame=16 idx=002173 GeodesicLength=1.5939542811323864 rxn_smarts="[O:1]([C:2]([C:3]([C:4]#[C:5][H:11])([H:9])[H:10])([H:7])[H:8])[H:6]>>[O:1]([C:5](=[C:4]1[C:2]([H:7])([H:8])[C:3]1([H:9])[H:10])[H:11])[H:6]"
O        0.00252552      -1.26728377       1.17235427
C       -0.89560523      -0.35873616      -0.39208438
C       -0.47009636       1.09741508      -0.59246828
C        0.78414161       0.46921129      -0.21180580
C        1.57104422      -0.02352459       0.64257952
H        0.64198232      -1.97921022       1.14691741
H       -0.84591205      -0.95699943      -1.30471996
H       -1.93633199      -0.38097175      -0.07152731
H       -0.48271232       1.45116626      -1.62026858
H       -0.89189123       1.79404391       0.12757837
H        2.52285550       0.15488938       1.10344474
