9
Frame=0 idx=009005 GeodesicLength=0.0 rxn_smarts="[N:1]#[C:2][c:3]1[c:4]([H:8])[n:5]([H:9])[n:6][n:7]1>>[N-:1]=[C:2]=[C:4]([N:5]([N-:6][N+:7]#[C+:3])[H:9])[H:8]"
N        2.28012602      -0.73770001       0.18730483
C        1.35759688      -0.04137245      -0.04456092
C        0.74149653       1.41101507      -0.07030441
C        0.00628290      -0.48408048      -0.60604247
N       -1.07107672      -0.28536215       0.11979675
N       -1.24723913       0.79620655       0.89388309
N       -0.23791643       1.57372172       0.69915766
H        0.03562311      -1.32301855      -1.28462638
H       -1.86489317      -0.90940971       0.10539186
9
Frame=1 idx=009005 GeodesicLength=0.10031106533578789 rxn_smarts="[N:1]#[C:2][c:3]1[c:4]([H:8])[n:5]([H:9])[n:6][n:7]1>>[N-:1]=[C:2]=[C:4]([N:5]([N-:6][N+:7]#[C+:3])[H:9])[H:8]"
N        2.33941318      -0.72053085       0.12611605
C        1.38589416      -0.05363598      -0.05007589
C        0.74976174       1.40363887      -0.02443761
C        0.00728611      -0.49294916      -0.58117097
N       -1.09011530      -0.27475719       0.10804207
N       -1.26563119       0.79646844       0.89295190
N       -0.26173781       1.58047267       0.69467210
H        0.02992183      -1.35516064      -1.23202459
H       -1.89479274      -0.88354616       0.06592694
9
Frame=2 idx=009005 GeodesicLength=0.20024787856915882 rxn_smarts="[N:1]#[C:2][c:3]1[c:4]([H:8])[n:5]([H:9])[n:6][n:7]1>>[N-:1]=[C:2]=[C:4]([N:5]([N-:6][N+:7]#[C+:3])[H:9])[H:8]"
N        2.39884841      -0.69965446       0.05599569
C        1.41527185      -0.06683462      -0.05619346
C        0.75896259       1.39314557       0.02907623
C        0.00870425      -0.50394133      -0.55184218
N       -1.11006921      -0.26276391       0.09402779
N       -1.28558659       0.79768055       0.89011658
N       -0.28630094       1.58744651       0.68879533
H        0.02485106      -1.38964692      -1.17251452
H       -1.92468142      -0.85543139       0.02253852
9
Frame=3 idx=009005 GeodesicLength=0.29956131649688067 rxn_smarts="[N:1]#[C:2][c:3]1[c:4]([H:8])[n:5]([H:9])[n:6][n:7]1>>[N-:1]=[C:2]=[C:4]([N:5]([N-:6][N+:7]#[C+:3])[H:9])[H:8]"
N        2.45700656      -0.67408535      -0.02408448
C        1.44604639      -0.08041303      -0.06503377
C        0.76914622       1.37852173       0.09280544
C        0.01051439      -0.51742306      -0.51708296
N       -1.13051058      -0.24933479       0.07743423
N       -1.30765170       0.80054841       0.88397192
N       -0.31090252       1.59430750       0.68183192
H        0.02030061      -1.42724347      -1.10410271
H       -1.95394937      -0.82487792      -0.02573959
9
Frame=4 idx=009005 GeodesicLength=0.39791921656898643 rxn_smarts="[N:1]#[C:2][c:3]1[c:4]([H:8])[n:5]([H:9])[n:6][n:7]1>>[N-:1]=[C:2]=[C:4]([N:5]([N-:6][N+:7]#[C+:3])[H:9])[H:8]"
N        2.51212993      -0.64271967      -0.11594600
C        1.47836008      -0.09308094      -0.08011556
C        0.78044516       1.35783219       0.17117401
C        0.01272757      -0.53402391      -0.47522495
N       -1.15098936      -0.23420464       0.05744284
N       -1.33303696       0.80670167       0.87168262
N       -0.33434650       1.60061126       0.67456247
H        0.01624966      -1.46903236      -1.02364825
H       -1.98153958      -0.79208358      -0.07992719
9
Frame=5 idx=009005 GeodesicLength=0.4948135083180879 rxn_smarts="[N:1]#[C:2][c:3]1[c:4]([H:8])[n:5]([H:9])[n:6][n:7]1>>[N-:1]=[C:2]=[C:4]([N:5]([N-:6][N+:7]#[C+:3])[H:9])[H:8]"
N        2.56255403      -0.60235956      -0.22309990
C        1.51180163      -0.10057561      -0.11113006
C        0.79249482       1.32735150       0.27063755
C        0.01541702      -0.55622142      -0.42162791
N       -1.17089894      -0.21740519       0.03328348
N       -1.36297397       0.81752676       0.85024362
N       -0.35405422       1.60460616       0.67047612
H        0.01322867      -1.51964074      -0.92112695
H       -2.00756904      -0.75328188      -0.14765594
9
Frame=6 idx=009005 GeodesicLength=0.5857984069029943 rxn_smarts="[N:1]#[C:2][c:3]1[c:4]([H:8])[n:5]([H:9])[n:6][n:7]1>>[N-:1]=[C:2]=[C:4]([N:5]([N-:6][N+:7]#[C+:3])[H:9])[H:8]"
N        2.60240943      -0.54848455      -0.35635048
C        1.54184710      -0.09922727      -0.16100199
C        0.80600495       1.27681500       0.40609345
C        0.01880565      -0.58724687      -0.34781685
N       -1.18862100      -0.19768590       0.00131072
N       -1.40100227       0.84256448       0.80465750
N       -0.36488594       1.60548079       0.67196173
H        0.01199590      -1.57912181      -0.79082480
H       -2.02655382      -0.71309388      -0.22802928
9
Frame=7 idx=009005 GeodesicLength=0.6646532827784875 rxn_smarts="[N:1]#[C:2][c:3]1[c:4]([H:8])[n:5]([H:9])[n:6][n:7]1>>[N-:1]=[C:2]=[C:4]([N:5]([N-:6][N+:7]#[C+:3])[H:9])[H:8]"
N        2.61991447      -0.48311488      -0.49163837
C        1.55571857      -0.08243996      -0.23157972
C        0.81616733       1.20442676       0.55901454
C        0.02038928      -0.62309543      -0.26221597
N       -1.19850997      -0.17950631      -0.03380991
N       -1.43494480       0.88073429       0.73306618
N       -0.35842512       1.59857728       0.68429441
H        0.01235992      -1.63955034      -0.64523229
H       -2.03266968      -0.67603140      -0.31189888
9
Frame=8 idx=009005 GeodesicLength=0.7476506198767177 rxn_smarts="[N:1]#[C:2][c:3]1[c:4]([H:8])[n:5]([H:9])[n:6][n:7]1>>[N-:1]=[C:2]=[C:4]([N:5]([N-:6][N+:7]#[C+:3])[H:9])[H:8]"
N        2.62374511      -0.42189824      -0.59313843
C        1.55997636      -0.07097447      -0.27529554
C        0.81809467       1.13573673       0.67773276
C        0.01737779      -0.64738515      -0.20376425
N       -1.20256554      -0.16687629      -0.06200842
N       -1.45154995       0.91985718       0.66012369
N       -0.34274992       1.58965394       0.69615072
H        0.00998853      -1.67992947      -0.53898773
H       -2.03231706      -0.65818422      -0.36081279
9
Frame=9 idx=009005 GeodesicLength=0.8340587648540614 rxn_smarts="[N:1]#[C:2][c:3]1[c:4]([H:8])[n:5]([H:9])[n:6][n:7]1>>[N-:1]=[C:2]=[C:4]([N:5]([N-:6][N+:7]#[C+:3])[H:9])[H:8]"
N        2.62864349      -0.36908522      -0.66024773
C        1.56482181      -0.06493522      -0.30355913
C        0.81418002       1.07752774       0.76454333
C        0.01159720      -0.66270232      -0.16953210
N       -1.20611172      -0.15854179      -0.08249158
N       -1.45646137       0.95345873       0.59722239
N       -0.32627093       1.58153528       0.70333125
H        0.00441364      -1.70579750      -0.46827359
H       -2.03481215      -0.65145972      -0.38099285
9
Frame=10 idx=009005 GeodesicLength=0.9209069966951371 rxn_smarts="[N:1]#[C:2][c:3]1[c:4]([H:8])[n:5]([H:9])[n:6][n:7]1>>[N-:1]=[C:2]=[C:4]([N:5]([N-:6][N+:7]#[C+:3])[H:9])[H:8]"
N        2.63532311      -0.31931446      -0.70977507
C        1.57112890      -0.06234643      -0.32433793
C        0.80661523       1.02556902       0.83373647
C        0.00460183      -0.67494298      -0.14523371
N       -1.20971833      -0.15206366      -0.09943085
N       -1.45472060       0.98316715       0.54056303
N       -0.30994519       1.57363413       0.70747673
H       -0.00330367      -1.72502109      -0.41623736
H       -2.03998129      -0.64868168      -0.38676132
9
Frame=11 idx=009005 GeodesicLength=1.00782063954079 rxn_smarts="[N:1]#[C:2][c:3]1[c:4]([H:8])[n:5]([H:9])[n:6][n:7]1>>[N-:1]=[C:2]=[C:4]([N:5]([N-:6][N+:7]#[C+:3])[H:9])[H:8]"
N        2.64371055      -0.27095976      -0.74764223
C        1.57850723      -0.06159937      -0.34224592
C        0.79653355       0.97772504       0.89157219
C       -0.00314052      -0.68578930      -0.12642012
N       -1.21340168      -0.14648748      -0.11485300
N       -1.44848546       1.00961913       0.48838503
N       -0.29392339       1.56558832       0.70976714
H       -0.01258008      -1.74085324      -0.37494836
H       -2.04722019      -0.64724334      -0.38361474
9
Frame=12 idx=009005 GeodesicLength=1.0947344671923316 rxn_smarts="[N:1]#[C:2][c:3]1[c:4]([H:8])[n:5]([H:9])[n:6][n:7]1>>[N-:1]=[C:2]=[C:4]([N:5]([N-:6][N+:7]#[C+:3])[H:9])[H:8]"
N        2.65330738      -0.22296095      -0.77757905
C        1.58669694      -0.06214833      -0.35906619
C        0.78462748       0.93291459       0.94126019
C       -0.01140997      -0.69603887      -0.11087047
N       -1.21711235      -0.14157551      -0.12939313
N       -1.43898242       1.03311104       0.44001657
N       -0.27820317       1.55721358       0.71073882
H       -0.02306824      -1.75498016      -0.33974073
H       -2.05585564      -0.64553539      -0.37536600
9
Frame=13 idx=009005 GeodesicLength=1.181639314035326 rxn_smarts="[N:1]#[C:2][c:3]1[c:4]([H:8])[n:5]([H:9])[n:6][n:7]1>>[N-:1]=[C:2]=[C:4]([N:5]([N-:6][N+:7]#[C+:3])[H:9])[H:8]"
N        2.66364867      -0.17483600      -0.80168004
C        1.59554436      -0.06373910      -0.37571654
C        0.77138315       0.89059556       0.98465911
C       -0.02008168      -0.70607354      -0.09734736
N       -1.22081228      -0.13725984      -0.14323576
N       -1.42704985       1.05380778       0.39524377
N       -0.26270724       1.54849575       0.71053567
H       -0.03457279      -1.76820069      -0.30810534
H       -2.06535234      -0.64278992      -0.36435351
9
Frame=14 idx=009005 GeodesicLength=1.2685481199737203 rxn_smarts="[N:1]#[C:2][c:3]1[c:4]([H:8])[n:5]([H:9])[n:6][n:7]1>>[N-:1]=[C:2]=[C:4]([N:5]([N-:6][N+:7]#[C+:3])[H:9])[H:8]"
N        2.67424209      -0.12623148      -0.82138700
C        1.60497310      -0.06628876      -0.39265362
C        0.75716379       0.85039031       1.02308705
C       -0.02907470      -0.71611444      -0.08503685
N       -1.22445482      -0.13351123      -0.15642867
N       -1.41327471       1.07194470       0.35378587
N       -0.24728822       1.53944168       0.70926538
H       -0.04698017      -1.78094827      -0.27850282
H       -2.07530637      -0.63868250      -0.35212932
9
Frame=15 idx=009005 GeodesicLength=1.3554767541790618 rxn_smarts="[N:1]#[C:2][c:3]1[c:4]([H:8])[n:5]([H:9])[n:6][n:7]1>>[N-:1]=[C:2]=[C:4]([N:5]([N-:6][N+:7]#[C+:3])[H:9])[H:8]"
N        2.68462490      -0.07691422      -0.83766737
C        1.61497713      -0.06974012      -0.41010515
C        0.74220151       0.81195539       1.05757399
C       -0.03832821      -0.72626405      -0.07348244
N       -1.22799495      -0.13028958      -0.16903399
N       -1.39802283       1.08785626       0.31512364
N       -0.23179527       1.53002851       0.70709478
H       -0.06020513      -1.79343581      -0.25003993
H       -2.08545715      -0.63319639      -0.33946354
9
Frame=16 idx=009005 GeodesicLength=1.4424436595427361 rxn_smarts="[N:1]#[C:2][c:3]1[c:4]([H:8])[n:5]([H:9])[n:6][n:7]1>>[N-:1]=[C:2]=[C:4]([N:5]([N-:6][N+:7]#[C+:3])[H:9])[H:8]"
N        2.69428766      -0.02669030      -0.85130928
C        1.62558959      -0.07405693      -0.42812858
C        0.72663076       0.77498992       1.08897120
C       -0.04778465      -0.73659677      -0.06234825
N       -1.23136795      -0.12756551      -0.18110165
N       -1.38145191       1.10189398       0.27858915
N       -0.21611694       1.52020232       0.70426548
H       -0.07417074      -1.80578794      -0.22214174
H       -2.09561582      -0.62638878      -0.32679633
