16
Frame=0 idx=009854 GeodesicLength=0.0 rxn_smarts="[O:1]([C@@:2]1([H:9])[C:3]([H:10])([H:11])[C@:4]2([C:5]([H:12])([H:13])[N:6]2[H:14])[C:7]1([H:15])[H:16])[H:8]>>[C:3]1([H:10])([H:11])[C:4]2([C:5]([H:12])([H:13])[N:6]2[H:14])[C:7]1([H:15])[H:16].[O:1]([C:2][H:9])[H:8]"
O       -2.20877583      -0.86611869       1.43514059
C       -2.06423051      -0.74831180       0.08273774
C       -0.71430376       0.55573352      -0.44414668
C        0.73594229       0.37150638      -0.21378814
C        1.97932349       0.83054979      -0.82113191
N        1.61370335       1.20480911       0.56356512
C        0.12854945      -0.92212056       0.07079273
H       -2.66268607      -0.08086191       1.74941163
H       -1.84118991      -1.74619957      -0.30426284
H       -1.14645578       1.30866261       0.20393958
H       -1.01917037       0.63629674      -1.47834162
H        1.96667592       1.65171151      -1.52848139
H        2.77882101       0.11059115      -0.96378089
H        2.14524386       0.64531640       1.22220193
H        0.24917621      -1.69964386      -0.67320587
H        0.05937664      -1.25192079       1.09935005
16
Frame=1 idx=009854 GeodesicLength=0.0945396800017682 rxn_smarts="[O:1]([C@@:2]1([H:9])[C:3]([H:10])([H:11])[C@:4]2([C:5]([H:12])([H:13])[N:6]2[H:14])[C:7]1([H:15])[H:16])[H:8]>>[C:3]1([H:10])([H:11])[C:4]2([C:5]([H:12])([H:13])[N:6]2[H:14])[C:7]1([H:15])[H:16].[O:1]([C:2][H:9])[H:8]"
O       -2.18477427      -0.83886274       1.47465193
C       -2.06783085      -0.74880008       0.11928155
C       -0.72073372       0.53471084      -0.49331468
C        0.72428088       0.36211619      -0.22509420
C        1.97745597       0.85143127      -0.78639155
N        1.56743115       1.19156263       0.59481731
C        0.12406072      -0.94326880       0.02706495
H       -2.52576883      -0.00138962       1.80122834
H       -1.90894072      -1.76076697      -0.26339290
H       -1.17107787       1.31212500       0.11229085
H       -1.00902115       0.59630632      -1.53389923
H        1.97321836       1.68751497      -1.47617143
H        2.79070669       0.14549764      -0.92097195
H        2.09230176       0.62757328       1.25495065
H        0.24973367      -1.70702282      -0.73060404
H        0.08895822      -1.30872712       1.04555441
16
Frame=2 idx=009854 GeodesicLength=0.18989192384808745 rxn_smarts="[O:1]([C@@:2]1([H:9])[C:3]([H:10])([H:11])[C@:4]2([C:5]([H:12])([H:13])[N:6]2[H:14])[C:7]1([H:15])[H:16])[H:8]>>[C:3]1([H:10])([H:11])[C:4]2([C:5]([H:12])([H:13])[N:6]2[H:14])[C:7]1([H:15])[H:16].[O:1]([C:2][H:9])[H:8]"
O       -2.15753497      -0.80624023       1.51359291
C       -2.06829451      -0.74623133       0.15640569
C       -0.72683678       0.51402402      -0.54224503
C        0.71187319       0.35246013      -0.23620192
C        1.97295209       0.87126004      -0.75071267
N        1.51907313       1.17710182       0.62484707
C        0.11959816      -0.96407234      -0.01600722
H       -2.38339617       0.06944046       1.84394760
H       -1.97692750      -1.76991631      -0.21743042
H       -1.19499973       1.31229785       0.02140389
H       -0.99754989       0.55774498      -1.58874520
H        1.97618944       1.72157625      -1.42281170
H        2.79965544       0.17952590      -0.87622025
H        2.03741389       0.60895862       1.28649152
H        0.25172746      -1.71393543      -0.78665159
H        0.11705675      -1.36399444       0.99033730
16
Frame=3 idx=009854 GeodesicLength=0.28699969909412737 rxn_smarts="[O:1]([C@@:2]1([H:9])[C:3]([H:10])([H:11])[C@:4]2([C:5]([H:12])([H:13])[N:6]2[H:14])[C:7]1([H:15])[H:16])[H:8]>>[C:3]1([H:10])([H:11])[C:4]2([C:5]([H:12])([H:13])[N:6]2[H:14])[C:7]1([H:15])[H:16].[O:1]([C:2][H:9])[H:8]"
O       -2.12805058      -0.76809732       1.55159521
C       -2.06529150      -0.74163654       0.19361047
C       -0.73248684       0.49354170      -0.59031477
C        0.69904412       0.34240600      -0.24706164
C        1.96577642       0.89031713      -0.71462845
N        1.46943340       1.16097783       0.65374458
C        0.11553853      -0.98481242      -0.05815475
H       -2.23909272       0.13328136       1.87588235
H       -2.04417217      -1.77455221      -0.16573443
H       -1.21796499       1.30891342      -0.06690693
H       -0.98487152       0.52138374      -1.64230202
H        1.97514559       1.75484181      -1.36831002
H        2.80554996       0.21293642      -0.83109604
H        1.98189615       0.58862372       1.31634054
H        0.25595564      -1.72062831      -0.84120459
H        0.14359051      -1.41749633       0.93454049
16
Frame=4 idx=009854 GeodesicLength=0.3854337329607134 rxn_smarts="[O:1]([C@@:2]1([H:9])[C:3]([H:10])([H:11])[C@:4]2([C:5]([H:12])([H:13])[N:6]2[H:14])[C:7]1([H:15])[H:16])[H:8]>>[C:3]1([H:10])([H:11])[C:4]2([C:5]([H:12])([H:13])[N:6]2[H:14])[C:7]1([H:15])[H:16].[O:1]([C:2][H:9])[H:8]"
O       -2.09795373      -0.72642160       1.58718968
C       -2.05926506      -0.73511791       0.22993404
C       -0.73751081       0.47359217      -0.63678081
C        0.68612161       0.33227426      -0.25744669
C        1.95630318       0.90814756      -0.67897887
N        1.41962900       1.14397556       0.68067467
C        0.11188787      -1.00491415      -0.09831192
H       -2.09488855       0.18767248       1.89890976
H       -2.11072462      -1.77339629      -0.11085324
H       -1.23997182       1.30211768      -0.15111925
H       -0.97056018       0.48790254      -1.69387377
H        1.97036030       1.78605785      -1.31449020
H        2.80859250       0.24506943      -0.78615659
H        1.92687969       0.56777225       1.34393722
H        0.26289132      -1.72701792      -0.89252574
H        0.16820931      -1.46771392       0.87989171
16
Frame=5 idx=009854 GeodesicLength=0.4856234876158322 rxn_smarts="[O:1]([C@@:2]1([H:9])[C:3]([H:10])([H:11])[C@:4]2([C:5]([H:12])([H:13])[N:6]2[H:14])[C:7]1([H:15])[H:16])[H:8]>>[C:3]1([H:10])([H:11])[C:4]2([C:5]([H:12])([H:13])[N:6]2[H:14])[C:7]1([H:15])[H:16].[O:1]([C:2][H:9])[H:8]"
O       -2.06544997      -0.67917015       1.62131413
C       -2.04943730      -0.72830280       0.26615056
C       -0.74180643       0.45358118      -0.68129666
C        0.67343613       0.32163776      -0.26747951
C        1.94462308       0.92535207      -0.64367004
N        1.37030592       1.12454200       0.70643708
C        0.10933310      -1.02514632      -0.13780437
H       -1.95917281       0.23778536       1.91065735
H       -2.17496604      -1.76841776      -0.04933424
H       -1.26077399       1.29175288      -0.23054340
H       -0.95511944       0.45745977      -1.74299180
H        1.96154088       1.81702466      -1.25957472
H        2.80900167       0.27695059      -0.74286669
H        1.87352668       0.54401454       1.36893999
H        0.27274156      -1.73280920      -0.94290846
H        0.19221696      -1.51625457       0.82497081
16
Frame=6 idx=009854 GeodesicLength=0.5866250641310566 rxn_smarts="[O:1]([C@@:2]1([H:9])[C:3]([H:10])([H:11])[C@:4]2([C:5]([H:12])([H:13])[N:6]2[H:14])[C:7]1([H:15])[H:16])[H:8]>>[C:3]1([H:10])([H:11])[C:4]2([C:5]([H:12])([H:13])[N:6]2[H:14])[C:7]1([H:15])[H:16].[O:1]([C:2][H:9])[H:8]"
O       -2.03462726      -0.63014653       1.65202751
C       -2.03699722      -0.72126010       0.30064567
C       -0.74527325       0.43418382      -0.72318391
C        0.66129483       0.31109738      -0.27677327
C        1.93135176       0.94131336      -0.60992825
N        1.32278919       1.10454394       0.72995706
C        0.10765942      -1.04463746      -0.17468218
H       -1.82993112       0.27950027       1.91551245
H       -2.23797919      -1.75786807       0.01341987
H       -1.28056393       1.27852713      -0.30384964
H       -0.93807028       0.43071781      -1.78920525
H        1.94932499       1.84584107      -1.20672303
H        2.80713782       0.30738243      -0.70176842
H        1.82311517       0.52002943       1.39112058
H        0.28590133      -1.73820513      -0.98934873
H        0.21486775      -1.56101934       0.77277954
16
Frame=7 idx=009854 GeodesicLength=0.6883618284624038 rxn_smarts="[O:1]([C@@:2]1([H:9])[C:3]([H:10])([H:11])[C@:4]2([C:5]([H:12])([H:13])[N:6]2[H:14])[C:7]1([H:15])[H:16])[H:8]>>[C:3]1([H:10])([H:11])[C:4]2([C:5]([H:12])([H:13])[N:6]2[H:14])[C:7]1([H:15])[H:16].[O:1]([C:2][H:9])[H:8]"
O       -2.00556143      -0.57928756       1.67952735
C       -2.02207914      -0.71483793       0.33363338
C       -0.74792457       0.41516348      -0.76242900
C        0.64982683       0.30058673      -0.28533412
C        1.91679329       0.95621397      -0.57782907
N        1.27747798       1.08382185       0.75151166
C        0.10707440      -1.06360684      -0.20934738
H       -1.70939723       0.31449695       1.91453129
H       -2.29988703      -1.74196352       0.07738020
H       -1.29950468       1.26265920      -0.37123166
H       -0.91959317       0.40738308      -1.83248385
H        1.93403970       1.87293377      -1.15571045
H        2.80340681       0.33668222      -0.66326247
H        1.77611616       0.49552460       1.41058094
H        0.30231248      -1.74307390      -1.03251349
H        0.23689959      -1.60269611       0.72297668
16
Frame=8 idx=009854 GeodesicLength=0.7907812500437198 rxn_smarts="[O:1]([C@@:2]1([H:9])[C:3]([H:10])([H:11])[C@:4]2([C:5]([H:12])([H:13])[N:6]2[H:14])[C:7]1([H:15])[H:16])[H:8]>>[C:3]1([H:10])([H:11])[C:4]2([C:5]([H:12])([H:13])[N:6]2[H:14])[C:7]1([H:15])[H:16].[O:1]([C:2][H:9])[H:8]"
O       -1.97815949      -0.52675571       1.70400266
C       -2.00477167      -0.70981921       0.36541068
C       -0.74982567       0.39630409      -0.79913663
C        0.63906491       0.29005226      -0.29313440
C        1.90117146       0.97019748      -0.54734977
N        1.23461265       1.06230198       0.77143695
C        0.10776502      -1.08230784      -0.24219624
H       -1.59882911       0.34454012       1.90901543
H       -2.36094095      -1.72064717       0.14220133
H       -1.31788792       1.24433128      -0.43314102
H       -0.89987072       0.38715093      -1.87296455
H        1.91592872       1.89859715      -1.10638387
H        2.79815059       0.36509536      -0.62749740
H        1.73279434       0.47030815       1.42759206
H        0.32183660      -1.74738404      -1.07305276
H        0.25896123      -1.64196486       0.67519754
16
Frame=9 idx=009854 GeodesicLength=0.8942699600208781 rxn_smarts="[O:1]([C@@:2]1([H:9])[C:3]([H:10])([H:11])[C@:4]2([C:5]([H:12])([H:13])[N:6]2[H:14])[C:7]1([H:15])[H:16])[H:8]>>[C:3]1([H:10])([H:11])[C:4]2([C:5]([H:12])([H:13])[N:6]2[H:14])[C:7]1([H:15])[H:16].[O:1]([C:2][H:9])[H:8]"
O       -1.94968753      -0.47177326       1.72595986
C       -1.98441975      -0.70699267       0.39716109
C       -0.75119677       0.37702898      -0.83359975
C        0.62877844       0.27907251      -0.30034708
C        1.88436727       0.98332312      -0.51769538
N        1.19358754       1.03870475       0.79047290
C        0.11001459      -1.10128670      -0.27484461
H       -1.50154042       0.37533477       1.89812128
H       -2.41963655      -1.69426079       0.21041766
H       -1.33615792       1.22309564      -0.49026938
H       -0.87932109       0.36969388      -1.91076868
H        1.89495257       1.92336648      -1.05693544
H        2.79147264       0.39310083      -0.59394800
H        1.69233989       0.44265537       1.44247544
H        0.34423938      -1.75063740      -1.11329844
H        0.28220770      -1.68042551       0.62709852
16
Frame=10 idx=009854 GeodesicLength=0.99747419069724 rxn_smarts="[O:1]([C@@:2]1([H:9])[C:3]([H:10])([H:11])[C@:4]2([C:5]([H:12])([H:13])[N:6]2[H:14])[C:7]1([H:15])[H:16])[H:8]>>[C:3]1([H:10])([H:11])[C:4]2([C:5]([H:12])([H:13])[N:6]2[H:14])[C:7]1([H:15])[H:16].[O:1]([C:2][H:9])[H:8]"
O       -1.92545380      -0.41676641       1.74429057
C       -1.96235750      -0.70676424       0.42773420
C       -0.75192156       0.35772833      -0.86531386
C        0.61926917       0.26825377      -0.30655328
C        1.86696009       0.99558456      -0.49018464
N        1.15568279       1.01526114       0.80778218
C        0.11373793      -1.11984985      -0.30503614
H       -1.41186017       0.40015573       1.88607594
H       -2.47919515      -1.66045239       0.27558579
H       -1.35437848       1.19946005      -0.54202773
H       -0.85788363       0.35469894      -1.94547535
H        1.87166666       1.94631248      -1.01040786
H        2.78377136       0.42026527      -0.56358566
H        1.65625999       0.41563214       1.45509686
H        0.36956101      -1.75333826      -1.15000257
H        0.30614130      -1.71618126       0.58202154
16
Frame=11 idx=009854 GeodesicLength=1.1005078259281598 rxn_smarts="[O:1]([C@@:2]1([H:9])[C:3]([H:10])([H:11])[C@:4]2([C:5]([H:12])([H:13])[N:6]2[H:14])[C:7]1([H:15])[H:16])[H:8]>>[C:3]1([H:10])([H:11])[C:4]2([C:5]([H:12])([H:13])[N:6]2[H:14])[C:7]1([H:15])[H:16].[O:1]([C:2][H:9])[H:8]"
O       -1.90428685      -0.36112189       1.75922882
C       -1.93836940      -0.70974659       0.45805766
C       -0.75220156       0.33792072      -0.89449752
C        0.61034892       0.25734459      -0.31181617
C        1.84887077       1.00711181      -0.46441632
N        1.12050748       0.99149945       0.82383549
C        0.11911553      -1.13838866      -0.33349302
H       -1.33023564       0.42114799       1.87310439
H       -2.53928998      -1.61821424       0.33785521
H       -1.37292979       1.17303629      -0.58904295
H       -0.83597546       0.34157183      -1.97720876
H        1.84603918       1.96781312      -0.96597012
H        2.77512515       0.44697759      -0.53607916
H        1.62407226       0.38862077       1.46580769
H        0.39760214      -1.75538778      -1.18424361
H        0.33160725      -1.75018501       0.53887839
16
Frame=12 idx=009854 GeodesicLength=1.2035044053774155 rxn_smarts="[O:1]([C@@:2]1([H:9])[C:3]([H:10])([H:11])[C@:4]2([C:5]([H:12])([H:13])[N:6]2[H:14])[C:7]1([H:15])[H:16])[H:8]>>[C:3]1([H:10])([H:11])[C:4]2([C:5]([H:12])([H:13])[N:6]2[H:14])[C:7]1([H:15])[H:16].[O:1]([C:2][H:9])[H:8]"
O       -1.88515149      -0.30463782       1.77083546
C       -1.91234816      -0.71642269       0.48901558
C       -0.75230376       0.31722929      -0.92127996
C        0.60176847       0.24613222      -0.31614463
C        1.82996091       1.01790151      -0.44004109
N        1.08768850       0.96707553       0.83901148
C        0.12621466      -1.15720413      -0.36072788
H       -1.25669509       0.44026624       1.85936709
H       -2.59888593      -1.56645453       0.39679974
H       -1.39222791       1.14346265      -0.63172393
H       -0.81407994       0.32990573      -2.00603726
H        1.81799983       1.98798900      -0.92302420
H        2.76549418       0.47339851      -0.51103802
H        1.59527179       0.36117000       1.47495365
H        0.42806752      -1.75671006      -1.21681574
H        0.35922641      -1.78310144       0.49684969
16
Frame=13 idx=009854 GeodesicLength=1.3058767410333165 rxn_smarts="[O:1]([C@@:2]1([H:9])[C:3]([H:10])([H:11])[C@:4]2([C:5]([H:12])([H:13])[N:6]2[H:14])[C:7]1([H:15])[H:16])[H:8]>>[C:3]1([H:10])([H:11])[C:4]2([C:5]([H:12])([H:13])[N:6]2[H:14])[C:7]1([H:15])[H:16].[O:1]([C:2][H:9])[H:8]"
O       -1.86960595      -0.24757642       1.77854286
C       -1.88473135      -0.72745481       0.52107394
C       -0.75237749       0.29530730      -0.94530256
C        0.59346973       0.23467218      -0.31925825
C        1.81017980       1.02816086      -0.41754097
N        1.05750679       0.94279501       0.85318329
C        0.13515023      -1.17627156      -0.38582588
H       -1.18817756       0.45375368       1.84712209
H       -2.65911006      -1.50167220       0.44803674
H       -1.41251675       1.11035674      -0.66991116
H       -0.79260105       0.31891286      -2.03155244
H        1.78730616       2.00672028      -0.88267448
H        2.75485078       0.49981961      -0.48904015
H        1.57043934       0.33452297       1.48254378
H        0.46089909      -1.75758545      -1.24654913
H        0.38931831      -1.81446105       0.45715231
16
Frame=14 idx=009854 GeodesicLength=1.408119970629938 rxn_smarts="[O:1]([C@@:2]1([H:9])[C:3]([H:10])([H:11])[C@:4]2([C:5]([H:12])([H:13])[N:6]2[H:14])[C:7]1([H:15])[H:16])[H:8]>>[C:3]1([H:10])([H:11])[C:4]2([C:5]([H:12])([H:13])[N:6]2[H:14])[C:7]1([H:15])[H:16].[O:1]([C:2][H:9])[H:8]"
O       -1.85529560      -0.18991525       1.78243515
C       -1.85598754      -0.74237673       0.55521930
C       -0.75290212       0.27203604      -0.96678428
C        0.58488918       0.22268779      -0.32110939
C        1.78919833       1.03759504      -0.39633426
N        1.02930636       0.91806114       0.86686644
C        0.14541518      -1.19583229      -0.40941810
H       -1.12553669       0.46489361       1.83584778
H       -2.71519354      -1.42427042       0.49138396
H       -1.43417133       1.07370655      -0.70412567
H       -0.77215138       0.30854572      -2.05394106
H        1.75392276       2.02388511      -0.84400313
H        2.74284558       0.52593590      -0.46940469
H        1.54859662       0.30781533       1.48905985
H        0.49524408      -1.75783314      -1.27441380
H        0.42182010      -1.84493441       0.41872190
16
Frame=15 idx=009854 GeodesicLength=1.5107778742355578 rxn_smarts="[O:1]([C@@:2]1([H:9])[C:3]([H:10])([H:11])[C@:4]2([C:5]([H:12])([H:13])[N:6]2[H:14])[C:7]1([H:15])[H:16])[H:8]>>[C:3]1([H:10])([H:11])[C:4]2([C:5]([H:12])([H:13])[N:6]2[H:14])[C:7]1([H:15])[H:16].[O:1]([C:2][H:9])[H:8]"
O       -1.84090784      -0.13205740       1.78257290
C       -1.82733500      -0.75948803       0.59163951
C       -0.75421620       0.24795683      -0.98601576
C        0.57551687       0.21015609      -0.32162803
C        1.76695556       1.04575614      -0.37606493
N        1.00271138       0.89268789       0.88034990
C        0.15598195      -1.21567721      -0.43169837
H       -1.06896230       0.47599139       1.82512553
H       -2.76140835      -1.33788616       0.52692964
H       -1.45718025       1.03434987      -0.73496244
H       -0.75304862       0.29926113      -2.07345632
H        1.71833283       2.03908186      -0.80656262
H        2.72923357       0.55097606      -0.45162646
H        1.52892265       0.28060175       1.49485748
H        0.52977898      -1.75722137      -1.30066140
H        0.45562477      -1.87448885       0.38120138
16
Frame=16 idx=009854 GeodesicLength=1.614412878080464 rxn_smarts="[O:1]([C@@:2]1([H:9])[C:3]([H:10])([H:11])[C@:4]2([C:5]([H:12])([H:13])[N:6]2[H:14])[C:7]1([H:15])[H:16])[H:8]>>[C:3]1([H:10])([H:11])[C:4]2([C:5]([H:12])([H:13])[N:6]2[H:14])[C:7]1([H:15])[H:16].[O:1]([C:2][H:9])[H:8]"
O       -1.82585697      -0.07452229       1.77924479
C       -1.80006502      -0.77629502       0.62979221
C       -0.75637163       0.22409101      -1.00350229
C        0.56508953       0.19727863      -0.32088746
C        1.74378508       1.05223581      -0.35649088
N        0.97754099       0.86680012       0.89372916
C        0.16570024      -1.23531388      -0.45278160
H       -1.01841229       0.48892107       1.81443344
H       -2.79362312      -1.24918390       0.55618901
H       -1.48113842       0.99373208      -0.76323467
H       -0.73521749       0.29185924      -2.09056389
H        1.68161368       2.05192847      -0.77014418
H        2.71409858       0.57399981      -0.43519678
H        1.51065198       0.25272100       1.50021406
H        0.56310177      -1.75550461      -1.32530932
H        0.48910310      -1.90274755       0.34450841
