11
Frame=0 idx=009942 GeodesicLength=0.0 rxn_smarts="[C:1]([C:2](=[O:3])[C:4](=[O:5])[C:6](=[O:7])[H:11])([H:8])([H:9])[H:10]>>[C:1]([C-:2]=[O+:3][C@:6]1([H:11])[C:4](=[O:5])[O:7]1)([H:8])([H:9])[H:10]"
C       -1.71594389       0.14343585      -0.73112880
C       -0.40546606      -0.05318232      -0.09495234
O        0.54396155      -0.46795890      -0.84670971
C        0.96827742       0.05894147       1.31611265
O        0.77939518       0.01267358       2.48904372
C        1.66540003      -0.37288051       0.11357486
O        1.80345697       0.95325963       0.50016181
H       -2.48843160      -0.30705960      -0.10582061
H       -1.76826220      -0.22100878      -1.75855036
H       -1.90557871       1.22230914      -0.70729997
H        2.52319129      -0.96852955      -0.17443126
11
Frame=1 idx=009942 GeodesicLength=0.07992637340608376 rxn_smarts="[C:1]([C:2](=[O:3])[C:4](=[O:5])[C:6](=[O:7])[H:11])([H:8])([H:9])[H:10]>>[C:1]([C-:2]=[O+:3][C@:6]1([H:11])[C:4](=[O:5])[O:7]1)([H:8])([H:9])[H:10]"
C       -1.72046720       0.14453847      -0.72957636
C       -0.41209124      -0.07923992      -0.09682355
O        0.53644135      -0.48268420      -0.85359836
C        0.96370369       0.06307089       1.30955297
O        0.77609256      -0.00349639       2.48148469
C        1.67871315      -0.35929702       0.11215594
O        1.80841080       0.96574734       0.48761423
H       -2.49813854      -0.29627868      -0.10372372
H       -1.77892168      -0.21500505      -1.75832629
H       -1.89390650       1.22598774      -0.70141063
H        2.54016362      -0.96334318      -0.14734892
11
Frame=2 idx=009942 GeodesicLength=0.1598412452436451 rxn_smarts="[C:1]([C:2](=[O:3])[C:4](=[O:5])[C:6](=[O:7])[H:11])([H:8])([H:9])[H:10]>>[C:1]([C-:2]=[O+:3][C@:6]1([H:11])[C:4](=[O:5])[O:7]1)([H:8])([H:9])[H:10]"
C       -1.72481319       0.14558563      -0.72779522
C       -0.41811956      -0.10355841      -0.09979345
O        0.52930729      -0.49591590      -0.86150160
C        0.95860503       0.06694155       1.30262066
O        0.77178237      -0.02029393       2.47313576
C        1.69181653      -0.34593718       0.11084360
O        1.81456208       0.97768356       0.47567070
H       -2.50647186      -0.28544581      -0.10002545
H       -1.79010368      -0.21015252      -1.75739120
H       -1.88286150       1.22925851      -0.69632998
H        2.55629649      -0.95816551      -0.11943380
11
Frame=3 idx=009942 GeodesicLength=0.23975844923590064 rxn_smarts="[C:1]([C:2](=[O:3])[C:4](=[O:5])[C:6](=[O:7])[H:11])([H:8])([H:9])[H:10]>>[C:1]([C-:2]=[O+:3][C@:6]1([H:11])[C:4](=[O:5])[O:7]1)([H:8])([H:9])[H:10]"
C       -1.72900190       0.14658423      -0.72581342
C       -0.42367352      -0.12657052      -0.10367583
O        0.52243554      -0.50803215      -0.87027487
C        0.95307376       0.07060865       1.29535687
O        0.76663705      -0.03735928       2.46405951
C        1.70477708      -0.33287880       0.10973560
O        1.82177366       0.98912119       0.46413279
H       -2.51363980      -0.27476365      -0.09512031
H       -1.80169308      -0.20597667      -1.75594328
H       -1.87234604       1.23217770      -0.69167795
H        2.57165725      -0.95291072      -0.09077911
11
Frame=4 idx=009942 GeodesicLength=0.3196749748886615 rxn_smarts="[C:1]([C:2](=[O:3])[C:4](=[O:5])[C:6](=[O:7])[H:11])([H:8])([H:9])[H:10]>>[C:1]([C-:2]=[O+:3][C@:6]1([H:11])[C:4](=[O:5])[O:7]1)([H:8])([H:9])[H:10]"
C       -1.73307505       0.14753211      -0.72366037
C       -0.42880006      -0.14834884      -0.10838565
O        0.51576451      -0.51910433      -0.87986389
C        0.94719097       0.07407969       1.28780455
O        0.76074205      -0.05452092       2.45431551
C        1.71766140      -0.32018097       0.10891444
O        1.83008555       1.00004876       0.45298630
H       -2.51974577      -0.26435261      -0.08917413
H       -1.81365830      -0.20233942      -1.75406073
H       -1.86242806       1.23477208      -0.68738338
H        2.58626275      -0.94758555      -0.06149265
11
Frame=5 idx=009942 GeodesicLength=0.39962397387568127 rxn_smarts="[C:1]([C:2](=[O:3])[C:4](=[O:5])[C:6](=[O:7])[H:11])([H:8])([H:9])[H:10]>>[C:1]([C-:2]=[O+:3][C@:6]1([H:11])[C:4](=[O:5])[O:7]1)([H:8])([H:9])[H:10]"
C       -1.73712375       0.14839330      -0.72138193
C       -0.43343098      -0.16835882      -0.11395527
O        0.50930171      -0.52865551      -0.89035027
C        0.94107825       0.07734378       1.28005352
O        0.75406675      -0.07185657       2.44390809
C        1.73056942      -0.30783589       0.10850387
O        1.83988946       1.01038172       0.44255676
H       -2.52470104      -0.25428072      -0.08208310
H       -1.82611712      -0.19963528      -1.75164902
H       -1.85351107       1.23700879      -0.68384088
H        2.59997838      -0.94250479      -0.03176176
11
Frame=6 idx=009942 GeodesicLength=0.4795610724669723 rxn_smarts="[C:1]([C:2](=[O:3])[C:4](=[O:5])[C:6](=[O:7])[H:11])([H:8])([H:9])[H:10]>>[C:1]([C-:2]=[O+:3][C@:6]1([H:11])[C:4](=[O:5])[O:7]1)([H:8])([H:9])[H:10]"
C       -1.74096444       0.14924344      -0.71890279
C       -0.43791593      -0.18851082      -0.12002094
O        0.50281466      -0.53833135      -0.90136957
C        0.93461208       0.08050617       1.27195331
O        0.74688773      -0.08854352       2.43291877
C        1.74342346      -0.29590770       0.10843733
O        1.85008640       1.02040230       0.43186779
H       -2.52903894      -0.24473208      -0.07472543
H       -1.83859337      -0.19624757      -1.74919348
H       -1.84453126       1.23905541      -0.67952416
H        2.61321962      -0.93693427      -0.00144083
11
Frame=7 idx=009942 GeodesicLength=0.5595596558035291 rxn_smarts="[C:1]([C:2](=[O:3])[C:4](=[O:5])[C:6](=[O:7])[H:11])([H:8])([H:9])[H:10]>>[C:1]([C-:2]=[O+:3][C@:6]1([H:11])[C:4](=[O:5])[O:7]1)([H:8])([H:9])[H:10]"
C       -1.74475752       0.15003806      -0.71628901
C       -0.44208734      -0.20771855      -0.12674592
O        0.49638719      -0.54720380      -0.91311095
C        0.92794731       0.08346974       1.26360808
O        0.73907650      -0.10502287       2.42138844
C        1.75637992      -0.28436954       0.10880080
O        1.86135465       1.02997141       0.42151471
H       -2.53257190      -0.23559774      -0.06664622
H       -1.85139301      -0.19313487      -1.74641316
H       -1.83614520       1.24085302      -0.67540568
H        2.62580939      -0.93128486       0.02929891
11
Frame=8 idx=009942 GeodesicLength=0.6394295078472392 rxn_smarts="[C:1]([C:2](=[O:3])[C:4](=[O:5])[C:6](=[O:7])[H:11])([H:8])([H:9])[H:10]>>[C:1]([C-:2]=[O+:3][C@:6]1([H:11])[C:4](=[O:5])[O:7]1)([H:8])([H:9])[H:10]"
C       -1.74856028       0.15072194      -0.71358648
C       -0.44587677      -0.22542438      -0.13416881
O        0.49001418      -0.55468827      -0.92567183
C        0.92118657       0.08625882       1.25508215
O        0.73062485      -0.12127850       2.40930185
C        1.76945397      -0.27321863       0.10969812
O        1.87404713       1.03897184       0.41183757
H       -2.53510470      -0.22698597      -0.05779110
H       -1.86461185      -0.19069737      -1.74320650
H       -1.82874896       1.24231873      -0.67177965
H        2.63757586      -0.92597819       0.06028468
11
Frame=9 idx=009942 GeodesicLength=0.7193729579729937 rxn_smarts="[C:1]([C:2](=[O:3])[C:4](=[O:5])[C:6](=[O:7])[H:11])([H:8])([H:9])[H:10]>>[C:1]([C-:2]=[O+:3][C@:6]1([H:11])[C:4](=[O:5])[O:7]1)([H:8])([H:9])[H:10]"
C       -1.75232289       0.15135450      -0.71075413
C       -0.44944371      -0.24255774      -0.14214977
O        0.48360664      -0.56165825      -0.93890824
C        0.91427306       0.08886267       1.24629773
O        0.72164569      -0.13708997       2.39670484
C        1.78268398      -0.26243696       0.11109348
O        1.88765481       1.04757125       0.40238320
H       -2.53699848      -0.21887238      -0.04844476
H       -1.87807351      -0.18824277      -1.73977914
H       -1.82182653       1.24360631      -0.66808526
H        2.64880095      -0.92053666       0.09164206
11
Frame=10 idx=009942 GeodesicLength=0.7993514645500168 rxn_smarts="[C:1]([C:2](=[O:3])[C:4](=[O:5])[C:6](=[O:7])[H:11])([H:8])([H:9])[H:10]>>[C:1]([C-:2]=[O+:3][C@:6]1([H:11])[C:4](=[O:5])[O:7]1)([H:8])([H:9])[H:10]"
C       -1.75594631       0.15194652      -0.70774726
C       -0.45288270      -0.25968771      -0.15063927
O        0.47709953      -0.56854395      -0.95277023
C        0.90712349       0.09129360       1.23716760
O        0.71214241      -0.15226531       2.38358195
C        1.79601978      -0.25198461       0.11296507
O        1.90181072       1.05587188       0.39289039
H       -2.53831849      -0.21123807      -0.03879616
H       -1.89166461      -0.18536269      -1.73620302
H       -1.81496054       1.24472522      -0.66387669
H        2.65957672      -0.91475489       0.12342763
11
Frame=11 idx=009942 GeodesicLength=0.8793805462973293 rxn_smarts="[C:1]([C:2](=[O:3])[C:4](=[O:5])[C:6](=[O:7])[H:11])([H:8])([H:9])[H:10]>>[C:1]([C-:2]=[O+:3][C@:6]1([H:11])[C:4](=[O:5])[O:7]1)([H:8])([H:9])[H:10]"
C       -1.75942430       0.15248569      -0.70455458
C       -0.45619029      -0.27682837      -0.15967435
O        0.47048970      -0.57528361      -0.96731701
C        0.89973231       0.09352832       1.22764785
O        0.70204291      -0.16684268       2.36995211
C        1.80948970      -0.24182833       0.11531721
O        1.91652024       1.06390700       0.38338756
H       -2.53903358      -0.20402450      -0.02877437
H       -1.90544416      -0.18213893      -1.73242557
H       -1.80808940       1.24566978      -0.65921095
H        2.66990686      -0.90864438       0.15565210
11
Frame=12 idx=009942 GeodesicLength=0.959506314039482 rxn_smarts="[C:1]([C:2](=[O:3])[C:4](=[O:5])[C:6](=[O:7])[H:11])([H:8])([H:9])[H:10]>>[C:1]([C-:2]=[O+:3][C@:6]1([H:11])[C:4](=[O:5])[O:7]1)([H:8])([H:9])[H:10]"
C       -1.76264927       0.15298214      -0.70110948
C       -0.45943841      -0.29452750      -0.16925653
O        0.46373016      -0.58233324      -0.98254586
C        0.89198346       0.09560706       1.21761953
O        0.69130476      -0.18056955       2.35576458
C        1.82303429      -0.23194148       0.11813156
O        1.93147298       1.07175100       0.37357121
H       -2.53919711      -0.19733631      -0.01854881
H       -1.91926057      -0.17805507      -1.72853313
H       -1.80082888       1.24644514      -0.65353940
H        2.67984860      -0.90202219       0.18844633
11
Frame=13 idx=009942 GeodesicLength=1.0396979327581701 rxn_smarts="[C:1]([C:2](=[O:3])[C:4](=[O:5])[C:6](=[O:7])[H:11])([H:8])([H:9])[H:10]>>[C:1]([C-:2]=[O+:3][C@:6]1([H:11])[C:4](=[O:5])[O:7]1)([H:8])([H:9])[H:10]"
C       -1.76580004       0.15339648      -0.69749901
C       -0.46249147      -0.31182865      -0.17949655
O        0.45687209      -0.58884691      -0.99861054
C        0.88407079       0.09746034       1.20719352
O        0.67994253      -0.19381553       2.34103823
C        1.83677979      -0.22231792       0.12150915
O        1.94728059       1.07925515       0.36399749
H       -2.53865068      -0.19105356      -0.00774514
H       -1.93342779      -0.17401677      -1.72429720
H       -1.79383811       1.24702847      -0.64778996
H        2.68926229      -0.89526109       0.22170001
11
Frame=14 idx=009942 GeodesicLength=1.1199983353745682 rxn_smarts="[C:1]([C:2](=[O:3])[C:4](=[O:5])[C:6](=[O:7])[H:11])([H:8])([H:9])[H:10]>>[C:1]([C-:2]=[O+:3][C@:6]1([H:11])[C:4](=[O:5])[O:7]1)([H:8])([H:9])[H:10]"
C       -1.76881749       0.15372646      -0.69367900
C       -0.46538695      -0.32906241      -0.19042574
O        0.44989210      -0.59503618      -1.01555262
C        0.87593110       0.09911170       1.19626896
O        0.66789477      -0.20644509       2.32574312
C        1.85071120      -0.21294087       0.12544637
O        1.96378929       1.08646457       0.35449792
H       -2.53740343      -0.18522218       0.00357472
H       -1.94790153      -0.16975643      -1.71974237
H       -1.78688356       1.24741882      -0.64166122
H        2.69817448      -0.88825837       0.25552986
11
Frame=15 idx=009942 GeodesicLength=1.2004307609205522 rxn_smarts="[C:1]([C:2](=[O:3])[C:4](=[O:5])[C:6](=[O:7])[H:11])([H:8])([H:9])[H:10]>>[C:1]([C-:2]=[O+:3][C@:6]1([H:11])[C:4](=[O:5])[O:7]1)([H:8])([H:9])[H:10]"
C       -1.77165437       0.15396560      -0.68961500
C       -0.46813593      -0.34639943      -0.20209923
O        0.44277648      -0.60096975      -1.03344035
C        0.86751753       0.10055392       1.18476585
O        0.65509264      -0.21843010       2.30982588
C        1.86481288      -0.20378184       0.12995539
O        1.98091621       1.09340628       0.34501730
H       -2.53540635      -0.17981236       0.01544908
H       -1.96269748      -0.16520621      -1.71482548
H       -1.77979867       1.24761214      -0.63505567
H        2.70657706      -0.88093825       0.29002224
11
Frame=16 idx=009942 GeodesicLength=1.2809915253127755 rxn_smarts="[C:1]([C:2](=[O:3])[C:4](=[O:5])[C:6](=[O:7])[H:11])([H:8])([H:9])[H:10]>>[C:1]([C-:2]=[O+:3][C@:6]1([H:11])[C:4](=[O:5])[O:7]1)([H:8])([H:9])[H:10]"
C       -1.77439642       0.15407852      -0.68533181
C       -0.47068998      -0.36346152      -0.21456526
O        0.43550730      -0.60632962      -1.05234597
C        0.85894276       0.10184933       1.17267573
O        0.64155991      -0.22968309       2.29327812
C        1.87914312      -0.19489526       0.13510549
O        1.99901088       1.09995852       0.33568532
H       -2.53262046      -0.17503421       0.02788822
H       -1.97786459      -0.16051256      -1.70952054
H       -1.77295480       1.24757332      -0.62808677
H        2.71436228      -0.87354343       0.32521747
