16
Frame=0 idx=008095 GeodesicLength=0.0 rxn_smarts="[C:1](/[C:2](=[N:3]/[H:11])[O:4][C:5]1([H:12])[C:6]([H:13])([H:14])[C:7]1([H:15])[H:16])([H:8])([H:9])[H:10]>>[C:1]([C:2]([N:3]([H:11])[H:13])=[O:4])([H:8])([H:9])[H:10].[C:5]1([H:12])=[C:6]([H:14])[C:7]1([H:15])[H:16]"
C        2.23644864      -0.79691441       0.06404975
C        1.23772436       0.32016019       0.12304849
N        0.86145304       0.87660058      -1.04325841
O        0.60438893       0.53790404       1.18290599
C       -1.20026520      -0.27955977       0.78455187
C       -1.39268405      -0.36748664      -0.55539139
C       -2.10702970       0.72458363       0.20860187
H        2.67826396      -0.96210425       1.04455992
H        1.70033827      -1.70738535      -0.22732932
H        3.00332433      -0.60548175      -0.68296696
H        0.35814444       1.73458302      -0.81672411
H       -1.14190400      -0.88577734       1.66978700
H       -0.21716757       0.20127265      -1.10489864
H       -1.70625690      -1.18759971      -1.18324838
H       -1.75150808       1.74376966       0.07948720
H       -3.16327047       0.65343542       0.45682506
16
Frame=1 idx=008095 GeodesicLength=0.10502233870965877 rxn_smarts="[C:1](/[C:2](=[N:3]/[H:11])[O:4][C:5]1([H:12])[C:6]([H:13])([H:14])[C:7]1([H:15])[H:16])([H:8])([H:9])[H:10]>>[C:1]([C:2]([N:3]([H:11])[H:13])=[O:4])([H:8])([H:9])[H:10].[C:5]1([H:12])=[C:6]([H:14])[C:7]1([H:15])[H:16]"
C        2.24440412      -0.79757113       0.06453835
C        1.25119152       0.32405973       0.13043292
N        0.87757692       0.88850022      -1.03029431
O        0.60379226       0.52685476       1.18739345
C       -1.20381062      -0.27644285       0.78195077
C       -1.41099853      -0.37317945      -0.55733946
C       -2.11657549       0.72407926       0.20585488
H        2.68783452      -0.96556052       1.04402168
H        1.70922723      -1.70845338      -0.22573925
H        3.00935426      -0.60360959      -0.68388394
H        0.37351771       1.74521366      -0.80205313
H       -1.13164767      -0.88875887       1.66206815
H       -0.21178139       0.19946877      -1.12718909
H       -1.74345082      -1.19727101      -1.17038586
H       -1.77059916       1.74195610       0.04548793
H       -3.16803488       0.66071430       0.47513692
16
Frame=2 idx=008095 GeodesicLength=0.210010424310414 rxn_smarts="[C:1](/[C:2](=[N:3]/[H:11])[O:4][C:5]1([H:12])[C:6]([H:13])([H:14])[C:7]1([H:15])[H:16])([H:8])([H:9])[H:10]>>[C:1]([C:2]([N:3]([H:11])[H:13])=[O:4])([H:8])([H:9])[H:10].[C:5]1([H:12])=[C:6]([H:14])[C:7]1([H:15])[H:16]"
C        2.25265711      -0.79804730       0.06494429
C        1.26490014       0.32799972       0.13821105
N        0.89363158       0.90035565      -1.01684421
O        0.60318503       0.51527205       1.19184180
C       -1.20747152      -0.27335320       0.77918978
C       -1.42992525      -0.37932592      -0.55914082
C       -2.12602732       0.72373604       0.20295444
H        2.69777231      -0.96906852       1.04332283
H        1.71857551      -1.70936485      -0.22447836
H        3.01562356      -0.60122902      -0.68484762
H        0.38894656       1.75584256      -0.78677429
H       -1.12203957      -0.89174074       1.65401043
H       -0.20609218       0.19772970      -1.14993570
H       -1.78157128      -1.20715103      -1.15655764
H       -1.78995343       1.73929726       0.01065486
H       -3.17221123       0.66904757       0.49344915
16
Frame=3 idx=008095 GeodesicLength=0.31496170924429434 rxn_smarts="[C:1](/[C:2](=[N:3]/[H:11])[O:4][C:5]1([H:12])[C:6]([H:13])([H:14])[C:7]1([H:15])[H:16])([H:8])([H:9])[H:10]>>[C:1]([C:2]([N:3]([H:11])[H:13])=[O:4])([H:8])([H:9])[H:10].[C:5]1([H:12])=[C:6]([H:14])[C:7]1([H:15])[H:16]"
C        2.26121341      -0.79833137       0.06526462
C        1.27884723       0.33197802       0.14639570
N        0.90962007       0.91217712      -1.00288546
O        0.60255996       0.50312348       1.19622730
C       -1.21125177      -0.27030882       0.77624903
C       -1.44950880      -0.38596931      -0.56078137
C       -2.13536413       0.72355938       0.19986347
H        2.70808066      -0.97262762       1.04245479
H        1.72840008      -1.71010611      -0.22356854
H        3.02214114      -0.59831278      -0.68584926
H        0.40442582       1.76647035      -0.77085092
H       -1.11310072      -0.89471009       1.64563493
H       -0.20007838       0.19607224      -1.17318018
H       -1.82066721      -1.21724855      -1.14170860
H       -1.80956582       1.73573263      -0.02498406
H       -3.17575154       0.67850141       0.51171854
16
Frame=4 idx=008095 GeodesicLength=0.4198897481756011 rxn_smarts="[C:1](/[C:2](=[N:3]/[H:11])[O:4][C:5]1([H:12])[C:6]([H:13])([H:14])[C:7]1([H:15])[H:16])([H:8])([H:9])[H:10]>>[C:1]([C:2]([N:3]([H:11])[H:13])=[O:4])([H:8])([H:9])[H:10].[C:5]1([H:12])=[C:6]([H:14])[C:7]1([H:15])[H:16]"
C        2.27008316      -0.79840909       0.06549527
C        1.29302662       0.33598640       0.15500032
N        0.92554619       0.92397684      -0.98839362
O        0.60190702       0.49036769       1.20052353
C       -1.21515611      -0.26733344       0.77310208
C       -1.46980610      -0.39315809      -0.56224195
C       -2.14456387       0.72355241       0.19653866
H        2.71876235      -0.97623862       1.04141031
H        1.73872855      -1.71066190      -0.22304230
H        3.02892290      -0.59482108      -0.68687370
H        0.41994971       1.77709563      -0.75424114
H       -1.10486056      -0.89765076       1.63696494
H       -0.19371031       0.19451320      -1.19697034
H       -1.86080350      -1.22756958      -1.12576890
H       -1.82943336       1.73119387      -0.06140416
H       -3.17859269       0.68915650       0.52990100
16
Frame=5 idx=008095 GeodesicLength=0.5247883533812431 rxn_smarts="[C:1](/[C:2](=[N:3]/[H:11])[O:4][C:5]1([H:12])[C:6]([H:13])([H:14])[C:7]1([H:15])[H:16])([H:8])([H:9])[H:10]>>[C:1]([C:2]([N:3]([H:11])[H:13])=[O:4])([H:8])([H:9])[H:10].[C:5]1([H:12])=[C:6]([H:14])[C:7]1([H:15])[H:16]"
C        2.27927485      -0.79826698       0.06563045
C        1.30742900       0.34001775       0.16404299
N        0.94140581       0.93576655      -0.97334226
O        0.60121698       0.47696177       1.20471215
C       -1.21919438      -0.26444691       0.76972901
C       -1.49087208      -0.40093578      -0.56349758
C       -2.15359735       0.72373055       0.19293250
H        2.72982140      -0.97990478       1.04017967
H        1.74958901      -1.71102045      -0.22293562
H        3.03598224      -0.59070970      -0.68791145
H        0.43550782       1.78772139      -0.73690212
H       -1.09734897      -0.90055398       1.62802116
H       -0.18696030       0.19305911      -1.22135468
H       -1.90202595      -1.23812066      -1.10866912
H       -1.84956867       1.72558240      -0.09857720
H       -3.18065941       0.70111974       0.54794209
16
Frame=6 idx=008095 GeodesicLength=0.6296832162576815 rxn_smarts="[C:1](/[C:2](=[N:3]/[H:11])[O:4][C:5]1([H:12])[C:6]([H:13])([H:14])[C:7]1([H:15])[H:16])([H:8])([H:9])[H:10]>>[C:1]([C:2]([N:3]([H:11])[H:13])=[O:4])([H:8])([H:9])[H:10].[C:5]1([H:12])=[C:6]([H:14])[C:7]1([H:15])[H:16]"
C        2.28880032      -0.79788740       0.06566806
C        1.32204643       0.34406084       0.17353972
N        0.95720733       0.94756051      -0.95770456
O        0.60047699       0.46286195       1.20875306
C       -1.22336688      -0.26168205       0.76609262
C       -1.51277516      -0.40936111      -0.56452503
C       -2.16245079       0.72407707       0.18899609
H        2.74125530      -0.98362822       1.03875782
H        1.76101271      -1.71115996      -0.22328889
H        3.04334039      -0.58593382      -0.68893454
H        0.45109027       1.79834352      -0.71879314
H       -1.09059385      -0.90340658       1.61883046
H       -0.17978815       0.19174187      -1.24639833
H       -1.94442929      -1.24890056      -1.09030993
H       -1.86995115       1.71884180      -0.13645821
H       -3.18187445       0.71447216       0.56577478
16
Frame=7 idx=008095 GeodesicLength=0.7345715980247345 rxn_smarts="[C:1](/[C:2](=[N:3]/[H:11])[O:4][C:5]1([H:12])[C:6]([H:13])([H:14])[C:7]1([H:15])[H:16])([H:8])([H:9])[H:10]>>[C:1]([C:2]([N:3]([H:11])[H:13])=[O:4])([H:8])([H:9])[H:10].[C:5]1([H:12])=[C:6]([H:14])[C:7]1([H:15])[H:16]"
C        2.29866808      -0.79725694       0.06560458
C        1.33686549       0.34809997       0.18350487
N        0.97295240       0.95936831      -0.94145909
O        0.59967691       0.44802701       1.21260897
C       -1.22767931      -0.25906390       0.76216497
C       -1.53558678      -0.41848709      -0.56528947
C       -2.17110991       0.72458471       0.18467982
H        2.75305991      -0.98741361       1.03714051
H        1.77303054      -1.71106583      -0.22414241
H        3.05101637      -0.58044796      -0.68992273
H        0.46669183       1.80895998      -0.69987691
H       -1.08461866      -0.90619430       1.60941838
H       -0.17215051       0.19059700      -1.27216237
H       -1.98807990      -1.25990326      -1.07059618
H       -1.89056744       1.71090818      -0.17498950
H       -3.18216901       0.72928774       0.58331655
16
Frame=8 idx=008095 GeodesicLength=0.8394843500739522 rxn_smarts="[C:1](/[C:2](=[N:3]/[H:11])[O:4][C:5]1([H:12])[C:6]([H:13])([H:14])[C:7]1([H:15])[H:16])([H:8])([H:9])[H:10]>>[C:1]([C:2]([N:3]([H:11])[H:13])=[O:4])([H:8])([H:9])[H:10].[C:5]1([H:12])=[C:6]([H:14])[C:7]1([H:15])[H:16]"
C        2.30888356      -0.79635672       0.06543819
C        1.35187941       0.35211807       0.19395719
N        0.98865150       0.97120624      -0.92457323
O        0.59881589       0.43240376       1.21623481
C       -1.23213456      -0.25663054       0.75790154
C       -1.55938659      -0.42838192      -0.56574689
C       -2.17955794       0.72523978       0.17992014
H        2.76522907      -0.99127097       1.03532110
H        1.78566691      -1.71070379      -0.22555067
H        3.05902313      -0.57419297      -0.69083635
H        0.48230646       1.81957631      -0.68010951
H       -1.07945928      -0.90891819       1.59981802
H       -0.16400977       0.18966648      -1.29872857
H       -2.03305546      -1.27113829      -1.04941139
H       -1.91140375       1.70170417      -0.21412759
H       -3.18144858       0.74567856       0.60049321
16
Frame=9 idx=008095 GeodesicLength=0.944627649261996 rxn_smarts="[C:1](/[C:2](=[N:3]/[H:11])[O:4][C:5]1([H:12])[C:6]([H:13])([H:14])[C:7]1([H:15])[H:16])([H:8])([H:9])[H:10]>>[C:1]([C:2]([N:3]([H:11])[H:13])=[O:4])([H:8])([H:9])[H:10].[C:5]1([H:12])=[C:6]([H:14])[C:7]1([H:15])[H:16]"
C        2.31949467      -0.79516792       0.06517663
C        1.36704003       0.35605827       0.20492051
N        1.00432244       0.98306597      -0.90702740
O        0.59782056       0.41593029       1.21954139
C       -1.23672478      -0.25443924       0.75321787
C       -1.58447467      -0.43908889      -0.56579275
C       -2.18782894       0.72592748       0.17466732
H        2.77773998      -0.99522217       1.03330755
H        1.79904749      -1.71005138      -0.22760176
H        3.06746112      -0.56708018      -0.69158534
H        0.49789793       1.83013854      -0.65944832
H       -1.07514484      -0.91142156       1.59007217
H       -0.15512610       0.18915815      -1.32623520
H       -2.07971517      -1.28252638      -1.02654979
H       -1.93221519       1.69127939      -0.25391514
H       -3.17959452       0.76343963       0.61725227
16
Frame=10 idx=008095 GeodesicLength=1.0498125230107564 rxn_smarts="[C:1](/[C:2](=[N:3]/[H:11])[O:4][C:5]1([H:12])[C:6]([H:13])([H:14])[C:7]1([H:15])[H:16])([H:8])([H:9])[H:10]>>[C:1]([C:2]([N:3]([H:11])[H:13])=[O:4])([H:8])([H:9])[H:10].[C:5]1([H:12])=[C:6]([H:14])[C:7]1([H:15])[H:16]"
C        2.33050043      -0.79366707       0.06480266
C        1.38235197       0.35991446       0.21641143
N        1.01995887       0.99497682      -0.88876753
O        0.59672938       0.39853529       1.22251530
C       -1.24147334      -0.25252481       0.74810093
C       -1.61077470      -0.45067892      -0.56541770
C       -2.19585590       0.72671720       0.16884644
H        2.79060991      -0.99926556       1.03108249
H        1.81317476      -1.70907679      -0.23034965
H        3.07631359      -0.55904528      -0.69216736
H        0.51348188       1.84068126      -0.63781897
H       -1.07172116      -0.91384924       1.58019173
H       -0.14560898       0.18896906      -1.35470496
H       -2.12797890      -1.29407860      -1.00188735
H       -1.95323207       1.67943587      -0.29427524
H       -3.17647572       0.78295630       0.63343777
16
Frame=11 idx=008095 GeodesicLength=1.1550347866900224 rxn_smarts="[C:1](/[C:2](=[N:3]/[H:11])[O:4][C:5]1([H:12])[C:6]([H:13])([H:14])[C:7]1([H:15])[H:16])([H:8])([H:9])[H:10]>>[C:1]([C:2]([N:3]([H:11])[H:13])=[O:4])([H:8])([H:9])[H:10].[C:5]1([H:12])=[C:6]([H:14])[C:7]1([H:15])[H:16]"
C        2.34192849      -0.79183574       0.06431199
C        1.39778118       0.36365256       0.22844439
N        1.03555940       1.00694383      -0.86975270
O        0.59551120       0.38016150       1.22509864
C       -1.24638731      -0.25092573       0.74250719
C       -1.63842089      -0.46318965      -0.56456151
C       -2.20362615       0.72757534       0.16240061
H        2.80382835      -1.00341355       1.02864357
H        1.82812754      -1.70776503      -0.23386838
H        3.08564009      -0.55001018      -0.69253293
H        0.52903808       1.85118479      -0.61515442
H       -1.06921850      -0.91617770       1.57019804
H       -0.13538504       0.18913609      -1.38421634
H       -2.17797857      -1.30574430      -0.97527848
H       -1.97443605       1.66612423      -0.33521002
H       -3.17196181       0.80428354       0.64897035
16
Frame=12 idx=008095 GeodesicLength=1.2603042533930924 rxn_smarts="[C:1](/[C:2](=[N:3]/[H:11])[O:4][C:5]1([H:12])[C:6]([H:13])([H:14])[C:7]1([H:15])[H:16])([H:8])([H:9])[H:10]>>[C:1]([C:2]([N:3]([H:11])[H:13])=[O:4])([H:8])([H:9])[H:10].[C:5]1([H:12])=[C:6]([H:14])[C:7]1([H:15])[H:16]"
C        2.35381056      -0.78964902       0.06369525
C        1.41329867       0.36722558       0.24104375
N        1.05112556       1.01897482      -0.84992934
O        0.59414637       0.36071695       1.22722412
C       -1.25147728      -0.24969197       0.73638034
C       -1.66755706      -0.47668200      -0.56314160
C       -2.21112659       0.72847096       0.15525757
H        2.81739444      -1.00768197       1.02597878
H        1.84398898      -1.70607340      -0.23825548
H        3.09549750      -0.53987327      -0.69261763
H        0.54455366       1.86163099      -0.59136755
H       -1.06768725      -0.91840389       1.56012735
H       -0.12438417       0.18972136      -1.41486135
H       -2.22987034      -1.31747100      -0.94651604
H       -1.99582045       1.65126633      -0.37674445
H       -3.16589259       0.82751953       0.66372629
16
Frame=13 idx=008095 GeodesicLength=1.3656063614352185 rxn_smarts="[C:1](/[C:2](=[N:3]/[H:11])[O:4][C:5]1([H:12])[C:6]([H:13])([H:14])[C:7]1([H:15])[H:16])([H:8])([H:9])[H:10]>>[C:1]([C:2]([N:3]([H:11])[H:13])=[O:4])([H:8])([H:9])[H:10].[C:5]1([H:12])=[C:6]([H:14])[C:7]1([H:15])[H:16]"
C        2.36617880      -0.78708321       0.06294418
C        1.42886819       0.37058092       0.25422859
N        1.06665817       1.03107991      -0.82924374
O        0.59261509       0.34011593       1.22882212
C       -1.25675742      -0.24887375       0.72966688
C       -1.69833709      -0.49121293      -0.56106363
C       -2.21834616       0.72937077       0.14734547
H        2.83130021      -1.01209769       1.02307675
H        1.86084840      -1.70396943      -0.24361424
H        3.10594757      -0.52853467      -0.69235575
H        0.56000400       1.87200536      -0.56637460
H       -1.06717583      -0.92051981       1.55001380
H       -0.11251759       0.19080689      -1.44672867
H       -2.28379894      -1.32919571      -0.91538173
H       -2.01738224       1.63477989      -0.41890816
H       -3.15810516       0.85274752       0.67757274
16
Frame=14 idx=008095 GeodesicLength=1.4709650363644484 rxn_smarts="[C:1](/[C:2](=[N:3]/[H:11])[O:4][C:5]1([H:12])[C:6]([H:13])([H:14])[C:7]1([H:15])[H:16])([H:8])([H:9])[H:10]>>[C:1]([C:2]([N:3]([H:11])[H:13])=[O:4])([H:8])([H:9])[H:10].[C:5]1([H:12])=[C:6]([H:14])[C:7]1([H:15])[H:16]"
C        2.37908167      -0.78410394       0.06204527
C        1.44445330       0.37365331       0.26802622
N        1.08216046       1.04327297      -0.80761654
O        0.59089271       0.31823168       1.22980208
C       -1.26223848      -0.24855445       0.72227706
C       -1.73095417      -0.50685776      -0.55820985
C       -2.22526980       0.73021641       0.13856713
H        2.84554767      -1.01668449       1.01992010
H        1.87882489      -1.70139090      -0.25008034
H        3.11707124      -0.51585843      -0.69165545
H        0.57536272       1.88227836      -0.54004792
H       -1.06775673      -0.92251896       1.53990157
H       -0.09967641       0.19249522      -1.47992776
H       -2.34000341      -1.34080703      -0.88156197
H       -2.03911183       1.61655230      -0.46179444
H       -3.14838383       0.88007571       0.69035484
16
Frame=15 idx=008095 GeodesicLength=1.5763625717791794 rxn_smarts="[C:1](/[C:2](=[N:3]/[H:11])[O:4][C:5]1([H:12])[C:6]([H:13])([H:14])[C:7]1([H:15])[H:16])([H:8])([H:9])[H:10]>>[C:1]([C:2]([N:3]([H:11])[H:13])=[O:4])([H:8])([H:9])[H:10].[C:5]1([H:12])=[C:6]([H:14])[C:7]1([H:15])[H:16]"
C        2.39256583      -0.78067871       0.06098643
C        1.46001002       0.37637109       0.28246344
N        1.09762838       1.05555947      -0.78497430
O        0.58895578       0.29494224       1.23006896
C       -1.26793370      -0.24881266       0.71412587
C       -1.76561228      -0.52367881      -0.55444163
C       -2.23188420       0.73095169       0.12882685
H        2.86013387      -1.02146936       1.01649457
H        1.89803696      -1.69827991      -0.25778763
H        3.12894947      -0.50171295      -0.69042398
H        0.59059791       1.89242062      -0.51227078
H       -1.06949089      -0.92440171       1.52982812
H       -0.08575520       0.19489088      -1.51456320
H       -2.39868012      -1.35215984      -0.84474296
H       -2.06101097       1.59647321      -0.50548072
H       -3.13651085       0.90958475       0.70189097
16
Frame=16 idx=008095 GeodesicLength=1.681816503561477 rxn_smarts="[C:1](/[C:2](=[N:3]/[H:11])[O:4][C:5]1([H:12])[C:6]([H:13])([H:14])[C:7]1([H:15])[H:16])([H:8])([H:9])[H:10]>>[C:1]([C:2]([N:3]([H:11])[H:13])=[O:4])([H:8])([H:9])[H:10].[C:5]1([H:12])=[C:6]([H:14])[C:7]1([H:15])[H:16]"
C        2.40670419      -0.77676377       0.05974108
C        1.47548400       0.37864280       0.29758246
N        1.11305392       1.06795859      -0.76121540
O        0.58676737       0.27006865       1.22952848
C       -1.27387222      -0.24975805       0.70510811
C       -1.80256099      -0.54175036      -0.54958023
C       -2.23817127       0.73150317       0.11799606
H        2.87506715      -1.02649287       1.01277527
H        1.91865525      -1.69457301      -0.26693242
H        3.14170454      -0.48590494      -0.68856482
H        0.60566357       1.90239936      -0.48287307
H       -1.07248183      -0.92615724       1.51984830
H       -0.07061605       0.19811318      -1.55074622
H       -2.46010325      -1.36305308      -0.80449008
H       -2.08308706       1.57435615      -0.55009400
H       -3.12220731       0.94141140       0.71191646
