11
Frame=0 idx=009523 GeodesicLength=0.0 rxn_smarts="[C:1](#[C:2][C:3]#[C:4][C@@:5]1([H:9])[C:6]([H:10])([H:11])[O:7]1)[H:8]>>[C-:1]#[C:2][C+:3]=[C:4]([C@@:5]1([H:9])[C:6]([H:10])([H:11])[O:7]1)[H:8]"
C        2.94241876       0.10764797       0.78401351
C        2.78022761      -1.16818681       0.68805520
C        1.51059853      -0.74594733       0.26456298
C        0.57325619       0.03032666      -0.03142417
C       -0.71130966       0.51837891      -0.48190794
C       -1.92736159      -0.25920157      -0.21193845
O       -1.64621598       0.91846571       0.50835931
H        1.76540453       0.82191537       0.40824154
H       -0.69084405       1.15702406      -1.35958446
H       -1.84660150      -1.18424524       0.35014065
H       -2.74957287      -0.19617772      -0.91851815
11
Frame=1 idx=009523 GeodesicLength=0.12945076117891582 rxn_smarts="[C:1](#[C:2][C:3]#[C:4][C@@:5]1([H:9])[C:6]([H:10])([H:11])[O:7]1)[H:8]>>[C-:1]#[C:2][C+:3]=[C:4]([C@@:5]1([H:9])[C:6]([H:10])([H:11])[O:7]1)[H:8]"
C        2.98701096       0.08902258       0.76126135
C        2.73964143      -1.17365388       0.74394563
C        1.48013170      -0.74229182       0.31377702
C        0.57647485       0.04699370      -0.04631832
C       -0.72053448       0.52570978      -0.47476749
C       -1.92870367      -0.26964616      -0.22202781
O       -1.65626772       0.89200403       0.52748414
H        1.82774069       0.84809698       0.33660750
H       -0.71397259       1.18857499      -1.33489983
H       -1.83589835      -1.20713917       0.31715127
H       -2.75562282      -0.19767102      -0.92221347
11
Frame=2 idx=009523 GeodesicLength=0.25839659206745014 rxn_smarts="[C:1](#[C:2][C:3]#[C:4][C@@:5]1([H:9])[C:6]([H:10])([H:11])[O:7]1)[H:8]>>[C-:1]#[C:2][C+:3]=[C:4]([C@@:5]1([H:9])[C:6]([H:10])([H:11])[O:7]1)[H:8]"
C        3.03299901       0.06859322       0.73335610
C        2.70204916      -1.16985396       0.80236379
C        1.45066902      -0.73357312       0.36720078
C        0.57806741       0.05828536      -0.05876198
C       -0.72951590       0.53151578      -0.46550257
C       -1.93143603      -0.27938700      -0.23357322
O       -1.66644226       0.86345637       0.54731466
H        1.88990847       0.86663298       0.26055239
H       -0.73481963       1.21981198      -1.30583295
H       -1.82934310      -1.22976403       0.28083970
H       -2.76213616      -0.19571758      -0.92795671
11
Frame=3 idx=009523 GeodesicLength=0.38742934033293785 rxn_smarts="[C:1](#[C:2][C:3]#[C:4][C@@:5]1([H:9])[C:6]([H:10])([H:11])[O:7]1)[H:8]>>[C-:1]#[C:2][C+:3]=[C:4]([C@@:5]1([H:9])[C:6]([H:10])([H:11])[O:7]1)[H:8]"
C        3.07746985       0.04473835       0.71133381
C        2.66673261      -1.15972537       0.85657884
C        1.42210991      -0.71848474       0.42045327
C        0.57850805       0.06857939      -0.06914646
C       -0.73881558       0.53700075      -0.45511852
C       -1.93463492      -0.28876971      -0.24540406
O       -1.67755904       0.83442487       0.56646087
H        1.95420895       0.87725743       0.17985178
H       -0.75533909       1.24999171      -1.27485762
H       -1.82408632      -1.25122351       0.24424740
H       -2.76859443      -0.19378918      -0.93439930
11
Frame=4 idx=009523 GeodesicLength=0.5162651086514691 rxn_smarts="[C:1](#[C:2][C:3]#[C:4][C@@:5]1([H:9])[C:6]([H:10])([H:11])[O:7]1)[H:8]>>[C-:1]#[C:2][C+:3]=[C:4]([C@@:5]1([H:9])[C:6]([H:10])([H:11])[O:7]1)[H:8]"
C        3.12216721       0.01821478       0.68896250
C        2.63399598      -1.14161060       0.91152030
C        1.39503880      -0.69720508       0.47552068
C        0.57749492       0.07629430      -0.07701127
C       -0.74840392       0.54193447      -0.44275737
C       -1.93866275      -0.29774536      -0.25841010
O       -1.68984254       0.80350486       0.58588327
H        2.01933619       0.87877072       0.09371589
H       -0.77487746       1.28027704      -1.23988993
H       -1.82114690      -1.27230335       0.20500525
H       -2.77509954      -0.19013177      -0.94253922
11
Frame=5 idx=009523 GeodesicLength=0.6449612753011504 rxn_smarts="[C:1](#[C:2][C:3]#[C:4][C@@:5]1([H:9])[C:6]([H:10])([H:11])[O:7]1)[H:8]>>[C-:1]#[C:2][C+:3]=[C:4]([C@@:5]1([H:9])[C:6]([H:10])([H:11])[O:7]1)[H:8]"
C        3.16673366      -0.01121212       0.66756606
C        2.60372646      -1.11527562       0.96712752
C        1.36970877      -0.66930611       0.53143786
C        0.57506768       0.08243716      -0.08231062
C       -0.75851270       0.54669940      -0.42830426
C       -1.94327611      -0.30638823      -0.27260029
O       -1.70364939       0.77044335       0.60560631
H        2.08544580       0.86969746       0.00148487
H       -0.79401619       1.31104111      -1.20060684
H       -1.81975034      -1.29301330       0.16289692
H       -2.78147765      -0.18512309      -0.95229753
11
Frame=6 idx=009523 GeodesicLength=0.7737158891770629 rxn_smarts="[C:1](#[C:2][C:3]#[C:4][C@@:5]1([H:9])[C:6]([H:10])([H:11])[O:7]1)[H:8]>>[C-:1]#[C:2][C+:3]=[C:4]([C@@:5]1([H:9])[C:6]([H:10])([H:11])[O:7]1)[H:8]"
C        3.21051633      -0.04312960       0.65006080
C        2.57565376      -1.08077175       1.02237480
C        1.34619476      -0.63462163       0.58648321
C        0.57141690       0.08850554      -0.08544006
C       -0.76941439       0.55175120      -0.41187893
C       -1.94811606      -0.31475969      -0.28779832
O       -1.71903880       0.73508952       0.62561799
H        2.15292107       0.84791420      -0.09724857
H       -0.81370525       1.34258443      -1.15698946
H       -1.81872579      -1.31324887       0.11795139
H       -2.78770253      -0.17931334      -0.96313285
11
Frame=7 idx=009523 GeodesicLength=0.9025782438297292 rxn_smarts="[C:1](#[C:2][C:3]#[C:4][C@@:5]1([H:9])[C:6]([H:10])([H:11])[O:7]1)[H:8]>>[C-:1]#[C:2][C+:3]=[C:4]([C@@:5]1([H:9])[C:6]([H:10])([H:11])[O:7]1)[H:8]"
C        3.25332491      -0.07653876       0.63773859
C        2.55014459      -1.03834355       1.07556725
C        1.32455166      -0.59301897       0.64013365
C        0.56659542       0.09541272      -0.08635654
C       -0.78127785       0.55731619      -0.39353499
C       -1.95296901      -0.32279735      -0.30397735
O       -1.73609221       0.69742659       0.64568747
H        2.22125624       0.81137005      -0.20149026
H       -0.83445540       1.37488315      -1.10903389
H       -1.81741048      -1.33273625       0.07019552
H       -2.79366787      -0.17297381      -0.97492946
11
Frame=8 idx=009523 GeodesicLength=1.0311825239157029 rxn_smarts="[C:1](#[C:2][C:3]#[C:4][C@@:5]1([H:9])[C:6]([H:10])([H:11])[O:7]1)[H:8]>>[C-:1]#[C:2][C+:3]=[C:4]([C@@:5]1([H:9])[C:6]([H:10])([H:11])[O:7]1)[H:8]"
C        3.29602782      -0.11394947       0.62538398
C        2.52781612      -0.98650047       1.12792276
C        1.30529501      -0.54577715       0.69107181
C        0.56074016       0.10209173      -0.08594536
C       -0.79384797       0.56268700      -0.37415413
C       -1.95796863      -0.33025974      -0.32100098
O       -1.75394229       0.65798122       0.66503806
H        2.28773255       0.76390655      -0.30311117
H       -0.85593720       1.40652733      -1.05814986
H       -1.81624561      -1.35094734       0.02025809
H       -2.79966996      -0.16575966      -0.98731319
11
Frame=9 idx=009523 GeodesicLength=1.1601464557623211 rxn_smarts="[C:1](#[C:2][C:3]#[C:4][C@@:5]1([H:9])[C:6]([H:10])([H:11])[O:7]1)[H:8]>>[C-:1]#[C:2][C+:3]=[C:4]([C@@:5]1([H:9])[C:6]([H:10])([H:11])[O:7]1)[H:8]"
C        3.33710505      -0.15340437       0.62168566
C        2.50704341      -0.93219461       1.17072027
C        1.28715600      -0.49284977       0.73673999
C        0.55444624       0.11355076      -0.08488163
C       -0.80771607       0.56909461      -0.35505272
C       -1.96219895      -0.33759178      -0.33750055
O       -1.77249876       0.61862443       0.68277004
H        2.35517404       0.70596878      -0.40023133
H       -0.88060526       1.43714140      -1.00736393
H       -1.81216643      -1.36730590      -0.02843758
H       -2.80573927      -0.16103355      -0.99844823
11
Frame=10 idx=009523 GeodesicLength=1.2887233897664492 rxn_smarts="[C:1](#[C:2][C:3]#[C:4][C@@:5]1([H:9])[C:6]([H:10])([H:11])[O:7]1)[H:8]>>[C-:1]#[C:2][C+:3]=[C:4]([C@@:5]1([H:9])[C:6]([H:10])([H:11])[O:7]1)[H:8]"
C        3.37767967      -0.19627378       0.61878366
C        2.49014550      -0.86541596       1.21437213
C        1.27143152      -0.43575311       0.77873012
C        0.54711185       0.12453465      -0.08319781
C       -0.82244376       0.57524858      -0.33449945
C       -1.96667410      -0.34417602      -0.35522615
O       -1.79112722       0.57579165       0.70065412
H        2.42088608       0.63505607      -0.49618251
H       -0.90671220       1.46776155      -0.95189582
H       -1.80802477      -1.38259113      -0.08166041
H       -2.81227257      -0.15418250      -1.00987787
11
Frame=11 idx=009523 GeodesicLength=1.4178384706580471 rxn_smarts="[C:1](#[C:2][C:3]#[C:4][C@@:5]1([H:9])[C:6]([H:10])([H:11])[O:7]1)[H:8]>>[C-:1]#[C:2][C+:3]=[C:4]([C@@:5]1([H:9])[C:6]([H:10])([H:11])[O:7]1)[H:8]"
C        3.41632603      -0.23842019       0.62721513
C        2.47450176      -0.79746987       1.24652134
C        1.25635837      -0.37411820       0.81423725
C        0.53955395       0.14186368      -0.08210734
C       -0.83877267       0.58293674      -0.31425182
C       -1.97016519      -0.35055982      -0.37230616
O       -1.80947268       0.53212624       0.71758034
H        2.48849638       0.55121169      -0.58757077
H       -0.93756166       1.49807529      -0.89574126
H       -1.79981045      -1.39591535      -0.13459024
H       -2.81945385      -0.14973021      -1.01898647
11
Frame=12 idx=009523 GeodesicLength=1.546349541902776 rxn_smarts="[C:1](#[C:2][C:3]#[C:4][C@@:5]1([H:9])[C:6]([H:10])([H:11])[O:7]1)[H:8]>>[C-:1]#[C:2][C+:3]=[C:4]([C@@:5]1([H:9])[C:6]([H:10])([H:11])[O:7]1)[H:8]"
C        3.45414976      -0.28281514       0.63746041
C        2.46423004      -0.71295138       1.27885487
C        1.24323329      -0.31099901       0.84498436
C        0.53094874       0.15902249      -0.08086962
C       -0.85608975       0.59026959      -0.29225052
C       -1.97401490      -0.35582795      -0.39096637
O       -1.82706196       0.48350230       0.73486183
H        2.55400162       0.45121105      -0.67672085
H       -0.97053408       1.52836834      -0.83329662
H       -1.79128841      -1.40754592      -0.19408533
H       -2.82757434      -0.14223438      -1.02797215
11
Frame=13 idx=009523 GeodesicLength=1.6755461265371796 rxn_smarts="[C:1](#[C:2][C:3]#[C:4][C@@:5]1([H:9])[C:6]([H:10])([H:11])[O:7]1)[H:8]>>[C-:1]#[C:2][C+:3]=[C:4]([C@@:5]1([H:9])[C:6]([H:10])([H:11])[O:7]1)[H:8]"
C        3.49014087      -0.32413849       0.65997228
C        2.45485162      -0.62993727       1.29613961
C        1.23016205      -0.24366736       0.86887633
C        0.52219916       0.18481868      -0.08134041
C       -0.87535359       0.59976720      -0.27055964
C       -1.97650708      -0.36078346      -0.40890854
O       -1.84333697       0.43331975       0.75126955
H        2.62187076       0.33623831      -0.75852639
H       -1.00994311       1.55860883      -0.76939839
H       -1.77733092      -1.41649493      -0.25386553
H       -2.83675278      -0.13773128      -1.03365886
11
Frame=14 idx=009523 GeodesicLength=1.803903160191927 rxn_smarts="[C:1](#[C:2][C:3]#[C:4][C@@:5]1([H:9])[C:6]([H:10])([H:11])[O:7]1)[H:8]>>[C-:1]#[C:2][C+:3]=[C:4]([C@@:5]1([H:9])[C:6]([H:10])([H:11])[O:7]1)[H:8]"
C        3.52506229      -0.36411164       0.68672255
C        2.45294039      -0.52664171       1.30890176
C        1.21783126      -0.18165021       0.88638230
C        0.51240087       0.21013319      -0.08259624
C       -0.89546015       0.60836475      -0.24723548
C       -1.97990597      -0.36387497      -0.42834485
O       -1.85752024       0.37777126       0.76753098
H        2.68778645       0.20389900      -0.83374787
H       -1.05133298       1.58752692      -0.69861173
H       -1.76398814      -1.42218182      -0.32081317
H       -2.84781379      -0.12923477      -1.03818825
11
Frame=15 idx=009523 GeodesicLength=1.9324552014719119 rxn_smarts="[C:1](#[C:2][C:3]#[C:4][C@@:5]1([H:9])[C:6]([H:10])([H:11])[O:7]1)[H:8]>>[C-:1]#[C:2][C+:3]=[C:4]([C@@:5]1([H:9])[C:6]([H:10])([H:11])[O:7]1)[H:8]"
C        3.55833243      -0.40092060       0.72396731
C        2.45379252      -0.42231155       1.30389845
C        1.20537640      -0.12001866       0.89711159
C        0.50185551       0.24041179      -0.08671313
C       -0.91708993       0.61756410      -0.22441461
C       -1.98340299      -0.36592193      -0.44691983
O       -1.86903628       0.32070799       0.78248113
H        2.75745249       0.06228276      -0.89627408
H       -1.09733267       1.61424063      -0.62616917
H       -1.74873626      -1.42405657      -0.38817988
H       -2.86121122      -0.12197796      -1.03878778
11
Frame=16 idx=009523 GeodesicLength=2.060388244299359 rxn_smarts="[C:1](#[C:2][C:3]#[C:4][C@@:5]1([H:9])[C:6]([H:10])([H:11])[O:7]1)[H:8]>>[C-:1]#[C:2][C+:3]=[C:4]([C@@:5]1([H:9])[C:6]([H:10])([H:11])[O:7]1)[H:8]"
C        3.58890036      -0.43356825       0.77065820
C        2.45843240      -0.31578216       1.27996584
C        1.19334435      -0.05806411       0.90258587
C        0.48996743       0.27552842      -0.09236683
C       -0.94038584       0.62730914      -0.20098885
C       -1.98707814      -0.36674079      -0.46517002
O       -1.87801880       0.26086712       0.79619407
H        2.83089956      -0.09116121      -0.94652635
H       -1.14788174       1.63865367      -0.55004923
H       -1.73173984      -1.42167591      -0.45786245
H       -2.87643972      -0.11536592      -1.03644024
