13
Frame=0 idx=008534 GeodesicLength=0.0 rxn_smarts="[O:1]=[C:2]1[C:3]([H:8])([H:9])[O:4][C@@:5]2([H:10])[C:6]([H:11])([H:12])[C@@:7]12[H:13]>>[H:8][H:9].[O-:1][C:2]1=[C:3]=[O+:4][C@@:5]2([H:10])[C:6]([H:11])([H:12])[C@@:7]12[H:13]"
O        1.14937002       2.13785107       0.50295246
C        0.68144463       1.13540638       0.05054006
C        1.47252674       0.02545516      -0.69933514
O        0.58473797      -0.79876229      -1.20344134
C       -0.77899686      -0.48401025      -0.83876406
C       -1.08306485      -0.58706640       0.59862109
C       -0.76984839       0.76018275      -0.03458903
H        1.87740569      -0.66307298       0.97007644
H        2.30754169      -0.54755608       0.24156832
H       -1.47116363      -0.72144251      -1.63126764
H       -0.33727374      -1.02738724       1.25208210
H       -2.10967181      -0.76046054       0.88927237
H       -1.52300752       1.53086291      -0.09771567
13
Frame=1 idx=008534 GeodesicLength=0.051105655556997406 rxn_smarts="[O:1]=[C:2]1[C:3]([H:8])([H:9])[O:4][C@@:5]2([H:10])[C:6]([H:11])([H:12])[C@@:7]12[H:13]>>[H:8][H:9].[O-:1][C:2]1=[C:3]=[O+:4][C@@:5]2([H:10])[C:6]([H:11])([H:12])[C@@:7]12[H:13]"
O        1.14580383       2.13834806       0.50257469
C        0.67777080       1.13432908       0.05353922
C        1.46919904       0.01901597      -0.68585127
O        0.58131095      -0.80267177      -1.19845568
C       -0.78202335      -0.48416244      -0.83854248
C       -1.09155639      -0.58572995       0.59813501
C       -0.77325571       0.76070847      -0.03467388
H        1.89470280      -0.67088070       0.96051400
H        2.34449295      -0.53759107       0.23614750
H       -1.47294349      -0.72032355      -1.63262210
H       -0.34889657      -1.02776882       1.25389049
H       -2.11965662      -0.75592612       0.88547093
H       -1.52494823       1.53265282      -0.10012643
13
Frame=2 idx=008534 GeodesicLength=0.10220422045397651 rxn_smarts="[O:1]=[C:2]1[C:3]([H:8])([H:9])[O:4][C@@:5]2([H:10])[C:6]([H:11])([H:12])[C@@:7]12[H:13]>>[H:8][H:9].[O-:1][C:2]1=[C:3]=[O+:4][C@@:5]2([H:10])[C:6]([H:11])([H:12])[C@@:7]12[H:13]"
O        1.14231487       2.13874230       0.50213492
C        0.67411982       1.13312952       0.05660655
C        1.46588028       0.01217458      -0.67179335
O        0.57786411      -0.80656757      -1.19342643
C       -0.78505715      -0.48433817      -0.83830164
C       -1.10017120      -0.58439186       0.59762013
C       -0.77665498       0.76120851      -0.03473293
H        1.91285528      -0.67878395       0.95080603
H        2.38091352      -0.52694099       0.23037787
H       -1.47467288      -0.71916996      -1.63401751
H       -0.36079228      -1.02820485       1.25576847
H       -2.12978348      -0.75131965       0.88153568
H       -1.52681591       1.53446206      -0.10257777
13
Frame=3 idx=008534 GeodesicLength=0.15325315296681016 rxn_smarts="[O:1]=[C:2]1[C:3]([H:8])([H:9])[O:4][C@@:5]2([H:10])[C:6]([H:11])([H:12])[C@@:7]12[H:13]>>[H:8][H:9].[O-:1][C:2]1=[C:3]=[O+:4][C@@:5]2([H:10])[C:6]([H:11])([H:12])[C@@:7]12[H:13]"
O        1.13890684       2.13903119       0.50163724
C        0.67049584       1.13180042       0.05975966
C        1.46255863       0.00494295      -0.65715815
O        0.57440873      -0.81045480      -1.18833281
C       -0.78809047      -0.48453971      -0.83803697
C       -1.10891633      -0.58305063       0.59707626
C       -0.78004244       0.76168158      -0.03476285
H        1.93187663      -0.68674997       0.94097734
H        2.41677745      -0.51563509       0.22419537
H       -1.47633587      -0.71798437      -1.63545542
H       -0.37297492      -1.02869652       1.25771790
H       -2.14006092      -0.74663598       0.87745665
H       -1.52860316       1.53629094      -0.10507421
13
Frame=4 idx=008534 GeodesicLength=0.20422855796510697 rxn_smarts="[O:1]=[C:2]1[C:3]([H:8])([H:9])[O:4][C@@:5]2([H:10])[C:6]([H:11])([H:12])[C@@:7]12[H:13]>>[H:8][H:9].[O-:1][C:2]1=[C:3]=[O+:4][C@@:5]2([H:10])[C:6]([H:11])([H:12])[C@@:7]12[H:13]"
O        1.13558174       2.13921117       0.50109122
C        0.66690109       1.13033430       0.06302073
C        1.45922179      -0.00266885      -0.64193464
O        0.57095799      -0.81434194      -1.18314568
C       -0.79111479      -0.48477033      -0.83774242
C       -1.11780306      -0.58170319       0.59650369
C       -0.78341588       0.76212682      -0.03476069
H        1.95178136      -0.69474753       0.93103949
H        2.45207285      -0.50369988       0.21752493
H       -1.47791269      -0.71677129      -1.63693797
H       -0.38546475      -1.02924225       1.25974450
H       -2.15050236      -0.74186759       0.87322100
H       -1.53030329       1.53814057      -0.10762416
13
Frame=5 idx=008534 GeodesicLength=0.25512100772896484 rxn_smarts="[O:1]=[C:2]1[C:3]([H:8])([H:9])[O:4][C@@:5]2([H:10])[C:6]([H:11])([H:12])[C@@:7]12[H:13]>>[H:8][H:9].[O-:1][C:2]1=[C:3]=[O+:4][C@@:5]2([H:10])[C:6]([H:11])([H:12])[C@@:7]12[H:13]"
O        1.13234032       2.13927841       0.50051165
C        0.66333674       1.12872528       0.06641317
C        1.45585904      -0.01065056      -0.62610715
O        0.56752702      -0.81823881      -1.17783188
C       -0.79411987      -0.48503397      -0.83741089
C       -1.12684306      -0.58034537       0.59590297
C       -0.78677339       0.76254368      -0.03472439
H        1.97258048      -0.70274831       0.92100124
H        2.48678900      -0.49116135       0.21028034
H       -1.47938051      -0.71553725      -1.63846716
H       -0.39828354      -1.02983741       1.26185618
H       -2.16112217      -0.73700622       0.86881450
H       -1.53191007       1.54001188      -0.11023858
13
Frame=6 idx=008534 GeodesicLength=0.30591986936485216 rxn_smarts="[O:1]=[C:2]1[C:3]([H:8])([H:9])[O:4][C@@:5]2([H:10])[C:6]([H:11])([H:12])[C@@:7]12[H:13]>>[H:8][H:9].[O-:1][C:2]1=[C:3]=[O+:4][C@@:5]2([H:10])[C:6]([H:11])([H:12])[C@@:7]12[H:13]"
O        1.12918255       2.13922816       0.49991517
C        0.65980374       1.12696493       0.06996629
C        1.45245852      -0.01899576      -0.60964876
O        0.56413308      -0.82215755      -1.17235030
C       -0.79709445      -0.48533569      -0.83703367
C       -1.13605277      -0.57897193       0.59527477
C       -0.79011368       0.76293151      -0.03465114
H        1.99429177      -0.71072694       0.91085513
H        2.52092043      -0.47803633       0.20236674
H       -1.48071176      -0.71429011      -1.64004579
H       -0.41146141      -1.03047588       1.26406420
H       -2.17193979      -0.73204093       0.86421894
H       -1.53341623       1.54190651      -0.11293158
13
Frame=7 idx=008534 GeodesicLength=0.3566160520775863 rxn_smarts="[O:1]=[C:2]1[C:3]([H:8])([H:9])[O:4][C@@:5]2([H:10])[C:6]([H:11])([H:12])[C@@:7]12[H:13]>>[H:8][H:9].[O-:1][C:2]1=[C:3]=[O+:4][C@@:5]2([H:10])[C:6]([H:11])([H:12])[C@@:7]12[H:13]"
O        1.12610712       2.13905485       0.49932431
C        0.65630106       1.12504657       0.07371075
C        1.44901051      -0.02770089      -0.59252505
O        0.56079408      -0.82611165      -1.16665615
C       -0.80002636      -0.48568090      -0.83660119
C       -1.14544977      -0.57757684       0.59461941
C       -0.79343619       0.76329010      -0.03453904
H        2.01693463      -0.71865386       0.90058492
H        2.55446259      -0.46434510       0.19368330
H       -1.48187650      -0.71303886      -1.64167661
H       -0.42503058      -1.03114935       1.26638156
H       -2.18297581      -0.72696018       0.85941363
H       -1.53481479       1.54382609      -0.11571984
13
Frame=8 idx=008534 GeodesicLength=0.4072047618768531 rxn_smarts="[O:1]=[C:2]1[C:3]([H:8])([H:9])[O:4][C@@:5]2([H:10])[C:6]([H:11])([H:12])[C@@:7]12[H:13]>>[H:8][H:9].[O-:1][C:2]1=[C:3]=[O+:4][C@@:5]2([H:10])[C:6]([H:11])([H:12])[C@@:7]12[H:13]"
O        1.12311536       2.13875360       0.49875634
C        0.65282982       1.12296242       0.07767799
C        1.44550710      -0.03676502      -0.57469709
O        0.55752885      -0.83011262      -1.16070714
C       -0.80290127      -0.48607482      -0.83610412
C       -1.15504866      -0.57615490       0.59393610
C       -0.79673789       0.76361820      -0.03438469
H        2.04052186      -0.72650262       0.89018713
H        2.58739317      -0.45009947       0.18411946
H       -1.48284279      -0.71179148      -1.64336228
H       -0.43902203      -1.03185109       1.26881818
H       -2.19424699      -0.72175339       0.85437730
H       -1.53609652       1.54577120      -0.11861717
13
Frame=9 idx=008534 GeodesicLength=0.457581986237259 rxn_smarts="[O:1]=[C:2]1[C:3]([H:8])([H:9])[O:4][C@@:5]2([H:10])[C:6]([H:11])([H:12])[C@@:7]12[H:13]>>[H:8][H:9].[O-:1][C:2]1=[C:3]=[O+:4][C@@:5]2([H:10])[C:6]([H:11])([H:12])[C@@:7]12[H:13]"
O        1.12020545       2.13830805       0.49823223
C        0.64937885       1.12068659       0.08193606
C        1.44191981      -0.04622747      -0.55606950
O        0.55434124      -0.83420334      -1.15442149
C       -0.80571845      -0.48652824      -0.83552226
C       -1.16490807      -0.57469319       0.59322579
C       -0.80002804       0.76391391      -0.03418129
H        2.06514268      -0.73422571       0.87939059
H        2.61984377      -0.43526666       0.17370234
H       -1.48357792      -0.71055537      -1.64510656
H       -0.45352899      -1.03257105       1.27140083
H       -2.20581942      -0.71638744       0.84906813
H       -1.53725091       1.54774993      -0.12165486
13
Frame=10 idx=008534 GeodesicLength=0.5078717466531302 rxn_smarts="[O:1]=[C:2]1[C:3]([H:8])([H:9])[O:4][C@@:5]2([H:10])[C:6]([H:11])([H:12])[C@@:7]12[H:13]>>[H:8][H:9].[O-:1][C:2]1=[C:3]=[O+:4][C@@:5]2([H:10])[C:6]([H:11])([H:12])[C@@:7]12[H:13]"
O        1.11737825       2.13771745       0.49778978
C        0.64595603       1.11822339       0.08650486
C        1.43825458      -0.05606509      -0.53660658
O        0.55127241      -0.83837780      -1.14775884
C       -0.80844497      -0.48704659      -0.83484822
C       -1.17501929      -0.57318798       0.59248587
C       -0.80329410       0.76417727      -0.03392961
H        2.09077144      -0.74180974       0.86836865
H        2.65166052      -0.41988339       0.16215205
H       -1.48402960      -0.70934740      -1.64691277
H       -0.46855583      -1.03329666       1.27414023
H       -2.21768531      -0.71086200       0.84346427
H       -1.53826415       1.54975854      -0.12484967
13
Frame=11 idx=008534 GeodesicLength=0.5580800358229053 rxn_smarts="[O:1]=[C:2]1[C:3]([H:8])([H:9])[O:4][C@@:5]2([H:10])[C:6]([H:11])([H:12])[C@@:7]12[H:13]>>[H:8][H:9].[O-:1][C:2]1=[C:3]=[O+:4][C@@:5]2([H:10])[C:6]([H:11])([H:12])[C@@:7]12[H:13]"
O        1.11463404       2.13697250       0.49746355
C        0.64256130       1.11556250       0.09143149
C        1.43449984      -0.06628234      -0.51623850
O        0.54834955      -0.84265424      -1.14065457
C       -0.81105949      -0.48763874      -0.83406773
C       -1.18540551      -0.57163045       0.59171434
C       -0.80653210       0.76440703      -0.03362707
H        2.11743782      -0.74922509       0.85708549
H        2.68280906      -0.40395272       0.14931914
H       -1.48414887      -0.70818199      -1.64878503
H       -0.48415149      -1.03401482       1.27705571
H       -2.22987182      -0.70515994       0.83753077
H       -1.53912233       1.55179831      -0.12822759
13
Frame=12 idx=008534 GeodesicLength=0.6082316720237125 rxn_smarts="[O:1]=[C:2]1[C:3]([H:8])([H:9])[O:4][C@@:5]2([H:10])[C:6]([H:11])([H:12])[C@@:7]12[H:13]>>[H:8][H:9].[O-:1][C:2]1=[C:3]=[O+:4][C@@:5]2([H:10])[C:6]([H:11])([H:12])[C@@:7]12[H:13]"
O        1.11197301       2.13606145       0.49729431
C        0.63919351       1.11269013       0.09677354
C        1.43064240      -0.07689456      -0.49487007
O        0.54560265      -0.84705472      -1.13303091
C       -0.81353770      -0.48831536      -0.83316317
C       -1.19609702      -0.57001062       0.59090822
C       -0.80973789       0.76460139      -0.03326975
H        2.14518181      -0.75643030       0.84548453
H        2.71325586      -0.38747202       0.13502845
H       -1.48387741      -0.70707466      -1.65072856
H       -0.50037900      -1.03471153       1.28017053
H       -2.24241387      -0.69926045       0.83122295
H       -1.53980635       1.55387124      -0.13182007
13
Frame=13 idx=008534 GeodesicLength=0.658343358641919 rxn_smarts="[O:1]=[C:2]1[C:3]([H:8])([H:9])[O:4][C@@:5]2([H:10])[C:6]([H:11])([H:12])[C@@:7]12[H:13]>>[H:8][H:9].[O-:1][C:2]1=[C:3]=[O+:4][C@@:5]2([H:10])[C:6]([H:11])([H:12])[C@@:7]12[H:13]"
O        1.10939837       2.13497326       0.49732314
C        0.63585317       1.10959427       0.10258892
C        1.42667329      -0.08791738      -0.47240021
O        0.54306540      -0.85159868      -1.12481050
C       -0.81585040      -0.48908697      -0.83211658
C       -1.20711883      -0.56831906       0.59006273
C       -0.81290368       0.76475829      -0.03285330
H        2.17403468      -0.76338057       0.83352269
H        2.74293413      -0.37044186       0.11908841
H       -1.48315151      -0.70604131      -1.65274761
H       -0.51729856      -1.03537294       1.28350515
H       -2.25534061      -0.69314491       0.82449390
H       -1.54029547       1.55597787      -0.13565674
13
Frame=14 idx=008534 GeodesicLength=0.7084505716949567 rxn_smarts="[O:1]=[C:2]1[C:3]([H:8])([H:9])[O:4][C@@:5]2([H:10])[C:6]([H:11])([H:12])[C@@:7]12[H:13]>>[H:8][H:9].[O-:1][C:2]1=[C:3]=[O+:4][C@@:5]2([H:10])[C:6]([H:11])([H:12])[C@@:7]12[H:13]"
O        1.10691319       2.13369206       0.49759756
C        0.63253999       1.10625191       0.10896042
C        1.42257854      -0.09939087      -0.44867146
O        0.54077826      -0.85631459      -1.11588534
C       -0.81796318      -0.48996857      -0.83090247
C       -1.21851480      -0.56654245       0.58917198
C       -0.81602166       0.76487419      -0.03236999
H        2.20406123      -0.77002494       0.82108870
H        2.77177983      -0.35283133       0.10127153
H       -1.48188719      -0.70510108      -1.65484895
H       -0.53500399      -1.03598238       1.28709149
H       -2.26870168      -0.68678285       0.81727658
H       -1.54055854       1.55812090      -0.13978003
13
Frame=15 idx=008534 GeodesicLength=0.7585707313093814 rxn_smarts="[O:1]=[C:2]1[C:3]([H:8])([H:9])[O:4][C@@:5]2([H:10])[C:6]([H:11])([H:12])[C@@:7]12[H:13]>>[H:8][H:9].[O-:1][C:2]1=[C:3]=[O+:4][C@@:5]2([H:10])[C:6]([H:11])([H:12])[C@@:7]12[H:13]"
O        1.10452445       2.13220205       0.49816862
C        0.62925644       1.10264167       0.11597496
C        1.41834808      -0.11135476      -0.42351564
O        0.53878900      -0.86122728      -1.10614361
C       -0.81983279      -0.49097551      -0.82949361
C       -1.23032232      -0.56466839       0.58822747
C       -0.81907793       0.76494496      -0.03181109
H        2.23531511      -0.77629323       0.80808625
H        2.79967365      -0.33462596       0.08131974
H       -1.47998848      -0.70427426      -1.65703840
H       -0.55358728      -1.03652349       1.29095829
H       -2.28253855      -0.68014688       0.80949833
H       -1.54055938       1.56030109      -0.14423131
13
Frame=16 idx=008534 GeodesicLength=0.8087373565023049 rxn_smarts="[O:1]=[C:2]1[C:3]([H:8])([H:9])[O:4][C@@:5]2([H:10])[C:6]([H:11])([H:12])[C@@:7]12[H:13]>>[H:8][H:9].[O-:1][C:2]1=[C:3]=[O+:4][C@@:5]2([H:10])[C:6]([H:11])([H:12])[C@@:7]12[H:13]"
O        1.10224101       2.13048214       0.49910018
C        0.62600656       1.09873450       0.12374236
C        1.41396891      -0.12386564      -0.39671375
O        0.53715644      -0.86636965      -1.09544388
C       -0.82140559      -0.49212724      -0.82785602
C       -1.24259032      -0.56268117       0.58721839
C       -0.82205469       0.76496503      -0.03116553
H        2.26787255      -0.78210080       0.79437399
H        2.82646323      -0.31579467       0.05892340
H       -1.47733586      -0.70358521      -1.65932414
H       -0.57316610      -1.03697665       1.29514310
H       -2.29690650      -0.67320073       0.80106693
H       -1.54024965       1.56252009      -0.14906505
