15
Frame=0 idx=005521 GeodesicLength=0.0 rxn_smarts="[C:1]([C:2](/[N:3]=[C:4](/[O:5][C:6]([H:13])([H:14])[H:15])[H:12])([H:10])[H:11])([H:7])([H:8])[H:9]>>[C:1]([C:2](=[N+:3]=[C-:4][O:5][C:6]([H:13])([H:14])[H:15])[H:11])([H:7])([H:8])[H:9].[H:10][H:12]"
C        2.11428651       0.89210608       0.55795751
C        1.28747823       0.05879903      -0.36879451
N       -0.01375792      -0.01560378      -0.22892603
C       -0.73301892      -0.98435266       0.14684034
O       -2.04386514      -1.00053435       0.14731551
C       -2.72132469       0.15199420      -0.36203184
H        1.72778772       0.82460503       1.57527815
H        3.15210080       0.55887492       0.54159076
H        2.09726745       1.94320468       0.25443557
H        1.45928079      -1.64878769       0.19139943
H        1.69113435      -0.14270251      -1.36018487
H        0.66798264      -1.93215251       0.36062216
H       -3.78603935      -0.05231128      -0.27785092
H       -2.44594997       0.31646318      -1.40508173
H       -2.45336255       1.03039769       0.22743048
15
Frame=1 idx=005521 GeodesicLength=0.052912171347865786 rxn_smarts="[C:1]([C:2](/[N:3]=[C:4](/[O:5][C:6]([H:13])([H:14])[H:15])[H:12])([H:10])[H:11])([H:7])([H:8])[H:9]>>[C:1]([C:2](=[N+:3]=[C-:4][O:5][C:6]([H:13])([H:14])[H:15])[H:11])([H:7])([H:8])[H:9].[H:10][H:12]"
C        2.11120296       0.89306927       0.55801258
C        1.29164892       0.05007254      -0.36751122
N       -0.01380964      -0.01744668      -0.23304750
C       -0.73098494      -0.98856236       0.14411021
O       -2.04290637      -0.99939976       0.15054881
C       -2.71766768       0.15366929      -0.36030621
H        1.72409842       0.82681907       1.57518920
H        3.15143895       0.56698559       0.54428156
H        2.08795213       1.94285625       0.25070998
H        1.46174528      -1.65221225       0.19126713
H        1.69374843      -0.13419706      -1.36300677
H        0.65723863      -1.94292641       0.36141966
H       -3.78277867      -0.04831641      -0.27553194
H       -2.44273044       0.31688161      -1.40370150
H       -2.44819598       1.03270732       0.22756600
15
Frame=2 idx=005521 GeodesicLength=0.10587262396026545 rxn_smarts="[C:1]([C:2](/[N:3]=[C:4](/[O:5][C:6]([H:13])([H:14])[H:15])[H:12])([H:10])[H:11])([H:7])([H:8])[H:9]>>[C:1]([C:2](=[N+:3]=[C-:4][O:5][C:6]([H:13])([H:14])[H:15])[H:11])([H:7])([H:8])[H:9].[H:10][H:12]"
C        2.10706258       0.89431376       0.55798018
C        1.29631358       0.04072424      -0.36673727
N       -0.01346481      -0.02035943      -0.23923521
C       -0.72873726      -0.99374476       0.13918405
O       -2.04167550      -0.99848529       0.15294746
C       -2.71362626       0.15588597      -0.35783646
H        1.71815317       0.82978339       1.57458392
H        3.14982348       0.57586668       0.54833213
H        2.07752459       1.94253309       0.24621240
H        1.46483954      -1.65581991       0.19193301
H        1.69806070      -0.12679339      -1.36548576
H        0.64654332      -1.95410995       0.36253859
H       -3.77915142      -0.04325059      -0.27153041
H       -2.44010673       0.31850330      -1.40173256
H       -2.44155898       1.03495289       0.22884593
15
Frame=3 idx=005521 GeodesicLength=0.1590857057817397 rxn_smarts="[C:1]([C:2](/[N:3]=[C:4](/[O:5][C:6]([H:13])([H:14])[H:15])[H:12])([H:10])[H:11])([H:7])([H:8])[H:9]>>[C:1]([C:2](=[N+:3]=[C-:4][O:5][C:6]([H:13])([H:14])[H:15])[H:11])([H:7])([H:8])[H:9].[H:10][H:12]"
C        2.09987263       0.89647192       0.55772837
C        1.30240911       0.02950846      -0.36730249
N       -0.01202878      -0.02632542      -0.25158615
C       -0.72586541      -1.00178034       0.12767375
O       -2.03967849      -0.99836016       0.15271096
C       -2.70848235       0.15965719      -0.35308753
H        1.70543979       0.83535132       1.57241596
H        3.14545495       0.58687275       0.55669908
H        2.06409680       1.94235760       0.23916997
H        1.46924096      -1.65989895       0.19548383
H        1.70762359      -0.12295371      -1.36723506
H        0.63628857      -1.96648012       0.36397675
H       -3.77446114      -0.03513229      -0.26254439
H       -2.43925270       0.32388126      -1.39788042
H       -2.43065753       1.03683049       0.23377738
15
Frame=4 idx=005521 GeodesicLength=0.21207968790471657 rxn_smarts="[C:1]([C:2](/[N:3]=[C:4](/[O:5][C:6]([H:13])([H:14])[H:15])[H:12])([H:10])[H:11])([H:7])([H:8])[H:9]>>[C:1]([C:2](=[N+:3]=[C-:4][O:5][C:6]([H:13])([H:14])[H:15])[H:11])([H:7])([H:8])[H:9].[H:10][H:12]"
C        2.09522403       0.89772762       0.55762473
C        1.30718383       0.02009041      -0.36666365
N       -0.01147904      -0.02966571      -0.25832997
C       -0.72357124      -1.00723260       0.12222072
O       -2.03822179      -0.99732292       0.15519220
C       -2.70411368       0.16206682      -0.35043940
H        1.69877610       0.83814507       1.57161903
H        3.14326786       0.59618739       0.56086687
H        2.05302119       1.94191583       0.23462128
H        1.47296849      -1.66350247       0.19604952
H        1.71218036      -0.11563630      -1.36928694
H        0.62516690      -1.97795152       0.36529101
H       -3.77048863      -0.02961646      -0.25796450
H       -2.43663388       0.32554939      -1.39582668
H       -2.42328050       1.03924545       0.23502577
15
Frame=5 idx=005521 GeodesicLength=0.2650697197650089 rxn_smarts="[C:1]([C:2](/[N:3]=[C:4](/[O:5][C:6]([H:13])([H:14])[H:15])[H:12])([H:10])[H:11])([H:7])([H:8])[H:9]>>[C:1]([C:2](=[N+:3]=[C-:4][O:5][C:6]([H:13])([H:14])[H:15])[H:11])([H:7])([H:8])[H:9].[H:10][H:12]"
C        2.09105408       0.89877348       0.55753894
C        1.31169250       0.01108344      -0.36581070
N       -0.01107868      -0.03251229      -0.26388309
C       -0.72139690      -1.01214511       0.11809431
O       -2.03683742      -0.99601836       0.15835580
C       -2.69986749       0.16421558      -0.34825199
H        1.69338945       0.84021725       1.57111906
H        3.14146986       0.60524421       0.56404540
H        2.04230586       1.94138280       0.23068061
H        1.47682830      -1.66698110       0.19584535
H        1.71560424      -0.10753626      -1.37125664
H        0.61366164      -1.98933449       0.36663730
H       -3.76662661      -0.02458443      -0.25428659
H       -2.43362648       0.32633528      -1.39420040
H       -2.41657235       1.04186000       0.23537264
15
Frame=6 idx=005521 GeodesicLength=0.3182654641346052 rxn_smarts="[C:1]([C:2](/[N:3]=[C:4](/[O:5][C:6]([H:13])([H:14])[H:15])[H:12])([H:10])[H:11])([H:7])([H:8])[H:9]>>[C:1]([C:2](=[N+:3]=[C-:4][O:5][C:6]([H:13])([H:14])[H:15])[H:11])([H:7])([H:8])[H:9].[H:10][H:12]"
C        2.08404643       0.90062013       0.55722781
C        1.31743032       0.00047078      -0.36608547
N       -0.00968703      -0.03812233      -0.27497080
C       -0.71868484      -1.01962792       0.10804841
O       -2.03467863      -0.99539621       0.15925743
C       -2.69448969       0.16775579      -0.34400702
H        1.68184592       0.84450819       1.56915668
H        3.13702434       0.61625470       0.57100774
H        2.02882070       1.94093919       0.22445122
H        1.48185457      -1.67084579       0.19813974
H        1.72367351      -0.10259950      -1.37254462
H        0.60242205      -2.00175368       0.36835338
H       -3.76163746      -0.01678880      -0.24608498
H       -2.43207538       0.33042741      -1.39086947
H       -2.40586480       1.04415807       0.23891996
15
Frame=7 idx=005521 GeodesicLength=0.37155536131495304 rxn_smarts="[C:1]([C:2](/[N:3]=[C:4](/[O:5][C:6]([H:13])([H:14])[H:15])[H:12])([H:10])[H:11])([H:7])([H:8])[H:9]>>[C:1]([C:2](=[N+:3]=[C-:4][O:5][C:6]([H:13])([H:14])[H:15])[H:11])([H:7])([H:8])[H:9].[H:10][H:12]"
C        2.07614756       0.90264175       0.55683296
C        1.32344572      -0.01047250      -0.36660586
N       -0.00799078      -0.04452283      -0.28749524
C       -0.71584794      -1.02777532       0.09652526
O       -2.03219714      -0.99484681       0.15978943
C       -2.68863675       0.17167342      -0.33922888
H        1.66858827       0.84917729       1.56676098
H        3.13164955       0.62788528       0.57883221
H        2.01444007       1.94044388       0.21768597
H        1.48738387      -1.67474983       0.20091557
H        1.73282632      -0.09838461      -1.37349163
H        0.59096528      -2.01454520       0.37012914
H       -3.75614250      -0.00819139      -0.23661419
H       -2.43076050       0.33519528      -1.38712054
H       -2.39387103       1.04647160       0.24308484
15
Frame=8 idx=005521 GeodesicLength=0.4247740449971022 rxn_smarts="[C:1]([C:2](/[N:3]=[C:4](/[O:5][C:6]([H:13])([H:14])[H:15])[H:12])([H:10])[H:11])([H:7])([H:8])[H:9]>>[C:1]([C:2](=[N+:3]=[C-:4][O:5][C:6]([H:13])([H:14])[H:15])[H:11])([H:7])([H:8])[H:9].[H:10][H:12]"
C        2.06912586       0.90430895       0.55651035
C        1.32897722      -0.02068571      -0.36670308
N       -0.00659261      -0.04999167      -0.29794092
C       -0.71322041      -1.03492522       0.08737592
O       -2.02984798      -0.99383447       0.16154797
C       -2.68301481       0.17510292      -0.33524698
H        1.65753594       0.85269399       1.56489985
H        3.12698808       0.63895652       0.58505816
H        2.00081916       1.93981661       0.21194187
H        1.49294647      -1.67842377       0.20242757
H        1.74006070      -0.09284517      -1.37442345
H        0.57894069      -2.02716624       0.37170438
H       -3.75084610      -0.00049863      -0.22871320
H       -2.42878022       0.33837807      -1.38409799
H       -2.38309198       1.04911381       0.24565955
15
Frame=9 idx=005521 GeodesicLength=0.4785004351460555 rxn_smarts="[C:1]([C:2](/[N:3]=[C:4](/[O:5][C:6]([H:13])([H:14])[H:15])[H:12])([H:10])[H:11])([H:7])([H:8])[H:9]>>[C:1]([C:2](=[N+:3]=[C-:4][O:5][C:6]([H:13])([H:14])[H:15])[H:11])([H:7])([H:8])[H:9].[H:10][H:12]"
C        2.05822824       0.90700741       0.55581224
C        1.33594023      -0.03287644      -0.36801364
N       -0.00389707      -0.05905561      -0.31546676
C       -0.70994755      -1.04538949       0.07063608
O       -2.02632338      -0.99373492       0.16045307
C       -2.67557260       0.18029452      -0.32855998
H        1.63830659       0.85902451       1.56094160
H        3.11851048       0.65259709       0.59606614
H        1.98356258       1.93922735       0.20306757
H        1.49972758      -1.68247996       0.20731521
H        1.75313036      -0.09132109      -1.37441352
H        0.56702922      -2.04113053       0.37347324
H       -3.74365064       0.01076400      -0.21490285
H       -2.42827669       0.34583030      -1.37875009
H       -2.36676735       1.05124285       0.25234169
15
Frame=10 idx=005521 GeodesicLength=0.5319950789855314 rxn_smarts="[C:1]([C:2](/[N:3]=[C:4](/[O:5][C:6]([H:13])([H:14])[H:15])[H:12])([H:10])[H:11])([H:7])([H:8])[H:9]>>[C:1]([C:2](=[N+:3]=[C-:4][O:5][C:6]([H:13])([H:14])[H:15])[H:11])([H:7])([H:8])[H:9].[H:10][H:12]"
C        2.04890260       0.90912624       0.55525952
C        1.34210111      -0.04389372      -0.36862645
N       -0.00174481      -0.06650766      -0.32949160
C       -0.70702504      -1.05419273       0.05786018
O       -2.02309541      -0.99294127       0.16126468
C       -2.66862284       0.18465421      -0.32321655
H        1.62286117       0.86352606       1.55792284
H        3.11138266       0.66521141       0.60446667
H        1.96769397       1.93846853       0.19588579
H        1.50638781      -1.68619399       0.21016766
H        1.76305507      -0.08762315      -1.37452704
H        0.55437576      -2.05469061       0.37495666
H       -3.73690335       0.02044995      -0.20380657
H       -2.42673188       0.35075340      -1.37460845
H       -2.35263683       1.05385333       0.25649267
15
Frame=11 idx=005521 GeodesicLength=0.5860686436314967 rxn_smarts="[C:1]([C:2](/[N:3]=[C:4](/[O:5][C:6]([H:13])([H:14])[H:15])[H:12])([H:10])[H:11])([H:7])([H:8])[H:9]>>[C:1]([C:2](=[N+:3]=[C-:4][O:5][C:6]([H:13])([H:14])[H:15])[H:11])([H:7])([H:8])[H:9].[H:10][H:12]"
C        2.03615916       0.91208908       0.55431240
C        1.34930764      -0.05644962      -0.37007912
N        0.00151317      -0.07698572      -0.34928608
C       -0.70360726      -1.06569127       0.03900049
O       -2.01874002      -0.99288192       0.15982178
C       -2.65983417       0.19045660      -0.31561079
H        1.60046317       0.87025889       1.55298600
H        3.10071956       0.68003036       0.61668524
H        1.94869090       1.93766621       0.18601056
H        1.51396731      -1.69010852       0.21584022
H        1.77760224      -0.08715689      -1.37370034
H        0.54152486      -2.06949356       0.37631464
H       -3.72817643       0.03311595      -0.18779272
H       -2.42602005       0.35916267      -1.36845072
H       -2.33357006       1.05598775       0.26394844
15
Frame=12 idx=005521 GeodesicLength=0.6400382352952714 rxn_smarts="[C:1]([C:2](/[N:3]=[C:4](/[O:5][C:6]([H:13])([H:14])[H:15])[H:12])([H:10])[H:11])([H:7])([H:8])[H:9]>>[C:1]([C:2](=[N+:3]=[C-:4][O:5][C:6]([H:13])([H:14])[H:15])[H:11])([H:7])([H:8])[H:9].[H:10][H:12]"
C        2.02444466       0.91463710       0.55346794
C        1.35590845      -0.06811652      -0.37097460
N        0.00440578      -0.08635080      -0.36654237
C       -0.70044799      -1.07595198       0.02317613
O       -2.01451019      -0.99224966       0.15990530
C       -2.65126730       0.19567222      -0.30896735
H        1.58069203       0.87562259       1.54871472
H        3.09087353       0.69417735       0.62698890
H        1.93056378       1.93672417       0.17735093
H        1.52161082      -1.69372053       0.22009239
H        1.78981817      -0.08511839      -1.37288109
H        0.52787848      -2.08418487       0.37707696
H       -3.71960589       0.04470276      -0.17367035
H       -2.42444374       0.36562280      -1.36316562
H       -2.31592060       1.05853377       0.26942811
15
Frame=13 idx=005521 GeodesicLength=0.6946415339123742 rxn_smarts="[C:1]([C:2](/[N:3]=[C:4](/[O:5][C:6]([H:13])([H:14])[H:15])[H:12])([H:10])[H:11])([H:7])([H:8])[H:9]>>[C:1]([C:2](=[N+:3]=[C-:4][O:5][C:6]([H:13])([H:14])[H:15])[H:11])([H:7])([H:8])[H:9].[H:10][H:12]"
C        2.00952298       0.91790995       0.55216975
C        1.36323522      -0.08101696      -0.37241703
N        0.00828115      -0.09843771      -0.38865187
C       -0.69690610      -1.08851027       0.00244846
O       -2.00917332      -0.99226218       0.15810953
C       -2.64071888       0.20213219      -0.30034675
H        1.55468436       0.88281686       1.54253265
H        3.07752164       0.71033841       0.64043380
H        1.90957688       1.93565157       0.16623346
H        1.52992512      -1.69735927       0.22677202
H        1.80577892      -0.08575824      -1.37103648
H        0.51381017      -2.10012620       0.37739231
H       -3.70884523       0.05892871      -0.15532293
H       -2.42309039       0.37510576      -1.35602234
H       -2.29360253       1.06058739       0.27770542
15
Frame=14 idx=005521 GeodesicLength=0.7494912057179268 rxn_smarts="[C:1]([C:2](/[N:3]=[C:4](/[O:5][C:6]([H:13])([H:14])[H:15])[H:12])([H:10])[H:11])([H:7])([H:8])[H:9]>>[C:1]([C:2](=[N+:3]=[C-:4][O:5][C:6]([H:13])([H:14])[H:15])[H:11])([H:7])([H:8])[H:9].[H:10][H:12]"
C        1.99391312       0.92122256       0.55071935
C        1.37040837      -0.09382581      -0.37365871
N        0.01231700      -0.11093248      -0.41100132
C       -0.69339236      -1.10118204      -0.01814468
O       -2.00346987      -0.99219388       0.15649419
C       -2.62942032       0.20872518      -0.29154810
H        1.52781524       0.88989057       1.53595729
H        3.06318193       0.72690650       0.65385070
H        1.88795586       1.93443407       0.15483831
H        1.53854585      -1.70077813       0.23360611
H        1.82166159      -0.08646895      -1.36874581
H        0.49902210      -2.11663078       0.37694899
H       -3.69719030       0.07354688      -0.13656136
H       -2.42110180       0.38463516      -1.34864881
H       -2.27024641       1.06265115       0.28589384
15
Frame=15 idx=005521 GeodesicLength=0.8044766772121119 rxn_smarts="[C:1]([C:2](/[N:3]=[C:4](/[O:5][C:6]([H:13])([H:14])[H:15])[H:12])([H:10])[H:11])([H:7])([H:8])[H:9]>>[C:1]([C:2](=[N+:3]=[C-:4][O:5][C:6]([H:13])([H:14])[H:15])[H:11])([H:7])([H:8])[H:9].[H:10][H:12]"
C        1.97814529       0.92443990       0.54918495
C        1.37726570      -0.10628085      -0.37457757
N        0.01633760      -0.12338698      -0.43266763
C       -0.68998678      -1.11355833      -0.03761953
O       -1.99758072      -0.99191443       0.15542912
C       -2.61767410       0.21524442      -0.28293830
H        1.50118048       0.89647073       1.52930926
H        3.04840215       0.74354748       0.66663116
H        1.86616906       1.93306951       0.14360992
H        1.54749351      -1.70391837       0.24008853
H        1.83672234      -0.08674832      -1.36614573
H        0.48349960      -2.13358211       0.37579795
H       -3.68496701       0.08812566      -0.11817403
H       -2.41836625       0.39366507      -1.34138790
H       -2.24664088       1.06482662       0.29345977
15
Frame=16 idx=005521 GeodesicLength=0.8595016903209293 rxn_smarts="[C:1]([C:2](/[N:3]=[C:4](/[O:5][C:6]([H:13])([H:14])[H:15])[H:12])([H:10])[H:11])([H:7])([H:8])[H:9]>>[C:1]([C:2](=[N+:3]=[C-:4][O:5][C:6]([H:13])([H:14])[H:15])[H:11])([H:7])([H:8])[H:9].[H:10][H:12]"
C        1.96261412       0.92747291       0.54763549
C        1.38373317      -0.11821884      -0.37512698
N        0.02022023      -0.13549458      -0.45305890
C       -0.68673458      -1.12537598      -0.05536793
O       -1.99164759      -0.99132952       0.15515890
C       -2.60575520       0.22155974      -0.27476871
H        1.47554833       0.90231968       1.52285594
H        3.03362361       0.76002271       0.67839936
H        1.84454378       1.93157155       0.13287333
H        1.55686399      -1.70675758       0.24586172
H        1.85050962      -0.08628593      -1.36337138
H        0.46725454      -2.15089969       0.37404112
H       -3.67248154       0.10238071      -0.10068404
H       -2.41490754       0.40182552      -1.33449751
H       -2.22338493       1.06720928       0.30004959
