13
Frame=0 idx=000461 GeodesicLength=0.0 rxn_smarts="[O:1]([C@@:2]1([H:8])[C:3]([H:9])([H:10])[C@@:4]2([H:11])[N:5]([H:12])[C@@:6]12[H:13])[H:7]>>[O:1]([C:2]([C:3](/[C:4](=[N:5]/[H:12])[H:11])([H:9])[H:10])=[C:6]([H:8])[H:13])[H:7]"
O        2.23402343       0.40453141       0.11917192
C        0.98539227       0.12270944      -0.19657447
C        0.26842067      -1.18771936      -0.02143101
C       -1.06761203      -0.36045513      -0.00960250
N       -1.45695492      -0.04533925       1.28312830
C       -0.18572841       0.88419195      -0.37382767
H        2.33577779       1.34694331       0.29663014
H        0.43530834       0.53741199      -1.44091516
H        0.45888481      -1.56091966       0.98379266
H        0.44393136      -1.96009073      -0.76825757
H       -1.79554757      -0.65119821      -0.77891736
H       -2.30337672       0.51558099       1.23075185
H       -0.35251904       1.95435327      -0.32394912
13
Frame=1 idx=000461 GeodesicLength=0.08135867854695981 rxn_smarts="[O:1]([C@@:2]1([H:8])[C:3]([H:9])([H:10])[C@@:4]2([H:11])[N:5]([H:12])[C@@:6]12[H:13])[H:7]>>[O:1]([C:2]([C:3](/[C:4](=[N:5]/[H:12])[H:11])([H:9])[H:10])=[C:6]([H:8])[H:13])[H:7]"
O        2.22281856       0.40935366       0.14444327
C        0.98509148       0.12077854      -0.21588173
C        0.26763764      -1.18889393      -0.02633104
C       -1.07046050      -0.37296584      -0.00102315
N       -1.43344294      -0.03063281       1.29015783
C       -0.18178468       0.88919164      -0.39419857
H        2.30675011       1.34777679       0.34907653
H        0.44518138       0.53235213      -1.46633151
H        0.47242409      -1.56925911       0.97323604
H        0.43033488      -1.95405588      -0.78346127
H       -1.81337407      -0.66029751      -0.75614267
H       -2.28973365       0.51573491       1.24671609
H       -0.34144230       1.96091743      -0.36025981
13
Frame=2 idx=000461 GeodesicLength=0.16295059455904448 rxn_smarts="[O:1]([C@@:2]1([H:8])[C:3]([H:9])([H:10])[C@@:4]2([H:11])[N:5]([H:12])[C@@:6]12[H:13])[H:7]>>[O:1]([C:2]([C:3](/[C:4](=[N:5]/[H:12])[H:11])([H:9])[H:10])=[C:6]([H:8])[H:13])[H:7]"
O        2.21046915       0.41423336       0.16958002
C        0.98493541       0.11906734      -0.23447164
C        0.26702007      -1.18994453      -0.03127085
C       -1.07309658      -0.38564134       0.00806878
N       -1.40970242      -0.01584422       1.29653497
C       -0.17766507       0.89426489      -0.41472675
H        2.27532573       1.34774753       0.40085957
H        0.45615122       0.52735570      -1.49148329
H        0.48586234      -1.57800256       0.96222490
H        0.41679381      -1.94763852      -0.79858014
H       -1.83059501      -0.66897423      -0.73290968
H       -2.27538426       0.51608529       1.26298743
H       -0.33011438       1.96729129      -0.39681331
13
Frame=3 idx=000461 GeodesicLength=0.24474231643612382 rxn_smarts="[O:1]([C@@:2]1([H:8])[C:3]([H:9])([H:10])[C@@:4]2([H:11])[N:5]([H:12])[C@@:6]12[H:13])[H:7]>>[O:1]([C:2]([C:3](/[C:4](=[N:5]/[H:12])[H:11])([H:9])[H:10])=[C:6]([H:8])[H:13])[H:7]"
O        2.19701602       0.41916225       0.19461674
C        0.98489632       0.11757625      -0.25222100
C        0.26652722      -1.19086760      -0.03620287
C       -1.07554939      -0.39851420       0.01768927
N       -1.38591128      -0.00106614       1.30223468
C       -0.17336839       0.89940776      -0.43529946
H        2.24174493       1.34694113       0.45140406
H        0.46831678       0.52247380      -1.51622359
H        0.49912383      -1.58713879       0.95079423
H        0.40332080      -1.94078486      -0.81358849
H       -1.84716567      -0.67721295      -0.70929349
H       -2.26046828       0.51656529       1.27947880
H       -0.31848289       1.97345805      -0.43338887
13
Frame=4 idx=000461 GeodesicLength=0.32685285549928245 rxn_smarts="[O:1]([C@@:2]1([H:8])[C:3]([H:9])([H:10])[C@@:4]2([H:11])[N:5]([H:12])[C@@:6]12[H:13])[H:7]>>[O:1]([C:2]([C:3](/[C:4](=[N:5]/[H:12])[H:11])([H:9])[H:10])=[C:6]([H:8])[H:13])[H:7]"
O        2.18258693       0.42415858       0.21953065
C        0.98497904       0.11630179      -0.26909629
C        0.26613409      -1.19171215      -0.04110826
C       -1.07788381      -0.41163184       0.02785801
N       -1.36221157       0.01367006       1.30726773
C       -0.16891464       0.90464654      -0.45586281
H        2.20627959       1.34548975       0.50047155
H        0.48172214       0.51773492      -1.54049347
H        0.51222053      -1.59668703       0.93896350
H        0.38991026      -1.93356227      -0.82848711
H       -1.86315471      -0.68505356      -0.68534944
H       -2.24514762       0.51716107       1.29616036
H       -0.30652023       1.97948415      -0.46985443
13
Frame=5 idx=000461 GeodesicLength=0.4091405717376581 rxn_smarts="[O:1]([C@@:2]1([H:8])[C:3]([H:9])([H:10])[C@@:4]2([H:11])[N:5]([H:12])[C@@:6]12[H:13])[H:7]>>[O:1]([C:2]([C:3](/[C:4](=[N:5]/[H:12])[H:11])([H:9])[H:10])=[C:6]([H:8])[H:13])[H:7]"
O        2.16701902       0.42920617       0.24429994
C        0.98508938       0.11525472      -0.28513905
C        0.26580688      -1.19242357      -0.04597057
C       -1.08002977      -0.42500416       0.03861177
N       -1.33847396       0.02833196       1.31162394
C       -0.16431434       0.90995174      -0.47648832
H        2.16875061       1.34324796       0.54819688
H        0.49633633       0.51319310      -1.56429876
H        0.52518809      -1.60657803       0.92673752
H        0.37648703      -1.92584040      -0.84322668
H       -1.87847851      -0.69246228      -0.66103502
H       -2.22921262       0.51782680       1.31300666
H       -0.29416815       1.98529598      -0.50631831
13
Frame=6 idx=000461 GeodesicLength=0.49158828183289827 rxn_smarts="[O:1]([C@@:2]1([H:8])[C:3]([H:9])([H:10])[C@@:4]2([H:11])[N:5]([H:12])[C@@:6]12[H:13])[H:7]>>[O:1]([C:2]([C:3](/[C:4](=[N:5]/[H:12])[H:11])([H:9])[H:10])=[C:6]([H:8])[H:13])[H:7]"
O        2.15044991       0.43427343       0.26892428
C        0.98521210       0.11439332      -0.30027297
C        0.26550292      -1.19304844      -0.05073634
C       -1.08204996      -0.43866548       0.04996290
N       -1.31492941       0.04281226       1.31526543
C       -0.15957833       0.91535132      -0.49702923
H        2.12959302       1.34046021       0.59404921
H        0.51217744       0.50887464      -1.58748312
H        0.53799169      -1.61684356       0.91413856
H        0.36306891      -1.91766164      -0.85775589
H       -1.89313111      -0.69942796      -0.63645304
H       -2.21287563       0.51853490       1.32989344
H       -0.28143154       1.99094702      -0.54250323
13
Frame=7 idx=000461 GeodesicLength=0.5744293163020362 rxn_smarts="[O:1]([C@@:2]1([H:8])[C:3]([H:9])([H:10])[C@@:4]2([H:11])[N:5]([H:12])[C@@:6]12[H:13])[H:7]>>[O:1]([C:2]([C:3](/[C:4](=[N:5]/[H:12])[H:11])([H:9])[H:10])=[C:6]([H:8])[H:13])[H:7]"
O        2.13293186       0.43943757       0.29340020
C        0.98537318       0.11372490      -0.31459771
C        0.26519948      -1.19362058      -0.05546019
C       -1.08399025      -0.45267876       0.06196778
N       -1.29160740       0.05715842       1.31828258
C       -0.15469932       0.92083740      -0.51755878
H        2.08883457       1.33720019       0.63825658
H        0.52932977       0.50475552      -1.61013209
H        0.55067576      -1.62746155       0.90111303
H        0.34959345      -1.90908995      -0.87216867
H       -1.90722322      -0.70605387      -0.61155230
H       -2.19617677       0.51933334       1.34694676
H       -0.26824112       1.99645735      -0.57849718
13
Frame=8 idx=000461 GeodesicLength=0.6576386139541643 rxn_smarts="[O:1]([C@@:2]1([H:8])[C:3]([H:9])([H:10])[C@@:4]2([H:11])[N:5]([H:12])[C@@:6]12[H:13])[H:7]>>[O:1]([C:2]([C:3](/[C:4](=[N:5]/[H:12])[H:11])([H:9])[H:10])=[C:6]([H:8])[H:13])[H:7]"
O        2.11443937       0.44467022       0.31775085
C        0.98553203       0.11323484      -0.32811541
C        0.26486092      -1.19413917      -0.06011565
C       -1.08584836      -0.46707955       0.07465926
N       -1.26855055       0.07131410       1.32066554
C       -0.14967541       0.92641329      -0.53805066
H        2.04660711       1.33354399       0.68064688
H        0.54779328       0.50087611      -1.63218657
H        0.56324921      -1.63841264       0.88766314
H        0.33600398      -1.90008899      -0.88643043
H       -1.92072636      -0.71233553      -0.58635326
H       -2.17912713       0.52017537       1.36411055
H       -0.25455809       2.00182796      -0.61424425
13
Frame=9 idx=000461 GeodesicLength=0.74124646878677 rxn_smarts="[O:1]([C@@:2]1([H:8])[C:3]([H:9])([H:10])[C@@:4]2([H:11])[N:5]([H:12])[C@@:6]12[H:13])[H:7]>>[O:1]([C:2]([C:3](/[C:4](=[N:5]/[H:12])[H:11])([H:9])[H:10])=[C:6]([H:8])[H:13])[H:7]"
O        2.09498617       0.44995567       0.34198129
C        0.98566588       0.11290755      -0.34084853
C        0.26446189      -1.19462296      -0.06469243
C       -1.08763557      -0.48191089       0.08807469
N       -1.24581075       0.08525237       1.32242112
C       -0.14451098       0.93209323      -0.55849071
H        2.00305002       1.32958185       0.72114502
H        0.56756562       0.49725493      -1.65361141
H        0.57574737      -1.64968899       0.87377480
H        0.32224907      -1.89066792      -0.90053264
H       -1.93364516      -0.71829653      -0.56087145
H       -2.16176369       0.52105386       1.38135712
H       -0.24035987       2.00708783      -0.64970685
13
Frame=10 idx=000461 GeodesicLength=0.8252401821649867 rxn_smarts="[O:1]([C@@:2]1([H:8])[C:3]([H:9])([H:10])[C@@:4]2([H:11])[N:5]([H:12])[C@@:6]12[H:13])[H:7]>>[O:1]([C:2]([C:3](/[C:4](=[N:5]/[H:12])[H:11])([H:9])[H:10])=[C:6]([H:8])[H:13])[H:7]"
O        2.07457465       0.45532823       0.36590965
C        0.98574852       0.11274793      -0.35290996
C        0.26398837      -1.19502632      -0.06919484
C       -1.08932840      -0.49718746       0.10228104
N       -1.22339127       0.09899099       1.32353932
C       -0.13919879       0.93786041      -0.57891843
H        1.95804354       1.32515728       0.75999747
H        0.58863650       0.49387864      -1.67441694
H        0.58822563      -1.66116684       0.85940523
H        0.30829806      -1.88078455      -0.91443047
H       -1.94593922      -0.72395663      -0.53504356
H       -2.14406588       0.52197087       1.39869086
H       -0.22559172       2.01218744      -0.68490937
13
Frame=11 idx=000461 GeodesicLength=0.9096856051949983 rxn_smarts="[O:1]([C@@:2]1([H:8])[C:3]([H:9])([H:10])[C@@:4]2([H:11])[N:5]([H:12])[C@@:6]12[H:13])[H:7]>>[O:1]([C:2]([C:3](/[C:4](=[N:5]/[H:12])[H:11])([H:9])[H:10])=[C:6]([H:8])[H:13])[H:7]"
O        2.05322678       0.46071559       0.38968047
C        0.98575667       0.11273074      -0.36424034
C        0.26339357      -1.19540247      -0.07359102
C       -1.09096559      -0.51298113       0.11729857
N       -1.20142623       0.11244765       1.32403351
C       -0.13373514       0.94376057      -0.59925394
H        1.91199570       1.32058144       0.79677654
H        0.61101689       0.49079732      -1.69450833
H        0.60066778      -1.67290998       0.84456565
H        0.29407999      -1.87047060      -0.92812445
H       -1.95762098      -0.72936055      -0.50896113
H       -2.12615782       0.52287553       1.41605006
H       -0.21023164       2.01721589      -0.71972558
13
Frame=12 idx=000461 GeodesicLength=0.9946065476354855 rxn_smarts="[O:1]([C@@:2]1([H:8])[C:3]([H:9])([H:10])[C@@:4]2([H:11])[N:5]([H:12])[C@@:6]12[H:13])[H:7]>>[O:1]([C:2]([C:3](/[C:4](=[N:5]/[H:12])[H:11])([H:9])[H:10])=[C:6]([H:8])[H:13])[H:7]"
O        2.03094833       0.46611671       0.41322248
C        0.98566781       0.11285081      -0.37490010
C        0.26265234      -1.19573562      -0.07787899
C       -1.09253900      -0.52932675       0.13318781
N       -1.17995586       0.12561708       1.32390059
C       -0.12810980       0.94979935      -0.61950844
H        1.86494546       1.31585472       0.83154149
H        0.63470730       0.48800700      -1.71386389
H        0.61310793      -1.68485895       0.82921416
H        0.27953787      -1.85970148      -0.94159143
H       -1.96866518      -0.73454698      -0.48259770
H       -2.10806335       0.52375476       1.43342675
H       -0.19423384       2.02216935      -0.75415273
13
Frame=13 idx=000461 GeodesicLength=1.0800498880236111 rxn_smarts="[O:1]([C@@:2]1([H:8])[C:3]([H:9])([H:10])[C@@:4]2([H:11])[N:5]([H:12])[C@@:6]12[H:13])[H:7]>>[O:1]([C:2]([C:3](/[C:4](=[N:5]/[H:12])[H:11])([H:9])[H:10])=[C:6]([H:8])[H:13])[H:7]"
O        2.00777860       0.47151633       0.43653147
C        0.98547145       0.11309485      -0.38491515
C        0.26173991      -1.19604387      -0.08205771
C       -1.09406272      -0.54627506       0.15000018
N       -1.15905475       0.13848662       1.32314384
C       -0.12232083       0.95600423      -0.63966851
H        1.81705936       1.31109079       0.86424825
H        0.65970930       0.48550119      -1.73244010
H        0.62558547      -1.69700861       0.81330387
H        0.26460582      -1.84849165      -0.95483128
H       -1.97908212      -0.73957674      -0.45595613
H       -2.08985441       0.52461174       1.45080329
H       -0.17757508       2.02709018      -0.78816201
13
Frame=14 idx=000461 GeodesicLength=1.1661150292397404 rxn_smarts="[O:1]([C@@:2]1([H:8])[C:3]([H:9])([H:10])[C@@:4]2([H:11])[N:5]([H:12])[C@@:6]12[H:13])[H:7]>>[O:1]([C:2]([C:3](/[C:4](=[N:5]/[H:12])[H:11])([H:9])[H:10])=[C:6]([H:8])[H:13])[H:7]"
O        1.98362301       0.47696502       0.45949795
C        0.98512155       0.11348178      -0.39440447
C        0.26064442      -1.19628716      -0.08614238
C       -1.09544848      -0.56383383       0.16782955
N       -1.13860704       0.15108581       1.32174331
C       -0.11635615       0.96237195      -0.65986297
H        1.76797626       1.30602829       0.89529024
H        0.68600712       0.48328885      -1.75028334
H        0.63818180      -1.70928085       0.79677581
H        0.24918541      -1.83678996      -0.96781404
H       -1.98878482      -0.74449064      -0.42893151
H       -2.07135267       0.52550636       1.46821125
H       -0.16019042       2.03195437      -0.82190940
13
Frame=15 idx=000461 GeodesicLength=1.2527831499012325 rxn_smarts="[O:1]([C@@:2]1([H:8])[C:3]([H:9])([H:10])[C@@:4]2([H:11])[N:5]([H:12])[C@@:6]12[H:13])[H:7]>>[O:1]([C:2]([C:3](/[C:4](=[N:5]/[H:12])[H:11])([H:9])[H:10])=[C:6]([H:8])[H:13])[H:7]"
O        1.95849786       0.48237784       0.48215642
C        0.98459522       0.11398563      -0.40331747
C        0.25927830      -1.19643248      -0.09009979
C       -1.09672971      -0.58206810       0.18672847
N       -1.11884527       0.16330553       1.31970593
C       -0.11015616       0.96892542      -0.67994895
H        1.71817921       1.30100238       0.92418541
H        0.71365147       0.48134958      -1.76724592
H        0.65077263      -1.72162788       0.77956374
H        0.23320767      -1.82447276      -0.98051253
H       -1.99770503      -0.74937851      -0.40153186
H       -2.05274666       0.52629043       1.48555345
H       -0.14199953       2.03674292      -0.85523688
13
Frame=16 idx=000461 GeodesicLength=1.3401233651981341 rxn_smarts="[O:1]([C@@:2]1([H:8])[C:3]([H:9])([H:10])[C@@:4]2([H:11])[N:5]([H:12])[C@@:6]12[H:13])[H:7]>>[O:1]([C:2]([C:3](/[C:4](=[N:5]/[H:12])[H:11])([H:9])[H:10])=[C:6]([H:8])[H:13])[H:7]"
O        1.93253949       0.48776596       0.50441605
C        0.98388417       0.11461385      -0.41172650
C        0.25765399      -1.19652847      -0.09392652
C       -1.09790017      -0.60101490       0.20674648
N       -1.09980766       0.17518272       1.31700776
C       -0.10375669       0.97574245      -0.69997127
H        1.66773938       1.29596166       0.95113888
H        0.74255335       0.47969752      -1.78333755
H        0.66349382      -1.73405502       0.76165926
H        0.21660846      -1.81167250      -0.99290007
H       -2.00588475      -0.75437909      -0.37378785
H       -2.03410939       0.52708569       1.50280881
H       -0.12301398       2.04160013      -0.88812748
