14
Frame=0 idx=008721 GeodesicLength=0.0 rxn_smarts="[C:1](/[N:2]=[C:3](\[N:4]([H:11])[H:12])[C:5](=[O:6])[N:7]([H:13])[H:14])([H:8])([H:9])[H:10]>>[C:1](=[N:2]/[C:3](=[N:4]/[H:11])[C:5](=[O:6])[N:7]([H:13])[H:14])([H:8])[H:10].[H:9][H:12]"
C        1.71889616       0.62611770      -0.72004749
N        0.43515493       0.74416320      -0.49794113
C       -0.15572964      -0.35908916       0.00530348
N        0.54458611      -1.36369274       0.41662360
C       -1.65732459      -0.31184566       0.24901737
O       -2.21974112      -1.23487347       0.79896284
N       -2.25161617       0.80275719      -0.20792795
H        2.13226045      -0.29226911      -1.13878642
H        2.31195865       0.04321810       0.76050035
H        2.30287125       1.53465101      -0.83741779
H       -0.03185994      -2.00271885       0.96107977
H        1.78804153      -0.65558157       0.85762450
H       -1.67920283       1.54356652      -0.57513348
H       -3.23829481       0.92559686      -0.07185767
14
Frame=1 idx=008721 GeodesicLength=0.05709900404889757 rxn_smarts="[C:1](/[N:2]=[C:3](\[N:4]([H:11])[H:12])[C:5](=[O:6])[N:7]([H:13])[H:14])([H:8])([H:9])[H:10]>>[C:1](=[N:2]/[C:3](=[N:4]/[H:11])[C:5](=[O:6])[N:7]([H:13])[H:14])([H:8])[H:10].[H:9][H:12]"
C        1.72195413       0.63087557      -0.71451747
N        0.43419126       0.74442092      -0.49607332
C       -0.15626696      -0.35882423       0.00692845
N        0.54211223      -1.36165785       0.42985049
C       -1.65837895      -0.31151184       0.24812652
O       -2.22184776      -1.23544679       0.79557479
N       -2.25135016       0.80499750      -0.20560228
H        2.12911303      -0.28438619      -1.14720590
H        2.32816975       0.03706047       0.75874049
H        2.29532968       1.54282571      -0.85507942
H       -0.04001354      -2.00537341       0.96204958
H        1.79601612      -0.67132075       0.87041218
H       -1.67778387       1.54836414      -0.56578065
H       -3.24124496       0.91997673      -0.08742345
14
Frame=2 idx=008721 GeodesicLength=0.1141990126085641 rxn_smarts="[C:1](/[N:2]=[C:3](\[N:4]([H:11])[H:12])[C:5](=[O:6])[N:7]([H:13])[H:14])([H:8])([H:9])[H:10]>>[C:1](=[N:2]/[C:3](=[N:4]/[H:11])[C:5](=[O:6])[N:7]([H:13])[H:14])([H:8])[H:10].[H:9][H:12]"
C        1.72501786       0.63584295      -0.70879663
N        0.43321781       0.74480969      -0.49401216
C       -0.15678639      -0.35847050       0.00869174
N        0.53959227      -1.35935738       0.44342660
C       -1.65941325      -0.31110085       0.24737591
O       -2.22384253      -1.23567097       0.79286561
N       -2.25113167       0.80719323      -0.20332933
H        2.12572765      -0.27606743      -1.15563271
H        2.34467779       0.03057474       0.75664237
H        2.28736163       1.55071875      -0.87292722
H       -0.04811418      -2.00824731       0.96248892
H        1.80405994      -0.68752473       0.88335884
H       -1.67637656       1.55326665      -0.55602398
H       -3.24399035       0.91403317      -0.10412795
14
Frame=3 idx=008721 GeodesicLength=0.17131610971933264 rxn_smarts="[C:1](/[N:2]=[C:3](\[N:4]([H:11])[H:12])[C:5](=[O:6])[N:7]([H:13])[H:14])([H:8])([H:9])[H:10]>>[C:1](=[N:2]/[C:3](=[N:4]/[H:11])[C:5](=[O:6])[N:7]([H:13])[H:14])([H:8])[H:10].[H:9][H:12]"
C        1.72803280       0.64098365      -0.70298451
N        0.43225843       0.74548231      -0.49145800
C       -0.15726338      -0.35783055       0.01099023
N        0.53701590      -1.35665940       0.45763828
C       -1.66039808      -0.31040077       0.24718784
O       -2.22586471      -1.23584042       0.79022707
N       -2.25094041       0.80941793      -0.20103378
H        2.12178434      -0.26739691      -1.16426840
H        2.36177301       0.02359464       0.75388129
H        2.27899506       1.55819293      -0.89113131
H       -0.05613954      -2.01117420       0.96268880
H        1.81237976      -0.70428344       0.89633939
H       -1.67495967       1.55858208      -0.54510454
H       -3.24667351       0.90733214      -0.12297236
14
Frame=4 idx=008721 GeodesicLength=0.2284402179470244 rxn_smarts="[C:1](/[N:2]=[C:3](\[N:4]([H:11])[H:12])[C:5](=[O:6])[N:7]([H:13])[H:14])([H:8])([H:9])[H:10]>>[C:1](=[N:2]/[C:3](=[N:4]/[H:11])[C:5](=[O:6])[N:7]([H:13])[H:14])([H:8])[H:10].[H:9][H:12]"
C        1.73109469       0.64633500      -0.69692733
N        0.43127590       0.74618974      -0.48891679
C       -0.15771105      -0.35715705       0.01333513
N        0.53442542      -1.35351610       0.47256726
C       -1.66138222      -0.30976907       0.24687671
O       -2.22806752      -1.23687639       0.78589668
N       -2.25080084       0.81177642      -0.19825427
H        2.11784408      -0.25834874      -1.17250818
H        2.37897682       0.01667639       0.75105278
H        2.27018557       1.56536388      -0.90937695
H       -0.06405627      -2.01419746       0.96250931
H        1.82063134      -0.72117491       0.90988011
H       -1.67394380       1.56243228      -0.53753396
H       -3.24847212       0.90226600      -0.13860051
14
Frame=5 idx=008721 GeodesicLength=0.2855834267611817 rxn_smarts="[C:1](/[N:2]=[C:3](\[N:4]([H:11])[H:12])[C:5](=[O:6])[N:7]([H:13])[H:14])([H:8])([H:9])[H:10]>>[C:1](=[N:2]/[C:3](=[N:4]/[H:11])[C:5](=[O:6])[N:7]([H:13])[H:14])([H:8])[H:10].[H:9][H:12]"
C        1.73418242       0.65196861      -0.69057980
N        0.43032641       0.74716745      -0.48594455
C       -0.15810482      -0.35626766       0.01601757
N        0.53178362      -1.34991099       0.48818068
C       -1.66233870      -0.30901703       0.24674408
O       -2.23028740      -1.23814632       0.78104593
N       -2.25083038       0.81380786      -0.19614025
H        2.11361768      -0.24880629      -1.18060343
H        2.39657163       0.00942386       0.74785021
H        2.26103331       1.57224482      -0.92742433
H       -0.07184806      -2.01743252       0.96168319
H        1.82899183      -0.73853294       0.92371706
H       -1.67327329       1.56531206      -0.53231746
H       -3.24982426       0.89818910      -0.15222891
14
Frame=6 idx=008721 GeodesicLength=0.34275236047183855 rxn_smarts="[C:1](/[N:2]=[C:3](\[N:4]([H:11])[H:12])[C:5](=[O:6])[N:7]([H:13])[H:14])([H:8])([H:9])[H:10]>>[C:1](=[N:2]/[C:3](=[N:4]/[H:11])[C:5](=[O:6])[N:7]([H:13])[H:14])([H:8])[H:10].[H:9][H:12]"
C        1.73728780       0.65756750      -0.68438330
N        0.42937351       0.74811505      -0.48314620
C       -0.15842615      -0.35524687       0.01896231
N        0.52912150      -1.34552363       0.50518312
C       -1.66337440      -0.30856870       0.24593058
O       -2.23277569      -1.24060460       0.77370014
N       -2.25092578       0.81565997      -0.19439197
H        2.10922920      -0.23935168      -1.18839648
H        2.41446554       0.00240370       0.74424372
H        2.25149306       1.57841851      -0.94607227
H       -0.07943955      -2.02043272       0.96100619
H        1.83738287      -0.75571120       0.93828984
H       -1.67262347       1.56808137      -0.52723446
H       -3.25078843       0.89519328      -0.16369121
14
Frame=7 idx=008721 GeodesicLength=0.3999600330469438 rxn_smarts="[C:1](/[N:2]=[C:3](\[N:4]([H:11])[H:12])[C:5](=[O:6])[N:7]([H:13])[H:14])([H:8])([H:9])[H:10]>>[C:1](=[N:2]/[C:3](=[N:4]/[H:11])[C:5](=[O:6])[N:7]([H:13])[H:14])([H:8])[H:10].[H:9][H:12]"
C        1.74034937       0.66314396      -0.67839416
N        0.42844296       0.74926488      -0.48009117
C       -0.15866303      -0.35387359       0.02255669
N        0.52638648      -1.34022992       0.52374961
C       -1.66447322      -0.30824317       0.24478944
O       -2.23549837      -1.24416203       0.76398382
N       -2.25109039       0.81744242      -0.19281155
H        2.10428477      -0.22999177      -1.19617325
H        2.43295121      -0.00474094       0.73983221
H        2.24161232       1.58381589      -0.96528561
H       -0.08677198      -2.02309382       0.96059990
H        1.84601153      -0.77296271       0.95336222
H       -1.67197227       1.57109591      -0.52144262
H       -3.25156938       0.89253490      -0.17467553
14
Frame=8 idx=008721 GeodesicLength=0.4572182288471152 rxn_smarts="[C:1](/[N:2]=[C:3](\[N:4]([H:11])[H:12])[C:5](=[O:6])[N:7]([H:13])[H:14])([H:8])([H:9])[H:10]>>[C:1](=[N:2]/[C:3](=[N:4]/[H:11])[C:5](=[O:6])[N:7]([H:13])[H:14])([H:8])[H:10].[H:9][H:12]"
C        1.74335272       0.66856369      -0.67282212
N        0.42752661       0.75056623      -0.47692372
C       -0.15880246      -0.35211949       0.02684849
N        0.52355399      -1.33377870       0.54430766
C       -1.66569958      -0.30829356       0.24278787
O       -2.23848710      -1.24919988       0.75103841
N       -2.25129845       0.81920236      -0.19126593
H        2.09872819      -0.22100646      -1.20392388
H        2.45204739      -0.01188125       0.73448677
H        2.23139076       1.58822593      -0.98535681
H       -0.09376846      -2.02518194       0.96082064
H        1.85487263      -0.79004796       0.96911774
H       -1.67121724       1.57473181      -0.51386698
H       -3.25219900       0.89021920      -0.18524813
14
Frame=9 idx=008721 GeodesicLength=0.5145453394632963 rxn_smarts="[C:1](/[N:2]=[C:3](\[N:4]([H:11])[H:12])[C:5](=[O:6])[N:7]([H:13])[H:14])([H:8])([H:9])[H:10]>>[C:1](=[N:2]/[C:3](=[N:4]/[H:11])[C:5](=[O:6])[N:7]([H:13])[H:14])([H:8])[H:10].[H:9][H:12]"
C        1.74624954       0.67383059      -0.66770785
N        0.42664958       0.75226610      -0.47320861
C       -0.15883071      -0.34975470       0.03221343
N        0.52056231      -1.32597372       0.56712342
C       -1.66705318      -0.30864955       0.24003718
O       -2.24164623      -1.25568494       0.73480782
N       -2.25158324       0.82099412      -0.18960711
H        2.09215973      -0.21241074      -1.21189154
H        2.47200885      -0.01940241       0.72779185
H        2.22085569       1.59159891      -1.00621679
H       -0.10035913      -2.02654253       0.96185061
H        1.86414567      -0.80720763       0.98535478
H       -1.67039985       1.57918481      -0.50392951
H       -3.25275902       0.88775169      -0.19661768
14
Frame=10 idx=008721 GeodesicLength=0.571938819528768 rxn_smarts="[C:1](/[N:2]=[C:3](\[N:4]([H:11])[H:12])[C:5](=[O:6])[N:7]([H:13])[H:14])([H:8])([H:9])[H:10]>>[C:1](=[N:2]/[C:3](=[N:4]/[H:11])[C:5](=[O:6])[N:7]([H:13])[H:14])([H:8])[H:10].[H:9][H:12]"
C        1.74904466       0.67908979      -0.66283596
N        0.42585218       0.75463258      -0.46848533
C       -0.15875240      -0.34663858       0.03877915
N        0.51733673      -1.31680873       0.59203360
C       -1.66848319      -0.30914728       0.23680520
O       -2.24470069      -1.26304831       0.71637430
N       -2.25203035       0.82266979      -0.18817982
H        2.08436545      -0.20391439      -1.22019215
H        2.49290140      -0.02780936       0.71953825
H        2.21008010       1.59418635      -1.02718879
H       -0.10644700      -2.02727675       0.96331864
H        1.87388101      -0.82494843       1.00174348
H       -1.66975711       1.58395317      -0.49292860
H       -3.25329078       0.88506016      -0.20878196
14
Frame=11 idx=008721 GeodesicLength=0.6293925872244439 rxn_smarts="[C:1](/[N:2]=[C:3](\[N:4]([H:11])[H:12])[C:5](=[O:6])[N:7]([H:13])[H:14])([H:8])([H:9])[H:10]>>[C:1](=[N:2]/[C:3](=[N:4]/[H:11])[C:5](=[O:6])[N:7]([H:13])[H:14])([H:8])[H:10].[H:9][H:12]"
C        1.75178437       0.68447852      -0.65797726
N        0.42515984       0.75778225      -0.46260513
C       -0.15858369      -0.34277993       0.04638544
N        0.51381531      -1.30637115       0.61870429
C       -1.66993764      -0.30971153       0.23317024
O       -2.24737076      -1.27062409       0.69713592
N       -2.25270815       0.82402367      -0.18749170
H        2.07540928      -0.19520402      -1.22878987
H        2.51455472      -0.03742055       0.70973905
H        2.19916528       1.59631591      -1.04752409
H       -0.11190237      -2.02752425       0.96474927
H        1.88396829      -0.84373327       1.01801263
H       -1.66949746       1.58848954      -0.48239770
H       -3.25385703       0.88227891      -0.22111109
14
Frame=12 idx=008721 GeodesicLength=0.6868926541026967 rxn_smarts="[C:1](/[N:2]=[C:3](\[N:4]([H:11])[H:12])[C:5](=[O:6])[N:7]([H:13])[H:14])([H:8])([H:9])[H:10]>>[C:1](=[N:2]/[C:3](=[N:4]/[H:11])[C:5](=[O:6])[N:7]([H:13])[H:14])([H:8])[H:10].[H:9][H:12]"
C        1.75451122       0.69009032      -0.65295280
N        0.42459809       0.76178880      -0.45548631
C       -0.15833359      -0.33819274       0.05489201
N        0.50995224      -1.29473267       0.64686149
C       -1.67136513      -0.31029455       0.22915836
O       -2.24947676      -1.27800428       0.67801309
N       -2.25364986       0.82487420      -0.18803163
H        2.06535624      -0.18601822      -1.23765436
H        2.53679481      -0.04849901       0.69838039
H        2.18820985       1.59829547      -1.06660220
H       -0.11658409      -2.02724219       0.96603343
H        1.89429101      -0.86400598       1.03387416
H       -1.66975374       1.59240183      -0.47356344
H       -3.25455030       0.87953902      -0.23292218
14
Frame=13 idx=008721 GeodesicLength=0.7444302007069062 rxn_smarts="[C:1](/[N:2]=[C:3](\[N:4]([H:11])[H:12])[C:5](=[O:6])[N:7]([H:13])[H:14])([H:8])([H:9])[H:10]>>[C:1](=[N:2]/[C:3](=[N:4]/[H:11])[C:5](=[O:6])[N:7]([H:13])[H:14])([H:8])[H:10].[H:9][H:12]"
C        1.75721474       0.69598346      -0.64767249
N        0.42417941       0.76677147      -0.44692388
C       -0.15800911      -0.33281794       0.06436306
N        0.50573409      -1.28195277       0.67631879
C       -1.67270503      -0.31074333       0.22509016
O       -2.25092990      -1.28496480       0.65958991
N       -2.25484574       0.82519370      -0.18993015
H        2.05406493      -0.17611889      -1.24691363
H        2.55955171      -0.06140695       0.68519972
H        2.17726066       1.60040587      -1.08397957
H       -0.12037261      -2.02618321       0.96754981
H        1.90482594      -0.88632584       1.04884796
H       -1.67055570       1.59568929      -0.46661467
H       -3.25541340       0.87646993      -0.24492503
14
Frame=14 idx=008721 GeodesicLength=0.8019916373555073 rxn_smarts="[C:1](/[N:2]=[C:3](\[N:4]([H:11])[H:12])[C:5](=[O:6])[N:7]([H:13])[H:14])([H:8])([H:9])[H:10]>>[C:1](=[N:2]/[C:3](=[N:4]/[H:11])[C:5](=[O:6])[N:7]([H:13])[H:14])([H:8])[H:10].[H:9][H:12]"
C        1.75996489       0.70215239      -0.64210413
N        0.42389963       0.77255022      -0.43734611
C       -0.15760808      -0.32683281       0.07439565
N        0.50115121      -1.26805215       0.70688272
C       -1.67393064      -0.31128206       0.22045109
O       -2.25167030      -1.29153687       0.64193774
N       -2.25624454       0.82484288      -0.19352291
H        2.04190965      -0.16543674      -1.25636317
H        2.58243037      -0.07596370       0.67043326
H        2.16642242       1.60282500      -1.09944016
H       -0.12318689      -2.02414077       0.96959502
H        1.91524752      -0.91080101       1.06289858
H       -1.67187015       1.59814554      -0.46217131
H       -3.25651511       0.87353009      -0.25564627
14
Frame=15 idx=008721 GeodesicLength=0.8595652432917553 rxn_smarts="[C:1](/[N:2]=[C:3](\[N:4]([H:11])[H:12])[C:5](=[O:6])[N:7]([H:13])[H:14])([H:8])([H:9])[H:10]>>[C:1](=[N:2]/[C:3](=[N:4]/[H:11])[C:5](=[O:6])[N:7]([H:13])[H:14])([H:8])[H:10].[H:9][H:12]"
C        1.76277018       0.70863955      -0.63619732
N        0.42374898       0.77909491      -0.42683191
C       -0.15712971      -0.32029377       0.08487720
N        0.49623679      -1.25311790       0.73829402
C       -1.67497479      -0.31184793       0.21542042
O       -2.25166286      -1.29762678       0.62541182
N       -2.25778726       0.82378416      -0.19890378
H        2.02897097      -0.15376804      -1.26602968
H        2.60522740      -0.09226167       0.65400405
H        2.15575350       1.60581060      -1.11270198
H       -0.12501088      -2.02089097       0.97264685
H        1.92536652      -0.93783125       1.07566502
H       -1.67364523       1.59976159      -0.46033787
H       -3.25786364       0.87054749      -0.26531682
14
Frame=16 idx=008721 GeodesicLength=0.9171348064129692 rxn_smarts="[C:1](/[N:2]=[C:3](\[N:4]([H:11])[H:12])[C:5](=[O:6])[N:7]([H:13])[H:14])([H:8])([H:9])[H:10]>>[C:1](=[N:2]/[C:3](=[N:4]/[H:11])[C:5](=[O:6])[N:7]([H:13])[H:14])([H:8])[H:10].[H:9][H:12]"
C        1.76569302       0.71544440      -0.62996755
N        0.42369788       0.78615402      -0.41592784
C       -0.15656655      -0.31343896       0.09534390
N        0.49102672      -1.23722992       0.77022641
C       -1.67578923      -0.31261939       0.20965714
O       -2.25090397      -1.30333640       0.60994475
N       -2.25939010       0.82188958      -0.20631906
H        2.01571236      -0.14104473      -1.27574510
H        2.62755550      -0.10998284       0.63620338
H        2.14536450       1.60952174      -1.12368027
H       -0.12590607      -2.01622979       0.97719166
H        1.93477515      -0.96745329       1.08712804
H       -1.67577974       1.60043470      -0.46131594
H       -3.25948948       0.86789085      -0.27273953
