10
Frame=0 idx=006098 GeodesicLength=0.0 rxn_smarts="[C:1]([C@@:2]1([H:8])[C:3]([H:9])([H:10])[O:4]1)([H:5])([H:6])[H:7]>>[C:1](=[C:2]1[C:3]([H:9])([H:10])[O:4]1)([H:5])[H:7].[H:6][H:8]"
C       -1.24036857       0.21037204       0.42315973
C        0.05374050      -0.29507408       0.15355162
C        1.41059975       0.14699482      -0.09021585
O        1.00201322      -0.58507484       1.09113869
H       -2.09429883      -0.36537927       0.10502963
H       -1.02482989       0.05837603      -1.20155328
H       -1.39565942       0.75540878       1.35781932
H       -0.44788135      -0.70332599      -1.16656593
H        2.04964729      -0.40164275      -0.77486175
H        1.68703730       1.17934525       0.10249783
10
Frame=1 idx=006098 GeodesicLength=0.05991327329144772 rxn_smarts="[C:1]([C@@:2]1([H:8])[C:3]([H:9])([H:10])[O:4]1)([H:5])([H:6])[H:7]>>[C:1](=[C:2]1[C:3]([H:9])([H:10])[O:4]1)([H:5])[H:7].[H:6][H:8]"
C       -1.24603525       0.19588415       0.42590125
C        0.05462710      -0.28778590       0.14825092
C        1.41732699       0.13849752      -0.08858520
O        0.99372586      -0.56867473       1.10064713
H       -2.09005159      -0.40967196       0.13641990
H       -1.04938612       0.08751827      -1.20350043
H       -1.39863622       0.76373474       1.34651438
H       -0.44358909      -0.66650079      -1.19925038
H        2.06848436      -0.42802408      -0.74678313
H        1.69353396       1.17502278       0.08038557
10
Frame=2 idx=006098 GeodesicLength=0.1197590860544692 rxn_smarts="[C:1]([C@@:2]1([H:8])[C:3]([H:9])([H:10])[O:4]1)([H:5])([H:6])[H:7]>>[C:1](=[C:2]1[C:3]([H:9])([H:10])[O:4]1)([H:5])[H:7].[H:6][H:8]"
C       -1.25154947       0.18108612       0.42837240
C        0.05563917      -0.28017504       0.14341474
C        1.42407048       0.12958449      -0.08708005
O        0.98571120      -0.55087387       1.11039655
H       -2.08381668      -0.45365005       0.16709643
H       -1.07448152       0.11652986      -1.20447353
H       -1.40327641       0.77029618       1.33480223
H       -0.43935038      -0.62746102      -1.23125435
H        2.08621641      -0.45505455      -0.71794797
H        1.70083720       1.16971789       0.05667355
10
Frame=3 idx=006098 GeodesicLength=0.17959771007112849 rxn_smarts="[C:1]([C@@:2]1([H:8])[C:3]([H:9])([H:10])[O:4]1)([H:5])([H:6])[H:7]>>[C:1](=[C:2]1[C:3]([H:9])([H:10])[O:4]1)([H:5])[H:7].[H:6][H:8]"
C       -1.25692217       0.16590236       0.43053006
C        0.05677219      -0.27224956       0.13903073
C        1.43082746       0.12021202      -0.08570726
O        0.97797384      -0.53144797       1.12042327
H       -2.07564539      -0.49742435       0.19707399
H       -1.10014462       0.14545196      -1.20449800
H       -1.40955350       0.77504927       1.32272965
H       -0.43513504      -0.58595867      -1.26258619
H        2.10285855      -0.48284157      -0.68819838
H        1.70896868       1.16330651       0.03120214
10
Frame=4 idx=006098 GeodesicLength=0.23940177537047738 rxn_smarts="[C:1]([C@@:2]1([H:8])[C:3]([H:9])([H:10])[O:4]1)([H:5])([H:6])[H:7]>>[C:1](=[C:2]1[C:3]([H:9])([H:10])[O:4]1)([H:5])[H:7].[H:6][H:8]"
C       -1.26215095       0.15034867       0.43228841
C        0.05801576      -0.26401024       0.13508506
C        1.43758144       0.11037262      -0.08444282
O        0.97052153      -0.51030436       1.13067898
H       -2.06560326      -0.54095521       0.22637003
H       -1.12637006       0.17413791      -1.20363947
H       -1.41739004       0.77799791       1.31033310
H       -0.43092159      -0.54194010      -1.29317136
H        2.11836324      -0.51129557      -0.65753217
H        1.71795392       1.15564837       0.00403024
10
Frame=5 idx=006098 GeodesicLength=0.29915567070618754 rxn_smarts="[C:1]([C@@:2]1([H:8])[C:3]([H:9])([H:10])[O:4]1)([H:5])([H:6])[H:7]>>[C:1](=[C:2]1[C:3]([H:9])([H:10])[O:4]1)([H:5])[H:7].[H:6][H:8]"
C       -1.26720705       0.13445118       0.43355237
C        0.05936817      -0.25547147       0.13156605
C        1.44429486       0.10004972      -0.08324598
O        0.96339182      -0.48735482       1.14111096
H       -2.05371560      -0.58416316       0.25497651
H       -1.15316994       0.20244655      -1.20197787
H       -1.42667528       0.77911879       1.29764987
H       -0.42670726      -0.49535086      -1.32291814
H        2.13267706      -0.54032659      -0.62591890
H        1.72774323       1.14660066      -0.02479487
10
Frame=6 idx=006098 GeodesicLength=0.3589489149614658 rxn_smarts="[C:1]([C@@:2]1([H:8])[C:3]([H:9])([H:10])[O:4]1)([H:5])([H:6])[H:7]>>[C:1](=[C:2]1[C:3]([H:9])([H:10])[O:4]1)([H:5])[H:7].[H:6][H:8]"
C       -1.27212224       0.11808838       0.43428293
C        0.06082057      -0.24660966       0.12843208
C        1.45098852       0.08919097      -0.08212786
O        0.95658359      -0.46229903       1.15171118
H       -2.04000908      -0.62723695       0.28295995
H       -1.18062958       0.23039451      -1.19954453
H       -1.43740532       0.77837004       1.28468527
H       -0.42249225      -0.44581510      -1.35182574
H        2.14582147      -0.57006846      -0.59313990
H        1.73844432       1.13598530      -0.05543337
10
Frame=7 idx=006098 GeodesicLength=0.41827374133641987 rxn_smarts="[C:1]([C@@:2]1([H:8])[C:3]([H:9])([H:10])[O:4]1)([H:5])([H:6])[H:7]>>[C:1](=[C:2]1[C:3]([H:9])([H:10])[O:4]1)([H:5])[H:7].[H:6][H:8]"
C       -1.27687373       0.10125217       0.43439296
C        0.06234590      -0.23736688       0.12561651
C        1.45756405       0.07777549      -0.08110961
O        0.94993800      -0.43499353       1.16221626
H       -2.02439960      -0.67005039       0.31046167
H       -1.20861371       0.25771053      -1.19627505
H       -1.44954196       0.77569404       1.27135441
H       -0.41810284      -0.39313336      -1.37965703
H        2.15767051      -0.60034422      -0.55921042
H        1.75001338       1.12345615      -0.08778971
10
Frame=8 idx=006098 GeodesicLength=0.4776177577645365 rxn_smarts="[C:1]([C@@:2]1([H:8])[C:3]([H:9])([H:10])[O:4]1)([H:5])([H:6])[H:7]>>[C:1](=[C:2]1[C:3]([H:9])([H:10])[O:4]1)([H:5])[H:7].[H:6][H:8]"
C       -1.28143655       0.08390775       0.43380025
C        0.06396021      -0.22783237       0.12309060
C        1.46405482       0.06575306      -0.08011035
O        0.94365919      -0.40529679       1.17265272
H       -2.00694382      -0.71265197       0.33744328
H       -1.23737555       0.28431375      -1.19238062
H       -1.46292175       0.77111746       1.25770679
H       -0.41372964      -0.33706105      -1.40642247
H        2.16830413      -0.63118993      -0.52390332
H        1.76242896       1.10894009      -0.12187688
10
Frame=9 idx=006098 GeodesicLength=0.5368151736016966 rxn_smarts="[C:1]([C@@:2]1([H:8])[C:3]([H:9])([H:10])[O:4]1)([H:5])([H:6])[H:7]>>[C:1](=[C:2]1[C:3]([H:9])([H:10])[O:4]1)([H:5])[H:7].[H:6][H:8]"
C       -1.28577746       0.06596913       0.43243856
C        0.06563831      -0.21801986       0.12076492
C        1.47040531       0.05307991      -0.07914128
O        0.93766675      -0.37300487       1.18282015
H       -1.98760813      -0.75505195       0.36406544
H       -1.26692429       0.30996373      -1.18790871
H       -1.47743808       0.76461680       1.24365234
H       -0.40933590      -0.27717030      -1.43196471
H        2.17766155      -0.66253399      -0.48705472
H        1.77571193       1.09215140      -0.15767199
10
Frame=10 idx=006098 GeodesicLength=0.5958556014707896 rxn_smarts="[C:1]([C@@:2]1([H:8])[C:3]([H:9])([H:10])[O:4]1)([H:5])([H:6])[H:7]>>[C:1](=[C:2]1[C:3]([H:9])([H:10])[O:4]1)([H:5])[H:7].[H:6][H:8]"
C       -1.28986082       0.04735822       0.43022733
C        0.06736392      -0.20798810       0.11854331
C        1.47657898       0.03969435      -0.07819165
O        0.93195385      -0.33792628       1.19251498
H       -1.96637288      -0.79723344       0.39046437
H       -1.29733528       0.33438076      -1.18296721
H       -1.49295826       0.75616601       1.22910888
H       -0.40495587      -0.21295808      -1.45609154
H        2.18572870      -0.69430406      -0.44844726
H        1.78985768       1.07281061      -0.19516122
10
Frame=11 idx=006098 GeodesicLength=0.654673229487002 rxn_smarts="[C:1]([C@@:2]1([H:8])[C:3]([H:9])([H:10])[O:4]1)([H:5])([H:6])[H:7]>>[C:1](=[C:2]1[C:3]([H:9])([H:10])[O:4]1)([H:5])[H:7].[H:6][H:8]"
C       -1.29365190       0.02806136       0.42704585
C        0.06913417      -0.19777744       0.11630316
C        1.48251609       0.02550390      -0.07721456
O        0.92651155      -0.29991983       1.20141698
H       -1.94305912      -0.83908202       0.41677416
H       -1.32869079       0.35716093      -1.17765295
H       -1.50940986       0.74576168       1.21397455
H       -0.40060443      -0.14385274      -1.47846433
H        2.19252483      -0.72639529      -0.40791847
H        1.80472946       1.05053944      -0.23426439
10
Frame=12 idx=006098 GeodesicLength=0.713185199634455 rxn_smarts="[C:1]([C@@:2]1([H:8])[C:3]([H:9])([H:10])[O:4]1)([H:5])([H:6])[H:7]>>[C:1](=[C:2]1[C:3]([H:9])([H:10])[O:4]1)([H:5])[H:7].[H:6][H:8]"
C       -1.29704739       0.00797590       0.42282816
C        0.07089954      -0.18769621       0.11387658
C        1.48812739       0.01048349      -0.07624371
O        0.92126519      -0.25903999       1.20918403
H       -1.91785729      -0.88041896       0.44332861
H       -1.36093932       0.37768755      -1.17223482
H       -1.52639219       0.73351390       1.19802981
H       -0.39635630      -0.06914845      -1.49872755
H        2.19802225      -0.75849292      -0.36526690
H        1.82027810       1.02513571      -0.27477422
10
Frame=13 idx=006098 GeodesicLength=0.7713859318112644 rxn_smarts="[C:1]([C@@:2]1([H:8])[C:3]([H:9])([H:10])[O:4]1)([H:5])([H:6])[H:7]>>[C:1](=[C:2]1[C:3]([H:9])([H:10])[O:4]1)([H:5])[H:7].[H:6][H:8]"
C       -1.30000417      -0.01287827       0.41742893
C        0.07265556      -0.17806090       0.11108261
C        1.49334470      -0.00545835      -0.07521718
O        0.91621993      -0.21544102       1.21538095
H       -1.89071254      -0.92094030       0.47038532
H       -1.39405436       0.39524224      -1.16699319
H       -1.54368784       0.71961460       1.18103527
H       -0.39232914       0.01193040      -1.51622294
H        2.20236927      -0.79029943      -0.32042471
H        1.83619859       0.99629103      -0.31645504
10
Frame=14 idx=006098 GeodesicLength=0.8296192080246103 rxn_smarts="[C:1]([C@@:2]1([H:8])[C:3]([H:9])([H:10])[O:4]1)([H:5])([H:6])[H:7]>>[C:1](=[C:2]1[C:3]([H:9])([H:10])[O:4]1)([H:5])[H:7].[H:6][H:8]"
C       -1.30247010      -0.03447668       0.41074878
C        0.07435974      -0.16961041       0.10769612
C        1.49813554      -0.02232710      -0.07409287
O        0.91140575      -0.16992475       1.21964798
H       -1.86207896      -0.96018493       0.49860905
H       -1.42795975       0.40862050      -1.16271183
H       -1.56066395       0.70465677       1.16260223
H       -0.38876751       0.10035808      -1.53025715
H        2.20585967      -0.82122447      -0.27348483
H        1.85217957       0.96411300      -0.35875750
10
Frame=15 idx=006098 GeodesicLength=0.8877755148556365 rxn_smarts="[C:1]([C@@:2]1([H:8])[C:3]([H:9])([H:10])[O:4]1)([H:5])([H:6])[H:7]>>[C:1](=[C:2]1[C:3]([H:9])([H:10])[O:4]1)([H:5])[H:7].[H:6][H:8]"
C       -1.30442736      -0.05675139       0.40269640
C        0.07601395      -0.16338590       0.10343701
C        1.50248467      -0.04015013      -0.07298639
O        0.90688239      -0.12353651       1.22133448
H       -1.83260881      -0.99738349       0.52856650
H       -1.46225892       0.41628145      -1.16004769
H       -1.57680487       0.68953726       1.14203892
H       -0.38602738       0.19714546      -1.53932832
H        2.20914284      -0.85060606      -0.22478458
H        1.86760349       0.92884931      -0.40092632
10
Frame=16 idx=006098 GeodesicLength=0.9450709196528693 rxn_smarts="[C:1]([C@@:2]1([H:8])[C:3]([H:9])([H:10])[O:4]1)([H:5])([H:6])[H:7]>>[C:1](=[C:2]1[C:3]([H:9])([H:10])[O:4]1)([H:5])[H:7].[H:6][H:8]"
C       -1.30557971      -0.07946910       0.39331617
C        0.07753015      -0.16086075       0.09821988
C        1.50582894      -0.05874776      -0.07201890
O        0.90193336      -0.07787176       1.22006158
H       -1.80299510      -1.03105268       0.56049824
H       -1.49471763       0.41799732      -1.15967279
H       -1.59099782       0.67463520       1.11915907
H       -0.38423537       0.30125479      -1.54170369
H        2.21250640      -0.87663235      -0.17501972
H        1.88072679       0.89074709      -0.44283984
