16
Frame=0 idx=011313 GeodesicLength=0.0 rxn_smarts="[C:1]([C@@:2]1([H:11])[C@:3]([C:4]([H:13])([H:14])[H:15])([H:12])[C@:5]1([C:6]#[N:7])[H:16])([H:8])([H:9])[H:10]>>[C:1]1([H:8])([H:10])[C:2]([H:9])([H:11])[C@:3]([C:4]([H:13])([H:14])[H:15])([H:12])[C:5]([H:16])=[C:6]=[N:7]1"
C        1.09533800      -0.45521635       1.18654832
C        1.06649793      -0.14123255      -0.20079109
C       -0.23176099       0.09553722      -0.94600606
C       -1.36610470      -0.86317807      -0.62568890
C       -0.36995937       1.51788079      -0.46342877
C       -0.42244071       1.60619696       0.89917704
N       -0.34028720       1.33365021       2.03855714
H        0.30080639      -1.03595921       1.63051275
H        1.43819159      -1.29188663       0.06324125
H        1.98752925      -0.27178068       1.76937298
H        1.94206601       0.35800812      -0.60051175
H       -0.03721103       0.09510394      -2.01835383
H       -2.24278912      -0.59133188      -1.21322757
H       -1.09992516      -1.89640213      -0.86624652
H       -1.65290420      -0.80952697       0.42582166
H       -0.06704664       2.35013730      -1.07897668
16
Frame=1 idx=011313 GeodesicLength=0.05484240883244072 rxn_smarts="[C:1]([C@@:2]1([H:11])[C@:3]([C:4]([H:13])([H:14])[H:15])([H:12])[C@:5]1([C:6]#[N:7])[H:16])([H:8])([H:9])[H:10]>>[C:1]1([H:8])([H:10])[C:2]([H:9])([H:11])[C@:3]([C:4]([H:13])([H:14])[H:15])([H:12])[C:5]([H:16])=[C:6]=[N:7]1"
C        1.09489001      -0.44676878       1.19087781
C        1.06348949      -0.13500799      -0.20253524
C       -0.23441561       0.09228232      -0.95053332
C       -1.37056861      -0.86245404      -0.62865530
C       -0.35387068       1.51403137      -0.46077680
C       -0.43272129       1.60073188       0.90047721
N       -0.34197002       1.31872748       2.03762323
H        0.31007922      -1.03829940       1.63849749
H        1.43814615      -1.29410122       0.07369259
H        1.98993413      -0.25314489       1.76676491
H        1.94106068       0.35507933      -0.60912170
H       -0.03999386       0.09367336      -2.02280763
H       -2.24856385      -0.58681113      -1.21257068
H       -1.10646929      -1.89560950      -0.87135890
H       -1.65429935      -0.81192580       0.42377111
H       -0.05472713       2.34959701      -1.07334478
16
Frame=2 idx=011313 GeodesicLength=0.10968468683948812 rxn_smarts="[C:1]([C@@:2]1([H:11])[C@:3]([C:4]([H:13])([H:14])[H:15])([H:12])[C@:5]1([C:6]#[N:7])[H:16])([H:8])([H:9])[H:10]>>[C:1]1([H:8])([H:10])[C:2]([H:9])([H:11])[C@:3]([C:4]([H:13])([H:14])[H:15])([H:12])[C:5]([H:16])=[C:6]=[N:7]1"
C        1.09446734      -0.43847450       1.19520278
C        1.06053936      -0.12895173      -0.20432185
C       -0.23700963       0.08916494      -0.95495320
C       -1.37496511      -0.86168556      -0.63170620
C       -0.33804155       1.51005547      -0.45788341
C       -0.44266938       1.59528312       0.90160775
N       -0.34352307       1.30412408       2.03648662
H        0.31946997      -1.04040463       1.64665927
H        1.43807064      -1.29657254       0.08432381
H        1.99220995      -0.23456186       1.76408046
H        1.94006250       0.35192925      -0.61762268
H       -0.04276024       0.09254121      -2.02716186
H       -2.25423684      -0.58222479      -1.21198904
H       -1.11294870      -1.89473429      -0.87668149
H       -1.65564201      -0.81438815       0.42162125
H       -0.04302324       2.34889996      -1.06766222
16
Frame=3 idx=011313 GeodesicLength=0.16453818662725378 rxn_smarts="[C:1]([C@@:2]1([H:11])[C@:3]([C:4]([H:13])([H:14])[H:15])([H:12])[C@:5]1([C:6]#[N:7])[H:16])([H:8])([H:9])[H:10]>>[C:1]1([H:8])([H:10])[C:2]([H:9])([H:11])[C@:3]([C:4]([H:13])([H:14])[H:15])([H:12])[C:5]([H:16])=[C:6]=[N:7]1"
C        1.09407741      -0.43032395       1.19952173
C        1.05764518      -0.12306388      -0.20615474
C       -0.23954796       0.08618060      -0.95927320
C       -1.37930051      -0.86087297      -0.63483745
C       -0.32247246       1.50596146      -0.45477097
C       -0.45228865       1.58984617       0.90257777
N       -0.34499095       1.28979394       2.03515770
H        0.32899705      -1.04228421       1.65500230
H        1.43796693      -1.29929780       0.09514542
H        1.99435523      -0.21598087       1.76130981
H        1.93906368       0.34856087      -0.62602800
H       -0.04551895       0.09169627      -2.03142403
H       -2.25982344      -0.57756459      -1.21146013
H       -1.11937860      -1.89377485      -0.88222415
H       -1.65692776      -0.81692406       0.41937863
H       -0.03185620       2.34804785      -1.06192069
16
Frame=4 idx=011313 GeodesicLength=0.2194126905380097 rxn_smarts="[C:1]([C@@:2]1([H:11])[C@:3]([C:4]([H:13])([H:14])[H:15])([H:12])[C@:5]1([C:6]#[N:7])[H:16])([H:8])([H:9])[H:10]>>[C:1]1([H:8])([H:10])[C:2]([H:9])([H:11])[C@:3]([C:4]([H:13])([H:14])[H:15])([H:12])[C:5]([H:16])=[C:6]=[N:7]1"
C        1.09372632      -0.42230847       1.20383190
C        1.05480471      -0.11734247      -0.20803888
C       -0.24203836       0.08332442      -0.96349936
C       -1.38358048      -0.86001677      -0.63804577
C       -0.30717029       1.50175485      -0.45145904
C       -0.46158132       1.58441681       0.90339417
N       -0.34641513       1.27569865       2.03365400
H        0.33867353      -1.04394823       1.66353383
H        1.43783841      -1.30227417       0.10616184
H        1.99636850      -0.19736229       1.75844148
H        1.93805717       0.34498789      -0.63434744
H       -0.04828100       0.09112888      -2.03559906
H       -2.26533732      -0.57282463      -1.21096465
H       -1.12576859      -1.89272908      -0.88799131
H       -1.65815241      -0.81954029       0.41704654
H       -0.02114374       2.34703490      -1.05611826
16
Frame=5 idx=011313 GeodesicLength=0.27431169103186864 rxn_smarts="[C:1]([C@@:2]1([H:11])[C@:3]([C:4]([H:13])([H:14])[H:15])([H:12])[C@:5]1([C:6]#[N:7])[H:16])([H:8])([H:9])[H:10]>>[C:1]1([H:8])([H:10])[C:2]([H:9])([H:11])[C@:3]([C:4]([H:13])([H:14])[H:15])([H:12])[C:5]([H:16])=[C:6]=[N:7]1"
C        1.09342038      -0.41441865       1.20813348
C        1.05201310      -0.11178975      -0.20997492
C       -0.24448404       0.08059041      -0.96764095
C       -1.38781316      -0.85911976      -0.64132765
C       -0.29213593       1.49744752      -0.44796839
C       -0.47055425       1.57898922       0.90406361
N       -0.34782348       1.26179149       2.03197685
H        0.34852529      -1.04540443       1.67225272
H        1.43768619      -1.30549623       0.11738846
H        1.99824278      -0.17865823       1.75546873
H        1.93703129       0.34121098      -0.64258727
H       -0.05104924       0.09082550      -2.03969817
H       -2.27079545      -0.56799828      -1.21047986
H       -1.13213497      -1.89159958      -0.89399403
H       -1.65931669      -0.82225016       0.41463299
H       -0.01081183       2.34587996      -1.05024559
16
Frame=6 idx=011313 GeodesicLength=0.3292587846440975 rxn_smarts="[C:1]([C@@:2]1([H:11])[C@:3]([C:4]([H:13])([H:14])[H:15])([H:12])[C@:5]1([C:6]#[N:7])[H:16])([H:8])([H:9])[H:10]>>[C:1]1([H:8])([H:10])[C:2]([H:9])([H:11])[C@:3]([C:4]([H:13])([H:14])[H:15])([H:12])[C:5]([H:16])=[C:6]=[N:7]1"
C        1.09316720      -0.40663864       1.21242359
C        1.04926905      -0.10639782      -0.21196787
C       -0.24689784       0.07797681      -0.97170290
C       -1.39200473      -0.85817799      -0.64468219
C       -0.27736346       1.49303708      -0.44432074
C       -0.47922230       1.57355495       0.90460344
N       -0.34927327       1.24804099       2.03014501
H        0.35855322      -1.04664541       1.68116003
H        1.43752088      -1.30895837       0.12882900
H        1.99998510      -0.15981619       1.75237403
H        1.93599327       0.33723331      -0.65077025
H       -0.05384842       0.09077872      -2.04372224
H       -2.27621088      -0.56307124      -1.20998864
H       -1.13849200      -1.89037574      -0.90024639
H       -1.66040375      -0.82506089       0.41213762
H       -0.00077208       2.34452043      -1.04427149
16
Frame=7 idx=011313 GeodesicLength=0.3842296946882593 rxn_smarts="[C:1]([C@@:2]1([H:11])[C@:3]([C:4]([H:13])([H:14])[H:15])([H:12])[C@:5]1([C:6]#[N:7])[H:16])([H:8])([H:9])[H:10]>>[C:1]1([H:8])([H:10])[C:2]([H:9])([H:11])[C@:3]([C:4]([H:13])([H:14])[H:15])([H:12])[C:5]([H:16])=[C:6]=[N:7]1"
C        1.09295571      -0.39898351       1.21669617
C        1.04656756      -0.10116122      -0.21401945
C       -0.24927566       0.07547532      -0.97569311
C       -1.39615294      -0.85719909      -0.64810181
C       -0.26287753       1.48853258      -0.44052598
C       -0.48757155       1.56812541       0.90500683
N       -0.35070133       1.23444099       2.02816265
H        0.36876389      -1.04768807       1.69025954
H        1.43734127      -1.31264569       0.14047785
H        2.00156652      -0.14091894       1.74916878
H        1.93490702       0.33311215      -0.65886808
H       -0.05666201       0.09097844      -2.04768176
H       -2.28156824      -0.55808500      -1.20951074
H       -1.14482329      -1.88907281      -0.90669502
H       -1.66143979      -0.82794737       0.40956454
H        0.00897037       2.34303680      -1.03824040
16
Frame=8 idx=011313 GeodesicLength=0.43924278087907553 rxn_smarts="[C:1]([C@@:2]1([H:11])[C@:3]([C:4]([H:13])([H:14])[H:15])([H:12])[C@:5]1([C:6]#[N:7])[H:16])([H:8])([H:9])[H:10]>>[C:1]1([H:8])([H:10])[C:2]([H:9])([H:11])[C@:3]([C:4]([H:13])([H:14])[H:15])([H:12])[C:5]([H:16])=[C:6]=[N:7]1"
C        1.09279612      -0.39144019       1.22095107
C        1.04391021      -0.09607326      -0.21613086
C       -0.25162745       0.07308288      -0.97961603
C       -1.40026743      -0.85618364      -0.65158750
C       -0.24867716       1.48393941      -0.43660611
C       -0.49562283       1.56269526       0.90528811
N       -0.35215536       1.22096586       2.02604659
H        0.37916442      -1.04852756       1.69955681
H        1.43715934      -1.31655988       0.15234680
H        2.00299683      -0.12192433       1.74583925
H        1.93378455       0.32884893      -0.66689916
H       -0.05950714       0.09141789      -2.05157865
H       -2.28689103      -0.55302463      -1.20902412
H       -1.15114561      -1.88768612      -0.91336221
H       -1.66241204      -0.83092743       0.40691171
H        0.01849458       2.34139682      -1.03213571
16
Frame=9 idx=011313 GeodesicLength=0.4943145899966014 rxn_smarts="[C:1]([C@@:2]1([H:11])[C@:3]([C:4]([H:13])([H:14])[H:15])([H:12])[C@:5]1([C:6]#[N:7])[H:16])([H:8])([H:9])[H:10]>>[C:1]1([H:8])([H:10])[C:2]([H:9])([H:11])[C@:3]([C:4]([H:13])([H:14])[H:15])([H:12])[C:5]([H:16])=[C:6]=[N:7]1"
C        1.09269762      -0.38399190       1.22518877
C        1.04129138      -0.09113596      -0.21830604
C       -0.25395997       0.07079554      -0.98348612
C       -1.40436100      -0.85513561      -0.65513751
C       -0.23474832       1.47926216      -0.43257169
C       -0.50339558       1.55725505       0.90544755
N       -0.35366862       1.20757711       2.02379001
H        0.38978197      -1.04915676       1.70904886
H        1.43698903      -1.32068754       0.16445315
H        2.00426696      -0.10278696       1.74238013
H        1.93262148       0.32444411      -0.67487422
H       -0.06239742       0.09208604      -2.05543017
H       -2.29219706      -0.54788226      -1.20850965
H       -1.15748654      -1.88622045      -0.92026357
H       -1.66331896      -0.83401646       0.40418984
H        0.02788502       2.33959390      -1.02591934
16
Frame=10 idx=011313 GeodesicLength=0.5494456041036915 rxn_smarts="[C:1]([C@@:2]1([H:11])[C@:3]([C:4]([H:13])([H:14])[H:15])([H:12])[C@:5]1([C:6]#[N:7])[H:16])([H:8])([H:9])[H:10]>>[C:1]1([H:8])([H:10])[C:2]([H:9])([H:11])[C@:3]([C:4]([H:13])([H:14])[H:15])([H:12])[C:5]([H:16])=[C:6]=[N:7]1"
C        1.09265334      -0.37662112       1.22941422
C        1.03869428      -0.08635619      -0.22054130
C       -0.25627185       0.06859818      -0.98728995
C       -1.40842271      -0.85404693      -0.65876213
C       -0.22109837       1.47449394      -0.42846116
C       -0.51090106       1.55179680       0.90552424
N       -0.35523968       1.19424024       2.02142582
H        0.40063015      -1.04957277       1.71875101
H        1.43678620      -1.32503543       0.17682058
H        2.00537900      -0.08341860       1.73875265
H        1.93140049       0.31984236      -0.68283203
H       -0.06531569       0.09297082      -2.05920711
H       -2.29747780      -0.54262752      -1.20795486
H       -1.16383543      -1.88464966      -0.92743925
H       -1.66414229      -0.83723228       0.40137608
H        0.03716142       2.33761817      -1.01957681
16
Frame=11 idx=011313 GeodesicLength=0.6046335533822434 rxn_smarts="[C:1]([C@@:2]1([H:11])[C@:3]([C:4]([H:13])([H:14])[H:15])([H:12])[C@:5]1([C:6]#[N:7])[H:16])([H:8])([H:9])[H:10]>>[C:1]1([H:8])([H:10])[C:2]([H:9])([H:11])[C@:3]([C:4]([H:13])([H:14])[H:15])([H:12])[C:5]([H:16])=[C:6]=[N:7]1"
C        1.09266861      -0.36934250       1.23362053
C        1.03612972      -0.08172096      -0.22284075
C       -0.25856860       0.06649399      -0.99105027
C       -1.41246568      -0.85293025      -0.66244954
C       -0.20772609       1.46964777      -0.42426141
C       -0.51814125       1.54632534       0.90549414
N       -0.35686036       1.18096186       2.01894051
H        0.41170529      -1.04977086       1.72866126
H        1.43659051      -1.32958937       0.18943905
H        2.00631759      -0.06391820       1.73498099
H        1.93012568       0.31512574      -0.69073367
H       -0.06828000       0.09407079      -2.06294532
H       -2.30274571      -0.53729683      -1.20736085
H       -1.17020330      -1.88299795      -0.93484828
H       -1.66489835      -0.84055907       0.39848899
H        0.04635195       2.33550049      -1.01313540
16
Frame=12 idx=011313 GeodesicLength=0.6598684180354955 rxn_smarts="[C:1]([C@@:2]1([H:11])[C@:3]([C:4]([H:13])([H:14])[H:15])([H:12])[C@:5]1([C:6]#[N:7])[H:16])([H:8])([H:9])[H:10]>>[C:1]1([H:8])([H:10])[C:2]([H:9])([H:11])[C@:3]([C:4]([H:13])([H:14])[H:15])([H:12])[C:5]([H:16])=[C:6]=[N:7]1"
C        1.09273789      -0.36216156       1.23780396
C        1.03359663      -0.07721997      -0.22520379
C       -0.26085266       0.06447974      -0.99476924
C       -1.41648762      -0.85178612      -0.66619737
C       -0.19463732       1.46472619      -0.41998836
C       -0.52511628       1.54084514       0.90536783
N       -0.35850318       1.16774625       2.01634581
H        0.42299342      -1.04974999       1.73877599
H        1.43640429      -1.33434286       0.20230479
H        2.00707944      -0.04433494       1.73106453
H        1.92879381       0.31032534      -0.69856768
H       -0.07128906       0.09537886      -2.06664314
H       -2.30799280      -0.53190723      -1.20673929
H       -1.17657763      -1.88126660      -0.94246566
H       -1.66559437      -0.84397940       0.39552452
H        0.05544543       2.33324715      -1.00661290
16
Frame=13 idx=011313 GeodesicLength=0.7151422356400687 rxn_smarts="[C:1]([C@@:2]1([H:11])[C@:3]([C:4]([H:13])([H:14])[H:15])([H:12])[C@:5]1([C:6]#[N:7])[H:16])([H:8])([H:9])[H:10]>>[C:1]1([H:8])([H:10])[C:2]([H:9])([H:11])[C@:3]([C:4]([H:13])([H:14])[H:15])([H:12])[C:5]([H:16])=[C:6]=[N:7]1"
C        1.09285616      -0.35508400       1.24196172
C        1.03109413      -0.07284304      -0.22763025
C       -0.26312563       0.06255245      -0.99845041
C       -1.42048786      -0.85061570      -0.67000333
C       -0.18183484       1.45973352      -0.41565585
C       -0.53182714       1.53536005       0.90515462
N       -0.36014134       1.15459731       2.01365231
H        0.43448206      -1.04950889       1.74908991
H        1.43623019      -1.33928938       0.21541478
H        2.00766309      -0.02471718       1.72700535
H        1.92740413       0.30547230      -0.70632420
H       -0.07434086       0.09688730      -2.07030166
H       -2.31321324      -0.52647727      -1.20610393
H       -1.18294823      -1.87945887      -0.95026505
H       -1.66624020      -0.84747490       0.39248021
H        0.06442956       2.33086630      -1.00002421
16
Frame=14 idx=011313 GeodesicLength=0.7704467370274777 rxn_smarts="[C:1]([C@@:2]1([H:11])[C@:3]([C:4]([H:13])([H:14])[H:15])([H:12])[C@:5]1([C:6]#[N:7])[H:16])([H:8])([H:9])[H:10]>>[C:1]1([H:8])([H:10])[C:2]([H:9])([H:11])[C@:3]([C:4]([H:13])([H:14])[H:15])([H:12])[C:5]([H:16])=[C:6]=[N:7]1"
C        1.09301896      -0.34811568       1.24609095
C        1.02862144      -0.06858050      -0.23012013
C       -0.26538872       0.06070940      -1.00209794
C       -1.42446643      -0.84942013      -0.67386475
C       -0.16931938       1.45467511      -0.41127628
C       -0.53827571       1.52987329       0.90486309
N       -0.36175061       1.14151812       2.01086761
H        0.44616011      -1.04904612       1.75959531
H        1.43607167      -1.34442253       0.22876702
H        2.00806791      -0.00511175       1.72280705
H        1.92595685       0.30059694      -0.71399417
H       -0.07743342       0.09858787      -2.07392323
H       -2.31840200      -0.52102487      -1.20546858
H       -1.18930650      -1.87757917      -0.95821930
H       -1.66684644      -0.85102681       0.38935481
H        0.07329224       2.32836682      -0.99338146
16
Frame=15 idx=011313 GeodesicLength=0.8257738308494651 rxn_smarts="[C:1]([C@@:2]1([H:11])[C@:3]([C:4]([H:13])([H:14])[H:15])([H:12])[C@:5]1([C:6]#[N:7])[H:16])([H:8])([H:9])[H:10]>>[C:1]1([H:8])([H:10])[C:2]([H:9])([H:11])[C@:3]([C:4]([H:13])([H:14])[H:15])([H:12])[C:5]([H:16])=[C:6]=[N:7]1"
C        1.09322186      -0.34126308       1.25018873
C        1.02617814      -0.06442251      -0.23267369
C       -0.26764287       0.05894803      -1.00571570
C       -1.42842319      -0.84820026      -0.67777885
C       -0.15709063       1.44955635      -0.40686122
C       -0.54446449       1.52438818       0.90450184
N       -0.36330789       1.12851196       2.00800044
H        0.45801568      -1.04836140       1.77028409
H        1.43593166      -1.34973703       0.24235871
H        2.00829462       0.01443516       1.71847437
H        1.92445342       0.29572924      -0.72157022
H       -0.08056456       0.10047227      -2.07750991
H       -2.32355412      -0.51556812      -1.20484816
H       -1.19564316      -1.87563210      -0.96629993
H       -1.66742437      -0.85461519       0.38614747
H        0.08201991       2.32575849      -0.98669798
16
Frame=16 idx=011313 GeodesicLength=0.8811152303201063 rxn_smarts="[C:1]([C@@:2]1([H:11])[C@:3]([C:4]([H:13])([H:14])[H:15])([H:12])[C@:5]1([C:6]#[N:7])[H:16])([H:8])([H:9])[H:10]>>[C:1]1([H:8])([H:10])[C:2]([H:9])([H:11])[C@:3]([C:4]([H:13])([H:14])[H:15])([H:12])[C:5]([H:16])=[C:6]=[N:7]1"
C        1.09346070      -0.33453295       1.25425202
C        1.02376407      -0.06035933      -0.23529134
C       -0.26988883       0.05726606      -1.00930738
C       -1.43235794      -0.84695665      -0.68174264
C       -0.14514703       1.44438301      -0.40242127
C       -0.55039651       1.51890785       0.90407955
N       -0.36479171       1.11558178       2.00505893
H        0.47003691      -1.04745507       1.78114693
H        1.43581279      -1.35522839       0.25618728
H        2.00834505       0.03387864       1.71401296
H        1.92289613       0.29089786      -0.72904631
H       -0.08373209       0.10253225      -2.08106383
H       -2.32866461      -0.51012464      -1.20425855
H       -1.20194872      -1.87362280      -0.97447753
H       -1.66798595      -0.85821920       0.38285798
H        0.09059774       2.32305159      -0.97998680
