14
Frame=0 idx=003988 GeodesicLength=0.0 rxn_smarts="[C:1]([C:2]([N:3]1[C:4]([H:11])([H:12])[C:5]1([H:13])[H:14])([H:9])[H:10])([H:6])([H:7])[H:8]>>[C:1]([C:2]([N+:3]1([H:13])[C:4]([H:11])([H:12])[C-:5]1[H:14])([H:9])[H:10])([H:6])([H:7])[H:8]"
C        1.79118772       0.33680303       0.16378769
C        0.62946987      -0.43489879      -0.43280807
N       -0.56626593       0.39276116      -0.52548512
C       -1.86143033      -0.22733584      -0.30571361
C       -1.49270890       0.48786019       0.93993890
H        1.99465343       1.23826129      -0.41678208
H        1.57744301       0.63070036       1.19335281
H        2.69326300      -0.27564930       0.16651311
H        0.42090378      -1.33242438       0.16303144
H        0.87552866      -0.76010118      -1.44830337
H       -1.79554098      -1.31236505      -0.31897402
H       -2.66030352       0.15598270      -0.93474555
H       -0.65913156       1.29614003       0.15319105
H       -0.94706824      -0.19573426       1.60299683
14
Frame=1 idx=003988 GeodesicLength=0.05806346979312033 rxn_smarts="[C:1]([C:2]([N:3]1[C:4]([H:11])([H:12])[C:5]1([H:13])[H:14])([H:9])[H:10])([H:6])([H:7])[H:8]>>[C:1]([C:2]([N+:3]1([H:13])[C:4]([H:11])([H:12])[C-:5]1[H:14])([H:9])[H:10])([H:6])([H:7])[H:8]"
C        1.79350215       0.33482122       0.16413326
C        0.62965323      -0.43449269      -0.43124526
N       -0.56728942       0.39140100      -0.51543302
C       -1.86244845      -0.23221496      -0.30695370
C       -1.48608502       0.48574039       0.93474912
H        1.99786214       1.23613722      -0.41635079
H        1.58118810       0.62889738       1.19390220
H        2.69459329      -0.27915859       0.16553079
H        0.42305537      -1.33396855       0.16238541
H        0.87191293      -0.75684148      -1.44856982
H       -1.79674006      -1.31732255      -0.32074193
H       -2.65925400       0.15403980      -0.93665850
H       -0.67223875       1.31830876       0.14967204
H       -0.94771152      -0.19534694       1.60558019
14
Frame=2 idx=003988 GeodesicLength=0.11612436572188053 rxn_smarts="[C:1]([C:2]([N:3]1[C:4]([H:11])([H:12])[C:5]1([H:13])[H:14])([H:9])[H:10])([H:6])([H:7])[H:8]>>[C:1]([C:2]([N+:3]1([H:13])[C:4]([H:11])([H:12])[C-:5]1[H:14])([H:9])[H:10])([H:6])([H:7])[H:8]"
C        1.79585433       0.33278598       0.16445365
C        0.62985490      -0.43408765      -0.42973146
N       -0.56821060       0.39014693      -0.50542273
C       -1.86331067      -0.23702285      -0.30817189
C       -1.47952469       0.48375950       0.92960361
H        2.00106204       1.23403041      -0.41585050
H        1.58499635       0.62694407       1.19445777
H        2.69596128      -0.28271191       0.16442903
H        0.42519292      -1.33548344       0.16170389
H        0.86830222      -0.75353667      -1.44887562
H       -1.79783077      -1.32221106      -0.32240741
H       -2.65804045       0.15205501      -0.93861296
H       -0.68583068       1.34004232       0.14621383
H       -0.94847615      -0.19471062       1.60821078
14
Frame=3 idx=003988 GeodesicLength=0.1741836885157767 rxn_smarts="[C:1]([C:2]([N:3]1[C:4]([H:11])([H:12])[C:5]1([H:13])[H:14])([H:9])[H:10])([H:6])([H:7])[H:8]>>[C:1]([C:2]([N+:3]1([H:13])[C:4]([H:11])([H:12])[C-:5]1[H:14])([H:9])[H:10])([H:6])([H:7])[H:8]"
C        1.79824507       0.33069902       0.16474818
C        0.63007452      -0.43368179      -0.42826329
N       -0.56903289       0.38899136      -0.49547031
C       -1.86401936      -0.24175711      -0.30937195
C       -1.47303060       0.48190868       0.92450404
H        2.00425710       1.23193815      -0.41528747
H        1.58886895       0.62484682       1.19501743
H        2.69736623      -0.28630936       0.16321117
H        0.42731494      -1.33696616       0.16099187
H        0.86470196      -0.75019732      -1.44921192
H       -1.79882006      -1.32702857      -0.32397751
H       -2.65666929       0.15003280      -0.94060706
H       -0.69990477       1.36135283       0.14283789
H       -0.94935180      -0.19382934       1.61087894
14
Frame=4 idx=003988 GeodesicLength=0.23224405643437826 rxn_smarts="[C:1]([C:2]([N:3]1[C:4]([H:11])([H:12])[C:5]1([H:13])[H:14])([H:9])[H:10])([H:6])([H:7])[H:8]>>[C:1]([C:2]([N+:3]1([H:13])[C:4]([H:11])([H:12])[C-:5]1[H:14])([H:9])[H:10])([H:6])([H:7])[H:8]"
C        1.80067485       0.32856221       0.16501592
C        0.63031213      -0.43327393      -0.42683775
N       -0.56975911       0.38792613      -0.48559254
C       -1.86457720      -0.24641516      -0.31055732
C       -1.46660409       0.48017850       0.91945106
H        2.00745105       1.22985758      -0.41466861
H        1.59280610       0.62261308       1.19557842
H        2.69880725      -0.28995042       0.16188141
H        0.42942020      -1.33841442       0.16025467
H        0.86111834      -0.74683521      -1.44957027
H       -1.79971540      -1.33177321      -0.32546000
H       -2.65514698       0.14797857      -0.94263918
H       -0.71445918       1.38225220       0.13956884
H       -0.95032795      -0.19270592       1.61357535
14
Frame=5 idx=003988 GeodesicLength=0.29030857979667857 rxn_smarts="[C:1]([C:2]([N:3]1[C:4]([H:11])([H:12])[C:5]1([H:13])[H:14])([H:9])[H:10])([H:6])([H:7])[H:8]>>[C:1]([C:2]([N+:3]1([H:13])[C:4]([H:11])([H:12])[C-:5]1[H:14])([H:9])[H:10])([H:6])([H:7])[H:8]"
C        1.80314403       0.32637702       0.16525620
C        0.63056801      -0.43286334      -0.42545196
N       -0.57039211       0.38694329      -0.47580395
C       -1.86498750      -0.25099549      -0.31173159
C       -1.46024451       0.47856230       0.91444380
H        2.01064759       1.22778565      -0.41400079
H        1.59680732       0.62025023       1.19613800
H        2.70028342      -0.29363481       0.16044441
H        0.43150782      -1.33982665       0.15949686
H        0.85755714      -0.74346114      -1.44994340
H       -1.80052378      -1.33644359      -0.32686135
H       -2.65347965       0.14589686      -0.94470823
H       -0.72949289       1.40275379       0.13643090
H       -0.95139489      -0.19134413       1.61629112
14
Frame=6 idx=003988 GeodesicLength=0.34837440781573464 rxn_smarts="[C:1]([C:2]([N:3]1[C:4]([H:11])([H:12])[C:5]1([H:13])[H:14])([H:9])[H:10])([H:6])([H:7])[H:8]>>[C:1]([C:2]([N+:3]1([H:13])[C:4]([H:11])([H:12])[C-:5]1[H:14])([H:9])[H:10])([H:6])([H:7])[H:8]"
C        1.80565270       0.32414479       0.16546866
C        0.63084265      -0.43244981      -0.42410361
N       -0.57093469       0.38603587      -0.46611770
C       -1.86525346      -0.25549706      -0.31289837
C       -1.45395014       0.47705475       0.90948097
H        2.01385063       1.22571901      -0.41329009
H        1.60087127       0.61776529       1.19669367
H        2.70179357      -0.29736248       0.15890577
H        0.43357717      -1.34120199       0.15872234
H        0.85402399      -0.74008470      -1.45032516
H       -1.80125158      -1.34103913      -0.32818694
H       -2.65167403       0.14379203      -0.94681248
H       -0.74500553       1.42287107       0.13344557
H       -0.95254254      -0.18974765       1.61901736
14
Frame=7 idx=003988 GeodesicLength=0.40644378633327777 rxn_smarts="[C:1]([C:2]([N:3]1[C:4]([H:11])([H:12])[C:5]1([H:13])[H:14])([H:9])[H:10])([H:6])([H:7])[H:8]>>[C:1]([C:2]([N+:3]1([H:13])[C:4]([H:11])([H:12])[C-:5]1[H:14])([H:9])[H:10])([H:6])([H:7])[H:8]"
C        1.80820081       0.32186676       0.16565303
C        0.63113679      -0.43203366      -0.42279073
N       -0.57138935       0.38519668      -0.45654590
C       -1.86537920      -0.25991900      -0.31406022
C       -1.44771866       0.47564926       0.90456052
H        2.01706408       1.22365382      -0.41254250
H        1.60499602       0.61516559       1.19724285
H        2.70333642      -0.30113349       0.15727178
H        0.43562794      -1.34254016       0.15793440
H        0.85052444      -0.73671514      -1.45071030
H       -1.80190578      -1.34555947      -0.32944144
H       -2.64973579       0.14166806      -0.94895149
H       -0.76099773       1.44262036       0.13063410
H       -0.95375999      -0.18791961       1.62174592
14
Frame=8 idx=003988 GeodesicLength=0.464515583971521 rxn_smarts="[C:1]([C:2]([N:3]1[C:4]([H:11])([H:12])[C:5]1([H:13])[H:14])([H:9])[H:10])([H:6])([H:7])[H:8]>>[C:1]([C:2]([N+:3]1([H:13])[C:4]([H:11])([H:12])[C-:5]1[H:14])([H:9])[H:10])([H:6])([H:7])[H:8]"
C        1.81078846       0.31954388       0.16580897
C        0.63145142      -0.43161558      -0.42151154
N       -0.57175824       0.38441920      -0.44709894
C       -1.86536853      -0.26426115      -0.31522065
C       -1.44154633       0.47434236       0.89967915
H        2.02029185       1.22158646      -0.41176398
H        1.60917968       0.61245798       1.19778291
H        2.70491096      -0.30494803       0.15554834
H        0.43766010      -1.34384147       0.15713627
H        0.84706374      -0.73336100      -1.45109447
H       -1.80249247      -1.35000473      -0.33062824
H       -2.64767043       0.13952881      -0.95112548
H       -0.77747205       1.46201630       0.12801838
H       -0.95503815      -0.18586302       1.62446930
14
Frame=9 idx=003988 GeodesicLength=0.5225937653067949 rxn_smarts="[C:1]([C:2]([N:3]1[C:4]([H:11])([H:12])[C:5]1([H:13])[H:14])([H:9])[H:10])([H:6])([H:7])[H:8]>>[C:1]([C:2]([N+:3]1([H:13])[C:4]([H:11])([H:12])[C-:5]1[H:14])([H:9])[H:10])([H:6])([H:7])[H:8]"
C        1.81341586       0.31717597       0.16593755
C        0.63178755      -0.43119668      -0.42026402
N       -0.57204447       0.38369758      -0.43778032
C       -1.86522627      -0.26852531      -0.31638202
C       -1.43542624       0.47313280       0.89483338
H        2.02353799       1.21951319      -0.41095837
H        1.61342000       0.60964765       1.19831272
H        2.70651643      -0.30880726       0.15374229
H        0.43967464      -1.34510831       0.15632912
H        0.84364509      -0.73002579      -1.45147564
H       -1.80301713      -1.35437643      -0.33174957
H       -2.64548344       0.13737696      -0.95333308
H       -0.79443192       1.48107933       0.12560695
H       -0.95636809      -0.18358371       1.62718101
14
Frame=10 idx=003988 GeodesicLength=0.580677901001418 rxn_smarts="[C:1]([C:2]([N:3]1[C:4]([H:11])([H:12])[C:5]1([H:13])[H:14])([H:9])[H:10])([H:6])([H:7])[H:8]>>[C:1]([C:2]([N+:3]1([H:13])[C:4]([H:11])([H:12])[C-:5]1[H:14])([H:9])[H:10])([H:6])([H:7])[H:8]"
C        1.81608281       0.31476486       0.16603690
C        0.63214732      -0.43077929      -0.41904755
N       -0.57224768       0.38302347      -0.42860720
C       -1.86495524      -0.27270920      -0.31754819
C       -1.42935630       0.47201601       0.89001799
H        2.02680580       1.21742999      -0.41013446
H        1.61771381       0.60674437       1.19882737
H        2.70815213      -0.31270972       0.15186030
H        0.44167120      -1.34634000       0.15551819
H        0.84027682      -0.72672474      -1.45184857
H       -1.80348654      -1.35867285      -0.33281074
H       -2.64318002       0.13521822      -0.95557501
H       -0.81188273       1.49981898       0.12343872
H       -0.95774140      -0.18108011       1.62987225
14
Frame=11 idx=003988 GeodesicLength=0.6387680577494413 rxn_smarts="[C:1]([C:2]([N:3]1[C:4]([H:11])([H:12])[C:5]1([H:13])[H:14])([H:9])[H:10])([H:6])([H:7])[H:8]>>[C:1]([C:2]([N+:3]1([H:13])[C:4]([H:11])([H:12])[C-:5]1[H:14])([H:9])[H:10])([H:6])([H:7])[H:8]"
C        1.81878965       0.31231076       0.16610702
C        0.63253262      -0.43036549      -0.41786115
N       -0.57236906       0.38239069      -0.41958614
C       -1.86455912      -0.27681294      -0.31872244
C       -1.42332923       0.47099209       0.88522872
H        2.03009931       1.21533270      -0.40929782
H        1.62205835       0.60375450       1.19932435
H        2.70981749      -0.31665628       0.14990934
H        0.44365066      -1.34753841       0.15470566
H        0.83696376      -0.72346483      -1.45221134
H       -1.80390586      -1.36289418      -0.33381275
H       -2.64076395       0.13305616      -0.95785175
H       -0.82983384       1.51825096       0.12153254
H       -0.95915078      -0.17835573       1.63253576
14
Frame=12 idx=003988 GeodesicLength=0.6968576285312326 rxn_smarts="[C:1]([C:2]([N:3]1[C:4]([H:11])([H:12])[C:5]1([H:13])[H:14])([H:9])[H:10])([H:6])([H:7])[H:8]>>[C:1]([C:2]([N+:3]1([H:13])[C:4]([H:11])([H:12])[C-:5]1[H:14])([H:9])[H:10])([H:6])([H:7])[H:8]"
C        1.82153661       0.30981407       0.16614722
C        0.63294554      -0.42995765      -0.41670439
N       -0.57240883       0.38179339      -0.41072626
C       -1.86404140      -0.28083620      -0.31990717
C       -1.41734071       0.47006000       0.88046007
H        2.03342253       1.21321704      -0.40845456
H        1.62645084       0.60068529       1.19980033
H        2.71151210      -0.32064726       0.14789633
H        0.44561332      -1.34870443       0.15389435
H        0.83371134      -0.72025526      -1.45256151
H       -1.80428038      -1.36704003      -0.33475838
H       -2.63823902       0.13089416      -0.96016480
H       -0.84829366       1.53638714       0.11991389
H       -0.96058828      -0.17541028       1.63516489
14
Frame=13 idx=003988 GeodesicLength=0.7549497294902595 rxn_smarts="[C:1]([C:2]([N:3]1[C:4]([H:11])([H:12])[C:5]1([H:13])[H:14])([H:9])[H:10])([H:6])([H:7])[H:8]>>[C:1]([C:2]([N+:3]1([H:13])[C:4]([H:11])([H:12])[C-:5]1[H:14])([H:9])[H:10])([H:6])([H:7])[H:8]"
C        1.82432428       0.30727480       0.16615699
C        0.63338851      -0.42955900      -0.41557666
N       -0.57236689       0.38122541      -0.40203449
C       -1.86340550      -0.28477888      -0.32110619
C       -1.41138383       0.46922094       0.87570568
H        2.03677942       1.21107865      -0.40761135
H        1.63088851       0.59754390       1.20025202
H        2.71323605      -0.32468320       0.14582832
H        0.44756033      -1.34984025       0.15308726
H        0.83052492      -0.71710464      -1.45289757
H       -1.80461540      -1.37111054      -0.33564824
H       -2.63560826       0.12873629      -0.96251619
H       -0.86727477       1.55424217       0.11860765
H       -0.96204736      -0.17224565       1.63775278
14
Frame=14 idx=003988 GeodesicLength=0.8130424052992163 rxn_smarts="[C:1]([C:2]([N:3]1[C:4]([H:11])([H:12])[C:5]1([H:13])[H:14])([H:9])[H:10])([H:6])([H:7])[H:8]>>[C:1]([C:2]([N+:3]1([H:13])[C:4]([H:11])([H:12])[C-:5]1[H:14])([H:9])[H:10])([H:6])([H:7])[H:8]"
C        1.82715358       0.30469286       0.16613552
C        0.63386429      -0.42917270      -0.41447734
N       -0.57224265       0.38068150      -0.39351732
C       -1.86265450      -0.28864059      -0.32232274
C       -1.40545202       0.46847582       0.87095917
H        2.04017462       1.20891239      -0.40677546
H        1.63536899       0.59433810       1.20067569
H        2.71498948      -0.32876535       0.14371248
H        0.44949279      -1.35094776       0.15228781
H        0.82740951      -0.71402179      -1.45321810
H       -1.80491552      -1.37510502      -0.33648413
H       -2.63287370       0.12658650      -0.96490840
H       -0.88679276       1.57182768       0.11764017
H       -0.96352210      -0.16886165       1.64029265
14
Frame=15 idx=003988 GeodesicLength=0.8711325720815153 rxn_smarts="[C:1]([C:2]([N:3]1[C:4]([H:11])([H:12])[C:5]1([H:13])[H:14])([H:9])[H:10])([H:6])([H:7])[H:8]>>[C:1]([C:2]([N+:3]1([H:13])[C:4]([H:11])([H:12])[C-:5]1[H:14])([H:9])[H:10])([H:6])([H:7])[H:8]"
C        1.83002555       0.30206810       0.16608169
C        0.63437583      -0.42880243      -0.41340605
N       -0.57203481       0.38015660      -0.38518163
C       -1.86179116      -0.29242038      -0.32356052
C       -1.39953890       0.46782688       0.86621346
H        2.04361272       1.20671310      -0.40595467
H        1.63989003       0.59107584       1.20106729
H        2.71677286      -0.33289482       0.14155587
H        0.45141169      -1.35202870       0.15149986
H        0.82437034      -0.71101640      -1.45352169
H       -1.80518537      -1.37902252      -0.33726686
H       -2.63003664       0.12444895      -0.96734528
H       -0.90686516       1.58915370       0.11704075
H       -0.96500698      -0.16525792       1.64277777
14
Frame=16 idx=003988 GeodesicLength=0.9292164859820067 rxn_smarts="[C:1]([C:2]([N:3]1[C:4]([H:11])([H:12])[C:5]1([H:13])[H:14])([H:9])[H:10])([H:6])([H:7])[H:8]>>[C:1]([C:2]([N+:3]1([H:13])[C:4]([H:11])([H:12])[C-:5]1[H:14])([H:9])[H:10])([H:6])([H:7])[H:8]"
C        1.83294146       0.29940006       0.16599461
C        0.63492608      -0.42845185      -0.41236249
N       -0.57174188       0.37964630      -0.37703327
C       -1.86081809      -0.29611726      -0.32482261
C       -1.39363824       0.46727594       0.86146170
H        2.04709872       1.20447532      -0.40515634
H        1.64444959       0.58776483       1.20142302
H        2.71858667      -0.33707326       0.13936579
H        0.45331809      -1.35308503       0.15072701
H        0.82141232      -0.70809755      -1.45380735
H       -1.80542932      -1.38286198      -0.33799745
H       -2.62709781       0.12232783      -0.96983065
H       -0.92751181       1.60623025       0.11683607
H       -0.96649578      -0.16143359       1.64520196
