12
Frame=0 idx=011946 GeodesicLength=0.0 rxn_smarts="[N:1]([c:2]1[c:3]([H:10])[n:4]([H:11])[c:5]([O:6][H:12])[n:7]1)([H:8])[H:9]>>[N:1]([C:2](/[C:3](=[N:4]/[H:11])[H:10])=[N:7]/[C:5](=[O:6])[H:12])([H:8])[H:9]"
N        2.09183609       0.65532246      -0.10051637
C        0.77627867       0.25331143       0.03771548
C        0.27702244      -1.04485159      -0.13017304
N       -1.05423171      -0.93424042      -0.03093902
C       -1.38924106       0.42014202       0.16068709
O       -2.59679389       0.79583254       0.58640068
N       -0.20528638       1.11861093       0.24883223
H        2.77970303      -0.01360468       0.20160850
H        2.25454946       1.57578820       0.27501718
H        0.77429235      -1.95911302      -0.41153025
H       -1.73632082      -1.67187358      -0.06959272
H       -1.97180821       0.80467570      -0.76750977
12
Frame=1 idx=011946 GeodesicLength=0.12037102203487464 rxn_smarts="[N:1]([c:2]1[c:3]([H:10])[n:4]([H:11])[c:5]([O:6][H:12])[n:7]1)([H:8])[H:9]>>[N:1]([C:2](/[C:3](=[N:4]/[H:11])[H:10])=[N:7]/[C:5](=[O:6])[H:12])([H:8])[H:9]"
N        2.07826462       0.65635498      -0.12076763
C        0.77467940       0.24537233       0.07722092
C        0.27998151      -1.05435696      -0.10206742
N       -1.05330532      -0.94335178      -0.11828882
C       -1.39061599       0.42732868       0.16228925
O       -2.60017999       0.77069221       0.59476492
N       -0.20542729       1.10963948       0.30153294
H        2.78401173      -0.00905413       0.14545814
H        2.25094879       1.58496469       0.22870731
H        0.78821351      -1.98975620      -0.27215568
H       -1.72719914      -1.68876220      -0.15611597
H       -1.97937184       0.89092891      -0.74057795
12
Frame=2 idx=011946 GeodesicLength=0.24072773803738676 rxn_smarts="[N:1]([c:2]1[c:3]([H:10])[n:4]([H:11])[c:5]([O:6][H:12])[n:7]1)([H:8])[H:9]>>[N:1]([C:2](/[C:3](=[N:4]/[H:11])[H:10])=[N:7]/[C:5](=[O:6])[H:12])([H:8])[H:9]"
N        2.06468179       0.65585876      -0.13922670
C        0.77441474       0.23823941       0.11450520
C        0.28294619      -1.06287906      -0.07571402
N       -1.04354873      -0.94942186      -0.19876847
C       -1.38985561       0.43425848       0.16403110
O       -2.60135337       0.74224991       0.60295392
N       -0.20524658       1.10195318       0.34578356
H        2.78445050      -0.00728549       0.09234561
H        2.24522651       1.59275133       0.18223638
H        0.78724112      -2.01397304      -0.13156231
H       -1.70965465      -1.70150710      -0.24922089
H       -1.98930192       0.96975548      -0.70736338
12
Frame=3 idx=011946 GeodesicLength=0.36153127017321585 rxn_smarts="[N:1]([c:2]1[c:3]([H:10])[n:4]([H:11])[c:5]([O:6][H:12])[n:7]1)([H:8])[H:9]>>[N:1]([C:2](/[C:3](=[N:4]/[H:11])[H:10])=[N:7]/[C:5](=[O:6])[H:12])([H:8])[H:9]"
N        2.05255194       0.65403767      -0.15390881
C        0.77482559       0.23307898       0.14609574
C        0.28599987      -1.06970572      -0.05319510
N       -1.02733592      -0.95431196      -0.27056033
C       -1.38792021       0.44175532       0.16415008
O       -2.60008950       0.71201862       0.61141264
N       -0.20496432       1.09785148       0.37607344
H        2.78164415      -0.01005492       0.04233040
H        2.24026569       1.59699330       0.14388461
H        0.77530858      -2.02855900       0.00200037
H       -1.68526625      -1.71272344      -0.33777959
H       -2.00501962       1.03961968      -0.67050345
12
Frame=4 idx=011946 GeodesicLength=0.4829531229094344 rxn_smarts="[N:1]([c:2]1[c:3]([H:10])[n:4]([H:11])[c:5]([O:6][H:12])[n:7]1)([H:8])[H:9]>>[N:1]([C:2](/[C:3](=[N:4]/[H:11])[H:10])=[N:7]/[C:5](=[O:6])[H:12])([H:8])[H:9]"
N        2.04202782       0.65133052      -0.16553585
C        0.77570060       0.22941770       0.17302925
C        0.28940369      -1.07553744      -0.03320504
N       -1.00622214      -0.95913795      -0.33584800
C       -1.38530316       0.44973660       0.16276273
O       -2.59733766       0.68040391       0.61839197
N       -0.20444818       1.09615134       0.39784568
H        2.77650948      -0.01599223      -0.00428117
H        2.23618970       1.59930901       0.11043396
H        0.75313581      -2.03535085       0.12707962
H       -1.65532486      -1.72394558      -0.42014106
H       -2.02433110       1.10361498      -0.63053210
12
Frame=5 idx=011946 GeodesicLength=0.6049079200338894 rxn_smarts="[N:1]([c:2]1[c:3]([H:10])[n:4]([H:11])[c:5]([O:6][H:12])[n:7]1)([H:8])[H:9]>>[N:1]([C:2](/[C:3](=[N:4]/[H:11])[H:10])=[N:7]/[C:5](=[O:6])[H:12])([H:8])[H:9]"
N        2.03257238       0.64799115      -0.17489477
C        0.77678817       0.22682999       0.19705305
C        0.29298473      -1.08080266      -0.01378381
N       -0.98104959      -0.96460995      -0.39565088
C       -1.38228368       0.45831037       0.15984012
O       -2.59357894       0.64801816       0.62258307
N       -0.20379290       1.09607088       0.41439790
H        2.76925919      -0.02433295      -0.04941101
H        2.23283816       1.60012576       0.08062434
H        0.72269139      -2.03543933       0.24366692
H       -1.62068934      -1.73584115      -0.49675274
H       -2.04573956       1.16367974      -0.58767219
12
Frame=6 idx=011946 GeodesicLength=0.7273861334053746 rxn_smarts="[N:1]([c:2]1[c:3]([H:10])[n:4]([H:11])[c:5]([O:6][H:12])[n:7]1)([H:8])[H:9]>>[N:1]([C:2](/[C:3](=[N:4]/[H:11])[H:10])=[N:7]/[C:5](=[O:6])[H:12])([H:8])[H:9]"
N        2.02454173       0.64370557      -0.18209661
C        0.77776058       0.22555625       0.21775039
C        0.29631549      -1.08532959       0.00546212
N       -0.95262772      -0.97112014      -0.45104658
C       -1.37920780       0.46786639       0.15491213
O       -2.58845822       0.61468108       0.62524342
N       -0.20308916       1.09819284       0.42449937
H        2.76013245      -0.03525772      -0.09231300
H        2.23110666       1.59905626       0.05455361
H        0.68619176      -2.02892104       0.35227585
H       -1.58205058      -1.74892319      -0.56826747
H       -2.07061520       1.22049330      -0.54097322
12
Frame=7 idx=011946 GeodesicLength=0.8503892800842363 rxn_smarts="[N:1]([c:2]1[c:3]([H:10])[n:4]([H:11])[c:5]([O:6][H:12])[n:7]1)([H:8])[H:9]>>[N:1]([C:2](/[C:3](=[N:4]/[H:11])[H:10])=[N:7]/[C:5](=[O:6])[H:12])([H:8])[H:9]"
N        2.01653867       0.63909264      -0.18805110
C        0.77875293       0.22463731       0.23836770
C        0.29949512      -1.08977771       0.02633307
N       -0.92034293      -0.97892745      -0.50278163
C       -1.37592862       0.47824263       0.14817646
O       -2.58308175       0.58108559       0.62270158
N       -0.20245759       1.10052695       0.43429595
H        2.74851553      -0.04750030      -0.13719615
H        2.22916500       1.59731972       0.02957656
H        0.64325993      -2.01792902       0.45464177
H       -1.53884804      -1.76335021      -0.63583159
H       -2.09506826       1.27657985      -0.49023263
12
Frame=8 idx=011946 GeodesicLength=0.9739549405056467 rxn_smarts="[N:1]([c:2]1[c:3]([H:10])[n:4]([H:11])[c:5]([O:6][H:12])[n:7]1)([H:8])[H:9]>>[N:1]([C:2](/[C:3](=[N:4]/[H:11])[H:10])=[N:7]/[C:5](=[O:6])[H:12])([H:8])[H:9]"
N        2.00930715       0.63374429      -0.19235254
C        0.77950630       0.22452054       0.25752944
C        0.30214071      -1.09376011       0.04808676
N       -0.88479726      -0.98835083      -0.55136789
C       -1.37271094       0.48993864       0.13888145
O       -2.57669132       0.54720706       0.61672998
N       -0.20191001       1.10408904       0.44083344
H        2.73458949      -0.06144408      -0.18200239
H        2.22803064       1.59436835       0.00646874
H        0.59533302      -2.00216814       0.55052430
H       -1.49157978      -1.77963781      -0.69934453
H       -2.12121799       1.33149305      -0.43398677
12
Frame=9 idx=011946 GeodesicLength=1.097977612853843 rxn_smarts="[N:1]([c:2]1[c:3]([H:10])[n:4]([H:11])[c:5]([O:6][H:12])[n:7]1)([H:8])[H:9]>>[N:1]([C:2](/[C:3](=[N:4]/[H:11])[H:10])=[N:7]/[C:5](=[O:6])[H:12])([H:8])[H:9]"
N        2.00280168       0.62744547      -0.19503692
C        0.77997186       0.22494343       0.27562109
C        0.30409047      -1.09734465       0.07050629
N       -0.84600464      -0.99947976      -0.59735018
C       -1.36954185       0.50315076       0.12693814
O       -2.56929474       0.51346534       0.60677006
N       -0.20139706       1.10849126       0.44510023
H        2.71868247      -0.07661671      -0.22476092
H        2.22672453       1.59073515      -0.01755066
H        0.54254417      -1.98244874       0.63964136
H       -1.44033328      -1.79787674      -0.75911359
H       -2.14824361       1.38553520      -0.37076490
12
Frame=10 idx=011946 GeodesicLength=1.2223668437618829 rxn_smarts="[N:1]([c:2]1[c:3]([H:10])[n:4]([H:11])[c:5]([O:6][H:12])[n:7]1)([H:8])[H:9]>>[N:1]([C:2](/[C:3](=[N:4]/[H:11])[H:10])=[N:7]/[C:5](=[O:6])[H:12])([H:8])[H:9]"
N        1.99728250       0.62018342      -0.19585696
C        0.77991588       0.22615872       0.29215656
C        0.30507156      -1.10023181       0.09325237
N       -0.80420966      -1.01250013      -0.64100372
C       -1.36662161       0.51827989       0.11179696
O       -2.56056839       0.48025237       0.59320463
N       -0.20098438       1.11422973       0.44578465
H        2.70090375      -0.09314885      -0.26523743
H        2.22572778       1.58612620      -0.04177567
H        0.48538767      -1.95870503       0.72197933
H       -1.38534643      -1.81836262      -0.81498643
H       -2.17655866       1.43771811      -0.29931429
12
Frame=11 idx=011946 GeodesicLength=1.3472620842982137 rxn_smarts="[N:1]([c:2]1[c:3]([H:10])[n:4]([H:11])[c:5]([O:6][H:12])[n:7]1)([H:8])[H:9]>>[N:1]([C:2](/[C:3](=[N:4]/[H:11])[H:10])=[N:7]/[C:5](=[O:6])[H:12])([H:8])[H:9]"
N        1.99263501       0.61194928      -0.19475522
C        0.77921069       0.22826102       0.30757214
C        0.30473657      -1.10222413       0.11674742
N       -0.75913960      -1.02739631      -0.68255738
C       -1.36399603       0.53573637       0.09312036
O       -2.55059488       0.44780112       0.57516936
N       -0.20070218       1.12141022       0.44315367
H        2.68092419      -0.11101727      -0.30433765
H        2.22493403       1.58046460      -0.06662758
H        0.42360334      -1.93102702       0.79820537
H       -1.32622716      -1.84112819      -0.86751265
H       -2.20538399       1.48717031      -0.21817784
12
Frame=12 idx=011946 GeodesicLength=1.4728725634829944 rxn_smarts="[N:1]([c:2]1[c:3]([H:10])[n:4]([H:11])[c:5]([O:6][H:12])[n:7]1)([H:8])[H:9]>>[N:1]([C:2](/[C:3](=[N:4]/[H:11])[H:10])=[N:7]/[C:5](=[O:6])[H:12])([H:8])[H:9]"
N        1.98851694       0.60303144      -0.19130391
C        0.77785980       0.23111386       0.32301993
C        0.30290920      -1.10327728       0.14182543
N       -0.71007026      -1.04418189      -0.72167720
C       -1.36143259       0.55585458       0.07088102
O       -2.53995964       0.41696054       0.55014866
N       -0.20058100       1.12962804       0.43895417
H        2.65716934      -0.12981472      -0.34614853
H        2.22399379       1.57383944      -0.09161756
H        0.35629469      -1.89958427       0.86920225
H       -1.26209592      -1.86621109      -0.91659166
H       -2.23260436       1.53264135      -0.12669261
12
Frame=13 idx=011946 GeodesicLength=1.5991698887839547 rxn_smarts="[N:1]([c:2]1[c:3]([H:10])[n:4]([H:11])[c:5]([O:6][H:12])[n:7]1)([H:8])[H:9]>>[N:1]([C:2](/[C:3](=[N:4]/[H:11])[H:10])=[N:7]/[C:5](=[O:6])[H:12])([H:8])[H:9]"
N        1.98522597       0.59328181      -0.18564512
C        0.77569966       0.23502816       0.33773035
C        0.29917854      -1.10297538       0.16767893
N       -0.65758157      -1.06275368      -0.75816321
C       -1.35900910       0.57914766       0.04553737
O       -2.52855855       0.38877102       0.51880982
N       -0.20037962       1.13955983       0.43207159
H        2.62959065      -0.14914241      -0.38945325
H        2.22365928       1.56579676      -0.11602846
H        0.28382579      -1.86411260       0.93390932
H       -1.19364671      -1.89355850      -0.96151692
H       -2.25800435       1.57095733      -0.02493043
12
Frame=14 idx=011946 GeodesicLength=1.7259454941353178 rxn_smarts="[N:1]([c:2]1[c:3]([H:10])[n:4]([H:11])[c:5]([O:6][H:12])[n:7]1)([H:8])[H:9]>>[N:1]([C:2](/[C:3](=[N:4]/[H:11])[H:10])=[N:7]/[C:5](=[O:6])[H:12])([H:8])[H:9]"
N        1.98312669       0.58243845      -0.17754016
C        0.77250651       0.24023723       0.35095105
C        0.29310357      -1.10086647       0.19312259
N       -0.60256514      -1.08270304      -0.79197982
C       -1.35687716       0.60604954       0.01816931
O       -2.51617091       0.36442433       0.48304853
N       -0.19980661       1.15180675       0.42160562
H        2.59899870      -0.16867290      -0.43128891
H        2.22405124       1.55588084      -0.14072100
H        0.20707277      -1.82455935       0.99071620
H       -1.12206271      -1.92263087      -1.00185881
H       -2.28137696       1.59859549       0.08577541
12
Frame=15 idx=011946 GeodesicLength=1.8533377277902516 rxn_smarts="[N:1]([c:2]1[c:3]([H:10])[n:4]([H:11])[c:5]([O:6][H:12])[n:7]1)([H:8])[H:9]>>[N:1]([C:2](/[C:3](=[N:4]/[H:11])[H:10])=[N:7]/[C:5](=[O:6])[H:12])([H:8])[H:9]"
N        1.98185163       0.57074715      -0.16768169
C        0.76829178       0.24673729       0.36269369
C        0.28453485      -1.09686997       0.21809301
N       -0.54543794      -1.10420963      -0.82248362
C       -1.35495081       0.63686301      -0.01054874
O       -2.50331893       0.34509807       0.44232542
N       -0.19866248       1.16635735       0.40835877
H        2.56442762      -0.18727851      -0.47417370
H        2.22604015       1.54391504      -0.16305911
H        0.12666574      -1.78124181       1.03945662
H       -1.04815411      -1.95357080      -1.03634179
H       -2.30128751       1.61345279       0.20336113
12
Frame=16 idx=011946 GeodesicLength=1.9817676825017594 rxn_smarts="[N:1]([c:2]1[c:3]([H:10])[n:4]([H:11])[c:5]([O:6][H:12])[n:7]1)([H:8])[H:9]>>[N:1]([C:2](/[C:3](=[N:4]/[H:11])[H:10])=[N:7]/[C:5](=[O:6])[H:12])([H:8])[H:9]"
N        1.98058449       0.55840793      -0.15776507
C        0.76340398       0.25418791       0.37350819
C        0.27361939      -1.09116268       0.24292927
N       -0.48585301      -1.12732168      -0.84897770
C       -1.35264101       0.67174286      -0.03966128
O       -2.49069312       0.33192134       0.39475801
N       -0.19662007       1.18263131       0.39458120
H        2.52486483      -0.20374287      -0.51986452
H        2.22949160       1.53003486      -0.18239981
H        0.04141848      -1.73403850       1.08038227
H       -0.97188072      -1.98624755      -1.06418575
H       -2.31569484       1.61358705       0.32669519
