16
Frame=0 idx=005853 GeodesicLength=0.0 rxn_smarts="[C:1]([C@@:2]1([H:10])[C:3]([H:11])([H:12])[C:4]([H:13])([H:14])[C:5]([H:15])([H:16])[O:6]1)([H:7])([H:8])[H:9]>>[C:1]([C@@:2]([C:3]([C:4](=[C:5]([H:15])[H:16])[H:13])([H:11])[H:12])([O:6][H:14])[H:10])([H:7])([H:8])[H:9]"
C        1.84221902       0.15321030       0.50300369
C        0.64015696       0.62341696      -0.29115832
C       -0.12889801      -0.55948798      -1.03350316
C       -1.51920593      -0.40125015      -0.49276615
C       -1.45455306      -0.26011692       0.90786562
O       -0.30796030       1.28059057       0.52376289
H        2.31896294       0.99466740       1.00654453
H        2.57287050      -0.31998418      -0.15789376
H        1.55611058      -0.57888533       1.26184955
H        0.96984217       1.34192584      -1.04816301
H       -0.08312663      -0.45470942      -2.11795552
H        0.33750425      -1.51354594      -0.77013097
H       -2.43822244      -0.59088297      -1.02766754
H       -1.30198829       0.91127026      -0.24326823
H       -0.68053829      -0.71216249       1.52013060
H       -2.32317349       0.08594404       1.45934984
16
Frame=1 idx=005853 GeodesicLength=0.06995893320163168 rxn_smarts="[C:1]([C@@:2]1([H:10])[C:3]([H:11])([H:12])[C:4]([H:13])([H:14])[C:5]([H:15])([H:16])[O:6]1)([H:7])([H:8])[H:9]>>[C:1]([C@@:2]([C:3]([C:4](=[C:5]([H:15])[H:16])[H:13])([H:11])[H:12])([O:6][H:14])[H:10])([H:7])([H:8])[H:9]"
C        1.84566027       0.14943046       0.50237548
C        0.64448849       0.62141040      -0.29108753
C       -0.12823006      -0.55318990      -1.03365642
C       -1.51925540      -0.39954962      -0.49037276
C       -1.45874143      -0.25517647       0.91102724
O       -0.30103445       1.28132171       0.52657703
H        2.32177139       0.98966823       1.00852407
H        2.57658033      -0.32122103      -0.15997328
H        1.55965384      -0.58552601       1.25820242
H        0.97574819       1.34093074      -1.04696936
H       -0.08844641      -0.43919571      -2.11769711
H        0.33532499      -1.51157064      -0.78240862
H       -2.43211642      -0.63257620      -1.01888366
H       -1.30509634       0.93432324      -0.25704177
H       -0.69144761      -0.70178329       1.53517645
H       -2.33485937       0.08270407       1.45620782
16
Frame=2 idx=005853 GeodesicLength=0.13990038960511886 rxn_smarts="[C:1]([C@@:2]1([H:10])[C:3]([H:11])([H:12])[C:4]([H:13])([H:14])[C:5]([H:15])([H:16])[O:6]1)([H:7])([H:8])[H:9]>>[C:1]([C@@:2]([C:3]([C:4](=[C:5]([H:15])[H:16])[H:13])([H:11])[H:12])([O:6][H:14])[H:10])([H:7])([H:8])[H:9]"
C        1.84894673       0.14555587       0.50174537
C        0.64873973       0.61939854      -0.29105991
C       -0.12771085      -0.54682942      -1.03386659
C       -1.51950044      -0.39764123      -0.48805246
C       -1.46297303      -0.25033299       0.91417944
O       -0.29427001       1.28202603       0.52926596
H        2.32441608       0.98452587       1.01057280
H        2.58014872      -0.32255560      -0.16202471
H        1.56296359      -0.59227394       1.25448811
H        0.98164465       1.33991420      -1.04579614
H       -0.09395269      -0.42354367      -2.11737951
H        0.33296003      -1.50942519      -0.79495971
H       -2.42452784      -0.67465407      -1.00912560
H       -1.30787875       0.95779474      -0.27125528
H       -0.70251517      -0.69116693       1.55023806
H       -2.34649075       0.07920780       1.45303017
16
Frame=3 idx=005853 GeodesicLength=0.2098256638189821 rxn_smarts="[C:1]([C@@:2]1([H:10])[C:3]([H:11])([H:12])[C:4]([H:13])([H:14])[C:5]([H:15])([H:16])[O:6]1)([H:7])([H:8])[H:9]>>[C:1]([C@@:2]([C:3]([C:4](=[C:5]([H:15])[H:16])[H:13])([H:11])[H:12])([O:6][H:14])[H:10])([H:7])([H:8])[H:9]"
C        1.85207089       0.14159595       0.50111100
C        0.65289653       0.61736924      -0.29107969
C       -0.12734121      -0.54043192      -1.03412503
C       -1.51995033      -0.39557452      -0.48580273
C       -1.46724450      -0.24562466       0.91732936
O       -0.28768764       1.28268719       0.53182333
H        2.32687967       0.97925925       1.01267986
H        2.58357337      -0.32397497      -0.16404740
H        1.56604325      -0.59911656       1.25071045
H        0.98750786       1.33886074      -1.04465439
H       -0.09964245      -0.40779147      -2.11699255
H        0.33042067      -1.50712027      -0.80776994
H       -2.41541151      -0.71689658      -0.99839751
H       -1.31032056       0.98166882      -0.28593375
H       -0.71373270      -0.68032261       1.56532122
H       -2.35806136       0.07541237       1.44982776
16
Frame=4 idx=005853 GeodesicLength=0.27973693399388744 rxn_smarts="[C:1]([C@@:2]1([H:10])[C:3]([H:11])([H:12])[C:4]([H:13])([H:14])[C:5]([H:15])([H:16])[O:6]1)([H:7])([H:8])[H:9]>>[C:1]([C@@:2]([C:3]([C:4](=[C:5]([H:15])[H:16])[H:13])([H:11])[H:12])([O:6][H:14])[H:10])([H:7])([H:8])[H:9]"
C        1.85502729       0.13756275       0.50047083
C        0.65694508       0.61530892      -0.29115100
C       -0.12711835      -0.53402814      -1.03442211
C       -1.52060872      -0.39341238      -0.48361540
C       -1.47154992      -0.24109275       0.92048726
O       -0.28130873       1.28328724       0.53424156
H        2.32914500       0.97389221       1.01483426
H        2.58685526      -0.32546247      -0.16603919
H        1.56890035      -0.60603858       1.24687525
H        0.99331256       1.33775320      -1.04355641
H       -0.10551109      -0.39198323      -2.11652574
H        0.32772512      -1.50467109      -0.82082211
H       -2.40475231      -0.75904538      -0.98672372
H       -1.31241121       1.00591931      -0.30110306
H       -0.72508833      -0.66925948       1.58043568
H       -2.36956201       0.07126987       1.44661391
16
Frame=5 idx=005853 GeodesicLength=0.34963736259254863 rxn_smarts="[C:1]([C@@:2]1([H:10])[C:3]([H:11])([H:12])[C:4]([H:13])([H:14])[C:5]([H:15])([H:16])[O:6]1)([H:7])([H:8])[H:9]>>[C:1]([C@@:2]([C:3]([C:4](=[C:5]([H:15])[H:16])[H:13])([H:11])[H:12])([O:6][H:14])[H:10])([H:7])([H:8])[H:9]"
C        1.85781335       0.13347073       0.49982423
C        0.66087299       0.61320287      -0.29127711
C       -0.12703616      -0.52765316      -1.03474638
C       -1.52147037      -0.39122463      -0.48147687
C       -1.47588007      -0.23678233       0.92366757
O       -0.27515482       1.28380609       0.53651330
H        2.33119601       0.96845255       1.01702533
H        2.58999896      -0.32699813      -0.16799683
H        1.57154744      -0.61302258       1.24298991
H        0.99903295       1.33657350      -1.04251444
H       -0.11155316      -0.37616703      -2.11596767
H        0.32489829      -1.50209678      -0.83409691
H       -2.39257571      -0.80081860      -0.97415430
H       -1.31414296       1.03051301      -0.31679205
H       -0.73656533      -0.65798541       1.59559731
H       -2.38098140       0.06672990       1.44340491
16
Frame=6 idx=005853 GeodesicLength=0.41952797874448955 rxn_smarts="[C:1]([C@@:2]1([H:10])[C:3]([H:11])([H:12])[C:4]([H:13])([H:14])[C:5]([H:15])([H:16])[O:6]1)([H:7])([H:8])[H:9]>>[C:1]([C@@:2]([C:3]([C:4](=[C:5]([H:15])[H:16])[H:13])([H:11])[H:12])([O:6][H:14])[H:10])([H:7])([H:8])[H:9]"
C        1.86042733       0.12933809       0.49917302
C        0.66466925       0.61103602      -0.29146245
C       -0.12708518      -0.52134534      -1.03508640
C       -1.52252624      -0.38909026      -0.47936651
C       -1.48022140      -0.23274459       0.92688978
O       -0.26925052       1.28422456       0.53862453
H        2.33301432       0.96297424       1.01924379
H        2.59301157      -0.32855884      -0.16991223
H        1.57399801      -0.62004647       1.23906548
H        1.00464577       1.33530114      -1.04154361
H       -0.11776220      -0.36039683      -2.11530690
H        0.32196844      -1.49941902      -0.84757272
H       -2.37894826      -0.84190661      -0.96076181
H       -1.31549751       1.05541295      -0.33303211
H       -0.74814090      -0.64651093       1.61082306
H       -2.39230248       0.06173189       1.44022508
16
Frame=7 idx=005853 GeodesicLength=0.48940510549563976 rxn_smarts="[C:1]([C@@:2]1([H:10])[C:3]([H:11])([H:12])[C:4]([H:13])([H:14])[C:5]([H:15])([H:16])[O:6]1)([H:7])([H:8])[H:9]>>[C:1]([C@@:2]([C:3]([C:4](=[C:5]([H:15])[H:16])[H:13])([H:11])[H:12])([O:6][H:14])[H:10])([H:7])([H:8])[H:9]"
C        1.86287170       0.12518246       0.49851916
C        0.66832555       0.60879461      -0.29170867
C       -0.12725406      -0.51514140      -1.03542983
C       -1.52375997      -0.38708330      -0.47726168
C       -1.48455939      -0.22902770       0.93017459
O       -0.26361476       1.28452428       0.54056809
H        2.33458779       0.95748942       1.02148122
H        2.59590301      -0.33012131      -0.17177934
H        1.57627044      -0.62708976       1.23511268
H        1.01012873       1.33391905      -1.04065517
H       -0.12413108      -0.34472289      -2.11453197
H        0.31896571      -1.49665975      -0.86122743
H       -2.36396932      -0.88202325      -0.94663768
H       -1.31646357       1.08057879      -0.34985480
H       -0.75979263      -0.63484222       1.62613355
H       -2.40350816       0.05622297       1.43709728
16
Frame=8 idx=005853 GeodesicLength=0.559271435401841 rxn_smarts="[C:1]([C@@:2]1([H:10])[C:3]([H:11])([H:12])[C:4]([H:13])([H:14])[C:5]([H:15])([H:16])[O:6]1)([H:7])([H:8])[H:9]>>[C:1]([C@@:2]([C:3]([C:4](=[C:5]([H:15])[H:16])[H:13])([H:11])[H:12])([O:6][H:14])[H:10])([H:7])([H:8])[H:9]"
C        1.86514989       0.12102063       0.49786633
C        0.67183647       0.60646775      -0.29201709
C       -0.12753113      -0.50907301      -1.03576657
C       -1.52515300      -0.38527276      -0.47513676
C       -1.48887841      -0.22567825       0.93354431
O       -0.25826523       1.28469123       0.54233440
H        2.33590562       0.95202825       1.02373292
H        2.59868376      -0.33166437      -0.17358956
H        1.57838144      -0.63413348       1.23114237
H        1.01546656       1.33241233      -1.03985900
H       -0.13065393      -0.32918848      -2.11363308
H        0.31591763      -1.49383792      -0.87504254
H       -2.34776425      -0.92092086      -0.93187956
H       -1.31701864       1.10598124      -0.36729325
H       -0.77149662      -0.62298362       1.64154962
H       -2.41458014       0.05015130       1.43404748
16
Frame=9 idx=005853 GeodesicLength=0.6291533975265271 rxn_smarts="[C:1]([C@@:2]1([H:10])[C:3]([H:11])([H:12])[C:4]([H:13])([H:14])[C:5]([H:15])([H:16])[O:6]1)([H:7])([H:8])[H:9]>>[C:1]([C@@:2]([C:3]([C:4](=[C:5]([H:15])[H:16])[H:13])([H:11])[H:12])([O:6][H:14])[H:10])([H:7])([H:8])[H:9]"
C        1.86726614       0.11685474       0.49722564
C        0.67521411       0.60406077      -0.29238330
C       -0.12790439      -0.50312949      -1.03610128
C       -1.52667032      -0.38364958      -0.47296256
C       -1.49315070      -0.22271937       0.93702185
O       -0.25320271       1.28472581       0.54391732
H        2.33696495       0.94658967       1.02601757
H        2.60136176      -0.33318441      -0.17532808
H        1.58033131      -0.64117908       1.22716007
H        1.02068319       1.33078433      -1.03914744
H       -0.13733861      -0.31377864      -2.11261337
H        0.31283098      -1.49094360      -0.88902253
H       -2.33056215      -0.95867780      -0.91657880
H       -1.31710386       1.13165874      -0.38538670
H       -0.78323028      -0.61090712       1.65708561
H       -2.42548941       0.04349503       1.43109600
16
Frame=10 idx=005853 GeodesicLength=0.6990217919293091 rxn_smarts="[C:1]([C@@:2]1([H:10])[C:3]([H:11])([H:12])[C:4]([H:13])([H:14])[C:5]([H:15])([H:16])[O:6]1)([H:7])([H:8])[H:9]>>[C:1]([C@@:2]([C:3]([C:4](=[C:5]([H:15])[H:16])[H:13])([H:11])[H:12])([O:6][H:14])[H:10])([H:7])([H:8])[H:9]"
C        1.86922368       0.11270243       0.49659506
C        0.67844553       0.60155848      -0.29280836
C       -0.12836548      -0.49735365      -1.03641760
C       -1.52829973      -0.38230463      -0.47071961
C       -1.49736859      -0.22018830       0.94062628
O       -0.24844072       1.28461102       0.54531974
H        2.33775834       0.94120698       1.02831875
H        2.60394507      -0.33465814      -0.17699556
H        1.58214219      -0.64820455       1.22317530
H        1.02574445       1.32901864      -1.03853247
H       -0.14417017      -0.29855092      -2.11145713
H        0.30973604      -1.48800169      -0.90314462
H       -2.31241810      -0.99497426      -0.90083455
H       -1.31672708       1.15755377      -0.40415571
H       -0.79498493      -0.59862329       1.67275900
H       -2.43622048       0.03620809       1.42827149
16
Frame=11 idx=005853 GeodesicLength=0.7688837227082937 rxn_smarts="[C:1]([C@@:2]1([H:10])[C:3]([H:11])([H:12])[C:4]([H:13])([H:14])[C:5]([H:15])([H:16])[O:6]1)([H:7])([H:8])[H:9]>>[C:1]([C@@:2]([C:3]([C:4](=[C:5]([H:15])[H:16])[H:13])([H:11])[H:12])([O:6][H:14])[H:10])([H:7])([H:8])[H:9]"
C        1.87102833       0.10857269       0.49597957
C        0.68153277       0.59895885      -0.29329068
C       -0.12890643      -0.49175678      -1.03671103
C       -1.53002177      -0.38127451      -0.46838546
C       -1.50151800      -0.21811284       0.94437586
O       -0.24398210       1.28434653       0.54654051
H        2.33828547       0.93589482       1.03063840
H        2.60644252      -0.33607532      -0.17858445
H        1.58382471      -0.65520048       1.21919573
H        1.03064944       1.32711113      -1.03801659
H       -0.15114825      -0.28352076      -2.11015869
H        0.30664753      -1.48501627      -0.91740256
H       -2.29347493      -1.02973028      -0.88473211
H       -1.31585314       1.18367196      -0.42362616
H       -0.80674931      -0.58612560       1.68858333
H       -2.44675683       0.02825685       1.42559432
16
Frame=12 idx=005853 GeodesicLength=0.8387399995407675 rxn_smarts="[C:1]([C@@:2]1([H:10])[C:3]([H:11])([H:12])[C:4]([H:13])([H:14])[C:5]([H:15])([H:16])[O:6]1)([H:7])([H:8])[H:9]>>[C:1]([C@@:2]([C:3]([C:4](=[C:5]([H:15])[H:16])[H:13])([H:11])[H:12])([O:6][H:14])[H:10])([H:7])([H:8])[H:9]"
C        1.87268385       0.10446972       0.49538453
C        0.68447929       0.59626357      -0.29382681
C       -0.12952131      -0.48633946      -1.03697962
C       -1.53181585      -0.38057465      -0.46593886
C       -1.50558274      -0.21651034       0.94828921
O       -0.23982578       1.28393388       0.54758268
H        2.33854658       0.93065829       1.03298237
H        2.60885898      -0.33743055      -0.18008847
H        1.58538401      -0.66216329       1.21522637
H        1.03540298       1.32506269      -1.03759680
H       -0.15827417      -0.26868920      -2.10871495
H        0.30357147      -1.48198379      -0.93179425
H       -2.27387336      -1.06294845      -0.86835429
H       -1.31444375       1.21003062      -0.44382627
H       -0.81851428      -0.57339822       1.70456805
H       -2.45707592       0.01961919       1.42308711
16
Frame=13 idx=005853 GeodesicLength=0.9085925644330267 rxn_smarts="[C:1]([C@@:2]1([H:10])[C:3]([H:11])([H:12])[C:4]([H:13])([H:14])[C:5]([H:15])([H:16])[O:6]1)([H:7])([H:8])[H:9]>>[C:1]([C@@:2]([C:3]([C:4](=[C:5]([H:15])[H:16])[H:13])([H:11])[H:12])([O:6][H:14])[H:10])([H:7])([H:8])[H:9]"
C        1.87419291       0.10039642       0.49481475
C        0.68728781       0.59347574      -0.29441334
C       -0.13020723      -0.48109899      -1.03722257
C       -1.53366496      -0.38021659      -0.46336140
C       -1.50954798      -0.21539653       0.95238293
O       -0.23597031       1.28337605       0.54845058
H        2.33854278       0.92550000       1.03535675
H        2.61119770      -0.33872038      -0.18150221
H        1.58682325      -0.66909125       1.21127105
H        1.04000999       1.32287604      -1.03726931
H       -0.16555148      -0.25405328      -2.10712322
H        0.30050980      -1.47889831      -0.94632043
H       -2.25373385      -1.09465462      -0.85177002
H       -1.31245523       1.23665469      -0.46478491
H       -0.83027571      -0.56042582       1.72072030
H       -2.46715749       0.01027682       1.42077105
16
Frame=14 idx=005853 GeodesicLength=0.9784401990682973 rxn_smarts="[C:1]([C@@:2]1([H:10])[C:3]([H:11])([H:12])[C:4]([H:13])([H:14])[C:5]([H:15])([H:16])[O:6]1)([H:7])([H:8])[H:9]>>[C:1]([C@@:2]([C:3]([C:4](=[C:5]([H:15])[H:16])[H:13])([H:11])[H:12])([O:6][H:14])[H:10])([H:7])([H:8])[H:9]"
C        1.87555614       0.09635400       0.49427506
C        0.68996066       0.59059993      -0.29504753
C       -0.13096415      -0.47602901      -1.03744067
C       -1.53555837      -0.38020572      -0.46063792
C       -1.51339990      -0.21478686       0.95667112
O       -0.23241423       1.28267942       0.54914717
H        2.33827421       0.92041980       1.03776813
H        2.61345901      -0.33994452      -0.18282005
H        1.58814090      -0.67598372       1.20733298
H        1.04447719       1.32055469      -1.03703068
H       -0.17298615      -0.23960531      -2.10538179
H        0.29745853      -1.47575020      -0.96098349
H       -2.23315299      -1.12489680      -0.83503223
H       -1.30983685       1.26357565      -0.48653093
H       -0.84203225      -0.54719238       1.73704324
H       -2.47698174       0.00021105       1.41866759
16
Frame=15 idx=005853 GeodesicLength=1.0482856089295849 rxn_smarts="[C:1]([C@@:2]1([H:10])[C:3]([H:11])([H:12])[C:4]([H:13])([H:14])[C:5]([H:15])([H:16])[O:6]1)([H:7])([H:8])[H:9]>>[C:1]([C@@:2]([C:3]([C:4](=[C:5]([H:15])[H:16])[H:13])([H:11])[H:12])([O:6][H:14])[H:10])([H:7])([H:8])[H:9]"
C        1.87677161       0.09234141       0.49377024
C        0.69249958       0.58764211      -0.29572685
C       -0.13179463      -0.47111814      -1.03763666
C       -1.53748613      -0.38054260      -0.45775397
C       -1.51712452      -0.21469254       0.96116798
O       -0.22915577       1.28185187       0.54967578
H        2.33773976       0.91541318       1.04022484
H        2.61564052      -0.34110544      -0.18403641
H        1.58933098      -0.68284296       1.20341390
H        1.04881316       1.31810350      -1.03687640
H       -0.18058824      -0.22533051      -2.10349015
H        0.29441046      -1.47252588      -0.97579063
H       -2.21221129      -1.15375902      -0.81818424
H       -1.30653219       1.29083521      -0.50909344
H       -0.85378553      -0.53367844       1.75353811
H       -2.48652776      -0.01059177       1.41679790
16
Frame=16 idx=005853 GeodesicLength=1.118130096298448 rxn_smarts="[C:1]([C@@:2]1([H:10])[C:3]([H:11])([H:12])[C:4]([H:13])([H:14])[C:5]([H:15])([H:16])[O:6]1)([H:7])([H:8])[H:9]>>[C:1]([C@@:2]([C:3]([C:4](=[C:5]([H:15])[H:16])[H:13])([H:11])[H:12])([O:6][H:14])[H:10])([H:7])([H:8])[H:9]"
C        1.87783547       0.08835712       0.49330487
C        0.69490476       0.58460856      -0.29644942
C       -0.13270351      -0.46635414      -1.03781412
C       -1.53944165      -0.38122701      -0.45469655
C       -1.52070746      -0.21512685       0.96588670
O       -0.22619499       1.28090138       0.55003893
H        2.33693646       0.91047498       1.04273514
H        2.61773787      -0.34220647      -0.18514568
H        1.59038486      -0.68967155       1.19951515
H        1.05302570       1.31552730      -1.03680237
H       -0.18837061      -0.21121272      -2.10144806
H        0.29135542      -1.46921054      -0.99074999
H       -2.19096964      -1.18132795      -0.80125806
H       -1.30247828       1.31847857      -0.53250381
H       -0.86554023      -0.51986372       1.77020402
H       -2.49577417      -0.02214696       1.41518324
