12
Frame=0 idx=005951 GeodesicLength=0.0 rxn_smarts="[N:1]([C:2]([C@@:3]([O:4][H:12])([C:5]#[N:6])[H:11])([H:9])[H:10])([H:7])[H:8]>>[C+:3]([O:4][H:12])=[C:5]=[N-:6].[N:1]([C:2]([H:9])([H:10])[H:11])([H:7])[H:8]"
N       -1.56783899      -0.54066384       0.21026953
C       -0.93816614       0.48426963      -0.45677051
C        1.26430855       0.38743829       0.38571481
O        1.09508087      -0.75958325       1.09545787
C        1.80313617       0.10036735      -0.91712800
N        2.28174629      -0.02517010      -1.95873249
H       -1.94914162      -0.32559336       1.11602948
H       -1.10276264      -1.43471952       0.18521709
H       -0.63781209       0.24851227      -1.47239327
H       -1.45405615       1.44099948      -0.37837279
H        0.15791466       0.94127913       0.16822593
H        1.04759108      -0.51713604       2.02248235
12
Frame=1 idx=005951 GeodesicLength=0.10471609249170052 rxn_smarts="[N:1]([C:2]([C@@:3]([O:4][H:12])([C:5]#[N:6])[H:11])([H:9])[H:10])([H:7])[H:8]>>[C+:3]([O:4][H:12])=[C:5]=[N-:6].[N:1]([C:2]([H:9])([H:10])[H:11])([H:7])[H:8]"
N       -1.55602075      -0.52676372       0.26780439
C       -0.93058484       0.46978811      -0.45151489
C        1.26608565       0.37791173       0.37271039
O        1.11725762      -0.78472434       1.05717915
C        1.83961452       0.13325094      -0.92522695
N        2.33969808       0.03292395      -1.95919268
H       -1.94132533      -0.27886874       1.16270261
H       -1.15430338      -1.44848236       0.21109263
H       -0.64714103       0.18836757      -1.46075160
H       -1.45536845       1.42480857      -0.42190452
H        0.15810660       0.96734835       0.16840282
H        0.96398133      -0.55556005       1.97869866
12
Frame=2 idx=005951 GeodesicLength=0.2084048890082485 rxn_smarts="[N:1]([C:2]([C@@:3]([O:4][H:12])([C:5]#[N:6])[H:11])([H:9])[H:10])([H:7])[H:8]>>[C+:3]([O:4][H:12])=[C:5]=[N-:6].[N:1]([C:2]([H:9])([H:10])[H:11])([H:7])[H:8]"
N       -1.54120475      -0.51395351       0.32217799
C       -0.92348076       0.45617778      -0.44567856
C        1.26722302       0.36987439       0.35927364
O        1.13833099      -0.80500367       1.02273677
C        1.87467090       0.16334844      -0.93126580
N        2.39576450       0.08485682      -1.95646834
H       -1.93671715      -0.23468600       1.20268908
H       -1.20669560      -1.45897713       0.23564640
H       -0.65675481       0.13264540      -1.44729778
H       -1.45892205       1.40600553      -0.46097042
H        0.15723253       0.99375225       0.16854207
H        0.89055318      -0.59404030       1.93061495
12
Frame=3 idx=005951 GeodesicLength=0.3111493996329724 rxn_smarts="[N:1]([C:2]([C@@:3]([O:4][H:12])([C:5]#[N:6])[H:11])([H:9])[H:10])([H:7])[H:8]>>[C+:3]([O:4][H:12])=[C:5]=[N-:6].[N:1]([C:2]([H:9])([H:10])[H:11])([H:7])[H:8]"
N       -1.52398673      -0.50245274       0.37350210
C       -0.91697447       0.44332062      -0.43933753
C        1.26775996       0.36288903       0.34516494
O        1.15840959      -0.82123342       0.99169073
C        1.90840431       0.19061242      -0.93582108
N        2.45087783       0.13125352      -1.95092798
H       -1.93408816      -0.19359978       1.23684622
H       -1.26048588      -1.46596948       0.25841388
H       -0.66720202       0.08122484      -1.43258892
H       -1.46445461       1.38508264      -0.49529508
H        0.15532554       1.02014112       0.16849049
H        0.82641464      -0.63126877       1.87986223
12
Frame=4 idx=005951 GeodesicLength=0.4130009468189342 rxn_smarts="[N:1]([C:2]([C@@:3]([O:4][H:12])([C:5]#[N:6])[H:11])([H:9])[H:10])([H:7])[H:8]>>[C+:3]([O:4][H:12])=[C:5]=[N-:6].[N:1]([C:2]([H:9])([H:10])[H:11])([H:7])[H:8]"
N       -1.50506109      -0.49235911       0.42186823
C       -0.91113955       0.43095549      -0.43268331
C        1.26760351       0.35663020       0.33017070
O        1.17750499      -0.83415274       0.96343447
C        1.94098740       0.21537659      -0.93924025
N        2.50586289       0.17311299      -1.94262819
H       -1.93168394      -0.15576580       1.26631950
H       -1.31631979      -1.46906948       0.27956042
H       -0.67881055       0.03346716      -1.41702696
H       -1.47166025       1.36234188      -0.52520558
H        0.15231821       1.04623239       0.16808931
H        0.77039817      -0.66676958       1.82734166
12
Frame=5 idx=005951 GeodesicLength=0.5147807574379292 rxn_smarts="[N:1]([C:2]([C@@:3]([O:4][H:12])([C:5]#[N:6])[H:11])([H:9])[H:10])([H:7])[H:8]>>[C+:3]([O:4][H:12])=[C:5]=[N-:6].[N:1]([C:2]([H:9])([H:10])[H:11])([H:7])[H:8]"
N       -1.48524760      -0.48352855       0.46784137
C       -0.90603670       0.41875838      -0.42612041
C        1.26674187       0.35073290       0.31420399
O        1.19584933      -0.84480784       0.93723520
C        1.97302666       0.23839709      -0.94182163
N        2.56162168       0.21236734      -1.93178577
H       -1.92845335      -0.12034953       1.29249180
H       -1.37493791      -1.46792796       0.30024917
H       -0.69150282      -0.01195895      -1.40106566
H       -1.48049673       1.33804265      -0.55204866
H        0.14799079       1.07179940       0.16716560
H        0.72144479      -0.70152493       1.77365501
12
Frame=6 idx=005951 GeodesicLength=0.616185846360232 rxn_smarts="[N:1]([C:2]([C@@:3]([O:4][H:12])([C:5]#[N:6])[H:11])([H:9])[H:10])([H:7])[H:8]>>[C+:3]([O:4][H:12])=[C:5]=[N-:6].[N:1]([C:2]([H:9])([H:10])[H:11])([H:7])[H:8]"
N       -1.46526417      -0.47608353       0.51092291
C       -0.90181477       0.40651112      -0.41996819
C        1.26492019       0.34493332       0.29706231
O        1.21316278      -0.85358172       0.91266690
C        2.00451164       0.25989044      -0.94359389
N        2.61860522       0.24962306      -1.91799885
H       -1.92200257      -0.08747889       1.31660325
H       -1.43626702      -1.46205561       0.32086467
H       -0.70552076      -0.05536191      -1.38505309
H       -1.49079811       1.31226724      -0.57611817
H        0.14214318       1.09663067       0.16554334
H        0.67832440      -0.73529418       1.71906880
12
Frame=7 idx=005951 GeodesicLength=0.7170745055111473 rxn_smarts="[N:1]([C:2]([C@@:3]([O:4][H:12])([C:5]#[N:6])[H:11])([H:9])[H:10])([H:7])[H:8]>>[C+:3]([O:4][H:12])=[C:5]=[N-:6].[N:1]([C:2]([H:9])([H:10])[H:11])([H:7])[H:8]"
N       -1.44569693      -0.47002681       0.55086141
C       -0.89856231       0.39394653      -0.41453712
C        1.26195238       0.33897810       0.27854921
O        1.22927867      -0.86086969       0.88919854
C        2.03552319       0.28024068      -0.94448920
N        2.67711537       0.28577325      -1.90076206
H       -1.91059965      -0.05672706       1.33976852
H       -1.50013653      -1.45109206       0.34211927
H       -0.72100188      -0.09734710      -1.36918283
H       -1.50238589       1.28498567      -0.59799037
H        0.13462378       1.12050055       0.16303765
H        0.63988979      -0.76836205       1.66342699
12
Frame=8 idx=005951 GeodesicLength=0.8176951945126039 rxn_smarts="[N:1]([C:2]([C@@:3]([O:4][H:12])([C:5]#[N:6])[H:11])([H:9])[H:10])([H:7])[H:8]>>[C+:3]([O:4][H:12])=[C:5]=[N-:6].[N:1]([C:2]([H:9])([H:10])[H:11])([H:7])[H:8]"
N       -1.42691292      -0.46544117       0.58757519
C       -0.89638529       0.38096281      -0.41007444
C        1.25771025       0.33271659       0.25847184
O        1.24418527      -0.86703120       0.86657974
C        2.06622543       0.29983735      -0.94455699
N        2.73749417       0.32124248      -1.87985833
H       -1.89340641      -0.02775482       1.36285936
H       -1.56598887      -1.43500641       0.36463511
H       -0.73804096      -0.13826189      -1.35373492
H       -1.51525002       1.25640860      -0.61807840
H        0.12522931       1.14340932       0.15951800
H        0.60514003      -0.80108166       1.60666385
12
Frame=9 idx=005951 GeodesicLength=0.9182290163710174 rxn_smarts="[N:1]([C:2]([C@@:3]([O:4][H:12])([C:5]#[N:6])[H:11])([H:9])[H:10])([H:7])[H:8]>>[C+:3]([O:4][H:12])=[C:5]=[N-:6].[N:1]([C:2]([H:9])([H:10])[H:11])([H:7])[H:8]"
N       -1.40903484      -0.46203347       0.62165561
C       -0.89526467       0.36731001      -0.40687253
C        1.25230015       0.32569232       0.23663710
O        1.25798128      -0.87243624       0.84440112
C        2.09679947       0.31852227      -0.94372951
N        2.79960731       0.35789968      -1.85455620
H       -1.87000177       0.00052134       1.38641727
H       -1.63378470      -1.41347845       0.38927488
H       -0.75671892      -0.17912805      -1.33885394
H       -1.52938323       1.22647127      -0.63728800
H        0.11408166       1.16506068       0.15463136
H        0.57341826      -0.83440135       1.54828284
12
Frame=10 idx=005951 GeodesicLength=1.0186243844762992 rxn_smarts="[N:1]([C:2]([C@@:3]([O:4][H:12])([C:5]#[N:6])[H:11])([H:9])[H:10])([H:7])[H:8]>>[C+:3]([O:4][H:12])=[C:5]=[N-:6].[N:1]([C:2]([H:9])([H:10])[H:11])([H:7])[H:8]"
N       -1.39202259      -0.46022101       0.65270598
C       -0.89531379       0.35319578      -0.40487161
C        1.24565804       0.31807829       0.21276793
O        1.27078702      -0.87673108       0.82317889
C        2.12729732       0.33656045      -0.94207125
N        2.86329707       0.39424917      -1.82503050
H       -1.84055753       0.02721861       1.41026268
H       -1.70198478      -1.38674285       0.41594811
H       -0.77732283      -0.21918230      -1.32473330
H       -1.54485542       1.19564773      -0.65494082
H        0.10103301       1.18573275       0.14844959
H        0.54398449      -0.86780555       1.48833430
12
Frame=11 idx=005951 GeodesicLength=1.1187244217442667 rxn_smarts="[N:1]([C:2]([C@@:3]([O:4][H:12])([C:5]#[N:6])[H:11])([H:9])[H:10])([H:7])[H:8]>>[C+:3]([O:4][H:12])=[C:5]=[N-:6].[N:1]([C:2]([H:9])([H:10])[H:11])([H:7])[H:8]"
N       -1.37571886      -0.45996707       0.68092273
C       -0.89654216       0.33856380      -0.40405273
C        1.23782465       0.30970435       0.18650049
O        1.28266674      -0.87964198       0.80303907
C        2.15770161       0.35390144      -0.93951844
N        2.92823421       0.43043977      -1.79075911
H       -1.80522342       0.05235300       1.43403613
H       -1.76982933      -1.35467745       0.44506355
H       -0.80016012      -0.25856635      -1.31127838
H       -1.56158042       1.16402353      -0.67097010
H        0.08623084       1.20533241       0.14081916
H        0.51639626      -0.90146545       1.42619763
12
Frame=12 idx=005951 GeodesicLength=1.2188201662425338 rxn_smarts="[N:1]([C:2]([C@@:3]([O:4][H:12])([C:5]#[N:6])[H:11])([H:9])[H:10])([H:7])[H:8]>>[C+:3]([O:4][H:12])=[C:5]=[N-:6].[N:1]([C:2]([H:9])([H:10])[H:11])([H:7])[H:8]"
N       -1.35996172      -0.46141898       0.70646002
C       -0.89900892       0.32367677      -0.40446711
C        1.22881859       0.30062108       0.15766977
O        1.29383879      -0.88076122       0.78481046
C        2.18823577       0.37080390      -0.93591616
N        2.99384227       0.46543915      -1.75208872
H       -1.76467648       0.07551036       1.45745364
H       -1.83590967      -1.31773338       0.47668475
H       -0.82533112      -0.29693405      -1.29886771
H       -1.57973563       1.13224636      -0.68528200
H        0.06954050       1.22420757       0.13187680
H        0.49034763      -0.93565756       1.36166626
12
Frame=13 idx=005951 GeodesicLength=1.3185944128669498 rxn_smarts="[N:1]([C:2]([C@@:3]([O:4][H:12])([C:5]#[N:6])[H:11])([H:9])[H:10])([H:7])[H:8]>>[C+:3]([O:4][H:12])=[C:5]=[N-:6].[N:1]([C:2]([H:9])([H:10])[H:11])([H:7])[H:8]"
N       -1.34467483      -0.46388996       0.72993594
C       -0.90295753       0.30774140      -0.40624926
C        1.21852874       0.28974200       0.12502003
O        1.30388696      -0.87974567       0.76827321
C        2.21842969       0.38552638      -0.93188810
N        3.06136541       0.50362971      -1.70581632
H       -1.71650275       0.09778670       1.48071159
H       -1.90161278      -1.27394565       0.51221559
H       -0.85396670      -0.33584914      -1.28658806
H       -1.59930763       1.09921325      -0.69833124
H        0.05156075       1.24133546       0.12006667
H        0.46525068      -0.97154448       1.29264994
12
Frame=14 idx=005951 GeodesicLength=1.4191276881650738 rxn_smarts="[N:1]([C:2]([C@@:3]([O:4][H:12])([C:5]#[N:6])[H:11])([H:9])[H:10])([H:7])[H:8]>>[C+:3]([O:4][H:12])=[C:5]=[N-:6].[N:1]([C:2]([H:9])([H:10])[H:11])([H:7])[H:8]"
N       -1.32976238      -0.46838852       0.75111678
C       -0.90852702       0.29196091      -0.40948172
C        1.20708236       0.27787164       0.08871288
O        1.31326374      -0.87497208       0.75659146
C        2.24931407       0.39906507      -0.92709308
N        3.12945140       0.53998260      -1.65492139
H       -1.66349248       0.11696237       1.50342619
H       -1.96343468      -1.22566418       0.55071135
H       -0.88557117      -0.37310348      -1.27597372
H       -1.62104851       1.06718542      -0.70934204
H        0.03148858       1.25823702       0.10633212
H        0.44123609      -1.00913678       1.21992115
12
Frame=15 idx=005951 GeodesicLength=1.518447422702294 rxn_smarts="[N:1]([C:2]([C@@:3]([O:4][H:12])([C:5]#[N:6])[H:11])([H:9])[H:10])([H:7])[H:8]>>[C+:3]([O:4][H:12])=[C:5]=[N-:6].[N:1]([C:2]([H:9])([H:10])[H:11])([H:7])[H:8]"
N       -1.31425031      -0.47488915       0.76933290
C       -0.91566976       0.27643031      -0.41363989
C        1.19423383       0.26483238       0.04785196
O        1.32032893      -0.86350618       0.75086659
C        2.27973352       0.41043583      -0.92095959
N        3.19615174       0.57270839      -1.59762367
H       -1.60481298       0.13200037       1.52375534
H       -2.01895528      -1.17378823       0.59154629
H       -0.92124946      -0.40783783      -1.26630460
H       -1.64438324       1.03590802      -0.71672759
H        0.01031122       1.27435308       0.09071261
H        0.41856179      -1.04664699       1.14118964
12
Frame=16 idx=005951 GeodesicLength=1.6168673735402532 rxn_smarts="[N:1]([C:2]([C@@:3]([O:4][H:12])([C:5]#[N:6])[H:11])([H:9])[H:10])([H:7])[H:8]>>[C+:3]([O:4][H:12])=[C:5]=[N-:6].[N:1]([C:2]([H:9])([H:10])[H:11])([H:7])[H:8]"
N       -1.29742564      -0.48323388       0.78458571
C       -0.92514356       0.26143569      -0.41862921
C        1.17969399       0.25008793       0.00086419
O        1.32304150      -0.84282186       0.75191968
C        2.30920355       0.41867566      -0.91401945
N        3.26239351       0.60081928      -1.53087730
H       -1.53925234       0.14241235       1.54131748
H       -2.06623182      -1.11947887       0.63500206
H       -0.96246342      -0.43939788      -1.25738033
H       -1.67038359       1.00548976      -0.71946282
H       -0.01164980       1.28936063       0.07230588
H        0.39821763      -1.08334879       1.05437410
