15
Frame=0 idx=009597 GeodesicLength=0.0 rxn_smarts="[O:1]([C@@:2]1([H:9])[C:3]([H:10])([H:11])[C@@:4]2([O:5][H:12])[C:6]([H:13])([H:14])[C@@:7]12[H:15])[H:8]>>[O:1]([C@@:2]([C:3][H:10])([C@@:7]1([H:15])[C@@:4]([O:5][H:12])([H:11])[C:6]1([H:13])[H:14])[H:9])[H:8]"
O        2.24943239       0.15221582      -0.58019207
C        1.24940732       0.42575171       0.38269814
C        0.44177950       1.63954120      -0.02371643
C       -1.07723192       0.09533790      -0.07209760
O       -2.27938657       0.06728458       0.58379148
C       -0.47676789      -1.03554695      -0.84153543
C        0.13188045      -0.59990168       0.45997034
H        2.75817823      -0.60524336      -0.28285863
H        1.71195685       0.56718699       1.36669956
H        0.01578236       2.05295500       0.90303534
H       -0.77747393       1.10401616      -0.59456529
H       -2.98783864       0.18031875      -0.05461008
H       -1.03946812      -1.95854628      -0.79846075
H        0.05007037      -0.83284626      -1.76526907
H        0.02967965      -1.25252355       1.31711053
15
Frame=1 idx=009597 GeodesicLength=0.06518472167406014 rxn_smarts="[O:1]([C@@:2]1([H:9])[C:3]([H:10])([H:11])[C@@:4]2([O:5][H:12])[C:6]([H:13])([H:14])[C@@:7]12[H:15])[H:8]>>[O:1]([C@@:2]([C:3][H:10])([C@@:7]1([H:15])[C@@:4]([O:5][H:12])([H:11])[C:6]1([H:13])[H:14])[H:9])[H:8]"
O        2.24541678       0.15804879      -0.58895216
C        1.25460346       0.42465168       0.38385880
C        0.43112324       1.62931966      -0.00588915
C       -1.07609625       0.10040447      -0.07793723
O       -2.28069805       0.06947131       0.57609003
C       -0.47545967      -1.03723306      -0.83586594
C        0.12996162      -0.59553026       0.46538279
H        2.75670050      -0.60144292      -0.30130648
H        1.72377999       0.55717909       1.36582573
H        0.01603492       2.04484790       0.92408533
H       -0.77770278       1.11605215      -0.62061660
H       -2.98802645       0.17695256      -0.06439262
H       -1.03851756      -1.95987024      -0.78884563
H        0.05566336      -0.84205582      -1.75880226
H        0.02321688      -1.24079529       1.32736539
15
Frame=2 idx=009597 GeodesicLength=0.13035926841831597 rxn_smarts="[O:1]([C@@:2]1([H:9])[C:3]([H:10])([H:11])[C@@:4]2([O:5][H:12])[C:6]([H:13])([H:14])[C@@:7]12[H:15])[H:8]>>[O:1]([C@@:2]([C:3][H:10])([C@@:7]1([H:15])[C@@:4]([O:5][H:12])([H:11])[C:6]1([H:13])[H:14])[H:9])[H:8]"
O        2.24135964       0.16386775      -0.59739872
C        1.25958967       0.42358260       0.38493801
C        0.42034762       1.61867339       0.01128365
C       -1.07499387       0.10522488      -0.08359776
O       -2.28199606       0.07132803       0.56861466
C       -0.47425711      -1.03884332      -0.83030794
C        0.12807763      -0.59142567       0.47071766
H        2.75521426      -0.59739000      -0.31915022
H        1.73511863       0.54743211       1.36483869
H        0.01663462       2.03691766       0.94429285
H       -0.77728910       1.12822326      -0.64586793
H       -2.98813635       0.17380539      -0.07387721
H       -1.03765068      -1.96112350      -0.77952546
H        0.06107670      -0.85087169      -1.75234572
H        0.01690441      -1.22940089       1.33738545
15
Frame=3 idx=009597 GeodesicLength=0.19552726034117424 rxn_smarts="[O:1]([C@@:2]1([H:9])[C:3]([H:10])([H:11])[C@@:4]2([O:5][H:12])[C:6]([H:13])([H:14])[C@@:7]12[H:15])[H:8]>>[O:1]([C@@:2]([C:3][H:10])([C@@:7]1([H:15])[C@@:4]([O:5][H:12])([H:11])[C:6]1([H:13])[H:14])[H:9])[H:8]"
O        2.23726458       0.16965817      -0.60553778
C        1.26436568       0.42254951       0.38593900
C        0.40948893       1.60764421       0.02782017
C       -1.07393387       0.10979539      -0.08907125
O       -2.28328703       0.07285580       0.56137542
C       -0.47315614      -1.04038231      -0.82486245
C        0.12622605      -0.58758385       0.47597931
H        2.75371979      -0.59311472      -0.33639866
H        1.74598607       0.53793561       1.36374966
H        0.01755841       2.02918235       0.96364171
H       -0.77625006       1.14056893      -0.67034401
H       -2.98818448       0.17084630      -0.08306172
H       -1.03685708      -1.96231685      -0.77049878
H        0.06631371      -0.85929556      -1.74590836
H        0.01074544      -1.21834296       1.34717775
15
Frame=4 idx=009597 GeodesicLength=0.2606983927190345 rxn_smarts="[O:1]([C@@:2]1([H:9])[C:3]([H:10])([H:11])[C@@:4]2([O:5][H:12])[C:6]([H:13])([H:14])[C@@:7]12[H:15])[H:8]>>[O:1]([C@@:2]([C:3][H:10])([C@@:7]1([H:15])[C@@:4]([O:5][H:12])([H:11])[C:6]1([H:13])[H:14])[H:9])[H:8]"
O        2.23313834       0.17541066      -0.61337738
C        1.26893660       0.42155985       0.38686812
C        0.39858497       1.59627783       0.04373890
C       -1.07292612       0.11411262      -0.09435270
O       -2.28458002       0.07405211       0.55438213
C       -0.47215729      -1.04185823      -0.81953356
C        0.12440413      -0.58400296       0.48117463
H        2.75221850      -0.58864523      -0.35306146
H        1.75640312       0.52868298       1.36257719
H        0.01879027       2.02166753       0.98212107
H       -0.77459991       1.15313066      -0.69407441
H       -2.98819141       0.16804058      -0.09194688
H       -1.03613555      -1.96346807      -0.76176664
H        0.07137375      -0.86733132      -1.73950566
H        0.00474061      -1.20762901       1.35675667
15
Frame=5 idx=009597 GeodesicLength=0.32585674591172936 rxn_smarts="[O:1]([C@@:2]1([H:9])[C:3]([H:10])([H:11])[C@@:4]2([O:5][H:12])[C:6]([H:13])([H:14])[C@@:7]12[H:15])[H:8]>>[O:1]([C@@:2]([C:3][H:10])([C@@:7]1([H:15])[C@@:4]([O:5][H:12])([H:11])[C:6]1([H:13])[H:14])[H:9])[H:8]"
O        2.22897634       0.18109821      -0.62091784
C        1.27328998       0.42060444       0.38772027
C        0.38763796       1.58457686       0.05905266
C       -1.07197136       0.11818045      -0.09943190
O       -2.28586629       0.07493653       0.54763961
C       -0.47124233      -1.04326494      -0.81431109
C        0.12261126      -0.58067248       0.48629819
H        2.75071564      -0.58400324      -0.36914274
H        1.76636079       0.51965381       1.36130346
H        0.02027422       2.01435432       0.99970524
H       -0.77235377       1.16593572      -0.71706241
H       -2.98814788       0.16538431      -0.10051657
H       -1.03545276      -1.96456218      -0.75331814
H        0.07627198      -0.87497830      -1.73312469
H       -0.00110380      -1.19724352       1.36610592
15
Frame=6 idx=009597 GeodesicLength=0.39103119741653575 rxn_smarts="[O:1]([C@@:2]1([H:9])[C:3]([H:10])([H:11])[C@@:4]2([O:5][H:12])[C:6]([H:13])([H:14])[C@@:7]12[H:15])[H:8]>>[O:1]([C@@:2]([C:3][H:10])([C@@:7]1([H:15])[C@@:4]([O:5][H:12])([H:11])[C:6]1([H:13])[H:14])[H:9])[H:8]"
O        2.22477850       0.18674820      -0.62818898
C        1.27744465       0.41969855       0.38850994
C        0.37669030       1.57260475       0.07381324
C       -1.07107864       0.12199287      -0.10431671
O       -2.28717152       0.07549981       0.54113009
C       -0.47041604      -1.04462954      -0.80919387
C        0.12084394      -0.57759206       0.49137267
H        2.74918865      -0.57920877      -0.38471095
H        1.77591643       0.51083824       1.35995821
H        0.02200798       2.00726751       1.01643855
H       -0.76950141       1.17902870      -0.73935125
H       -2.98808401       0.16284766      -0.10882078
H       -1.03482042      -1.96564367      -0.74513521
H        0.08100722      -0.88227209      -1.72678418
H       -0.00680563      -1.18718017       1.37527923
15
Frame=7 idx=009597 GeodesicLength=0.4562229744654565 rxn_smarts="[O:1]([C@@:2]1([H:9])[C:3]([H:10])([H:11])[C@@:4]2([O:5][H:12])[C:6]([H:13])([H:14])[C@@:7]12[H:15])[H:8]>>[O:1]([C@@:2]([C:3][H:10])([C@@:7]1([H:15])[C@@:4]([O:5][H:12])([H:11])[C:6]1([H:13])[H:14])[H:9])[H:8]"
O        2.22053204       0.19237165      -0.63521053
C        1.28139828       0.41883892       0.38924192
C        0.36574568       1.56038378       0.08807033
C       -1.07024519       0.12555662      -0.10901001
O       -2.28849700       0.07576145       0.53483218
C       -0.46966511      -1.04596143      -0.80416435
C        0.11909903      -0.57475159       0.49640665
H        2.74761890      -0.57427506      -0.39983212
H        1.78509116       0.50220359       1.35853618
H        0.02394645       2.00038550       1.03234710
H       -0.76603371       1.19243635      -0.76096935
H       -2.98799213       0.16042491      -0.11688832
H       -1.03421535      -1.96672170      -0.73718360
H        0.08559266      -0.88924288      -1.72047110
H       -0.01237572      -1.17741010       1.38429503
15
Frame=8 idx=009597 GeodesicLength=0.5214262879107513 rxn_smarts="[O:1]([C@@:2]1([H:9])[C:3]([H:10])([H:11])[C@@:4]2([O:5][H:12])[C:6]([H:13])([H:14])[C@@:7]12[H:15])[H:8]>>[O:1]([C@@:2]([C:3][H:10])([C@@:7]1([H:15])[C@@:4]([O:5][H:12])([H:11])[C:6]1([H:13])[H:14])[H:9])[H:8]"
O        2.21625269       0.19793175      -0.64197662
C        1.28515334       0.41802645       0.38991468
C        0.35482697       1.54793119       0.10180536
C       -1.06948133       0.12886965      -0.11350223
O       -2.28984360       0.07571498       0.52877482
C       -0.46899078      -1.04725491      -0.79923354
C        0.11737555      -0.57215011       0.50139543
H        2.74602600      -0.56923072      -0.41446250
H        1.79388060       0.49375902       1.35704682
H        0.02607680       1.99374359       1.04738423
H       -0.76196835       1.20619928      -0.78191815
H       -2.98789233       0.15807396      -0.12468374
H       -1.03363870      -1.96779171      -0.72948385
H        0.09002818      -0.89586843      -1.71420027
H       -0.01780502      -1.16795397       1.39313956
15
Frame=9 idx=009597 GeodesicLength=0.5866325673429047 rxn_smarts="[O:1]([C@@:2]1([H:9])[C:3]([H:10])([H:11])[C@@:4]2([O:5][H:12])[C:6]([H:13])([H:14])[C@@:7]12[H:15])[H:8]>>[O:1]([C@@:2]([C:3][H:10])([C@@:7]1([H:15])[C@@:4]([O:5][H:12])([H:11])[C:6]1([H:13])[H:14])[H:9])[H:8]"
O        2.21195232       0.20340349      -0.64847911
C        1.28871003       0.41726227       0.39053218
C        0.34394544       1.53526483       0.11500847
C       -1.06879368       0.13193258      -0.11778834
O       -2.29120236       0.07536137       0.52298375
C       -0.46839509      -1.04851101      -0.79441127
C        0.11567285      -0.56978829       0.50633296
H        2.74442896      -0.56409714      -0.42856855
H        1.80227977       0.48551225       1.35550306
H        0.02837618       1.98736490       1.06151221
H       -0.75731674       1.22034599      -0.80221663
H       -2.98778985       0.15577536      -0.13216862
H       -1.03309271      -1.96885755      -0.72205276
H        0.09430662      -0.90213601      -1.70798740
H       -0.02308175      -1.15883304       1.40180003
15
Frame=10 idx=009597 GeodesicLength=0.6518522464432542 rxn_smarts="[O:1]([C@@:2]1([H:9])[C:3]([H:10])([H:11])[C@@:4]2([O:5][H:12])[C:6]([H:13])([H:14])[C@@:7]12[H:15])[H:8]>>[O:1]([C@@:2]([C:3][H:10])([C@@:7]1([H:15])[C@@:4]([O:5][H:12])([H:11])[C:6]1([H:13])[H:14])[H:9])[H:8]"
O        2.20762322       0.20879943      -0.65473893
C        1.29207306       0.41654764       0.39109833
C        0.33310947       1.52240637       0.12772009
C       -1.06818469       0.13474677      -0.12187342
O       -2.29258652       0.07470689       0.51743899
C       -0.46786930      -1.04974305      -0.78968599
C        0.11398884      -0.56765968       0.51123063
H        2.74280958      -0.55888559      -0.44220536
H        1.81031751       0.47744324       1.35390333
H        0.03082037       1.98124369       1.07475995
H       -0.75206459       1.23491083      -0.82188233
H       -2.98769378       0.15351991      -0.13937474
H       -1.03256443      -1.96993537      -0.71486444
H        0.09843866      -0.90807459      -1.70182955
H       -0.02821740      -1.15002651       1.41030344
15
Frame=11 idx=009597 GeodesicLength=0.7170882559791947 rxn_smarts="[O:1]([C@@:2]1([H:9])[C:3]([H:10])([H:11])[C@@:4]2([O:5][H:12])[C:6]([H:13])([H:14])[C@@:7]12[H:15])[H:8]>>[O:1]([C@@:2]([C:3][H:10])([C@@:7]1([H:15])[C@@:4]([O:5][H:12])([H:11])[C:6]1([H:13])[H:14])[H:9])[H:8]"
O        2.20325823       0.21413394      -0.66077844
C        1.29524737       0.41588253       0.39161757
C        0.32232127       1.50937793       0.13998478
C       -1.06765281       0.13731606      -0.12576173
O       -2.29400329       0.07375713       0.51211753
C       -0.46740463      -1.05096270      -0.78504274
C        0.11232169      -0.56575517       0.51610081
H        2.74114435      -0.55361108      -0.45543822
H        1.81802321       0.46953108       1.35224719
H        0.03337743       1.97536604       1.08715866
H       -0.74619472       1.24992212      -0.84093451
H       -2.98760389       0.15129681      -0.14633832
H       -1.03204431      -1.97103715      -0.70789208
H        0.10243565      -0.91371207      -1.69571690
H       -0.03322557      -1.14150548       1.41867639
15
Frame=12 idx=009597 GeodesicLength=0.7823405323053942 rxn_smarts="[O:1]([C@@:2]1([H:9])[C:3]([H:10])([H:11])[C@@:4]2([O:5][H:12])[C:6]([H:13])([H:14])[C@@:7]12[H:15])[H:8]>>[O:1]([C@@:2]([C:3][H:10])([C@@:7]1([H:15])[C@@:4]([O:5][H:12])([H:11])[C:6]1([H:13])[H:14])[H:9])[H:8]"
O        2.19886864       0.21937768      -0.66658815
C        1.29823181       0.41526763       0.39208988
C        0.31159016       1.49618645       0.15177845
C       -1.06720789       0.13963729      -0.12944925
O       -2.29544825       0.07250814       0.50704814
C       -0.46700502      -1.05217016      -0.78049384
C        0.11066987      -0.56407802       0.52093479
H        2.73945825      -0.54828820      -0.46821793
H        1.82538486       0.46178924       1.35054281
H        0.03603624       1.96976324       1.09866249
H       -0.73970641       1.26541947      -0.85937198
H       -2.98753291       0.14908467      -0.15301567
H       -1.03153362      -1.97216653      -0.70115349
H        0.10628865      -0.91903294      -1.68966794
H       -0.03809439      -1.13329795       1.42690168
15
Frame=13 idx=009597 GeodesicLength=0.8476111733316265 rxn_smarts="[O:1]([C@@:2]1([H:9])[C:3]([H:10])([H:11])[C@@:4]2([O:5][H:12])[C:6]([H:13])([H:14])[C@@:7]12[H:15])[H:8]>>[O:1]([C@@:2]([C:3][H:10])([C@@:7]1([H:15])[C@@:4]([O:5][H:12])([H:11])[C:6]1([H:13])[H:14])[H:9])[H:8]"
O        2.19444558       0.22454342      -0.67219233
C        1.30103084       0.41470135       0.39251843
C        0.30091576       1.48284974       0.16313775
C       -1.06685056       0.14171264      -0.13294282
O       -2.29693080       0.07096951       0.50220737
C       -0.46666433      -1.05337933      -0.77602604
C        0.10902993      -0.56262129       0.52574362
H        2.73773693      -0.54292418      -0.48060311
H        1.83243149       0.45419884       1.34878731
H        0.03876941       1.96442818       1.10930119
H       -0.73257135       1.28144164      -0.87719627
H       -2.98748392       0.14686541      -0.15944292
H       -1.03102577      -1.97333759      -0.69462089
H        0.11000643      -0.92406931      -1.68367548
H       -0.04283963      -1.12537903       1.43500419
15
Frame=14 idx=009597 GeodesicLength=0.9128901206601588 rxn_smarts="[O:1]([C@@:2]1([H:9])[C:3]([H:10])([H:11])[C@@:4]2([O:5][H:12])[C:6]([H:13])([H:14])[C@@:7]12[H:15])[H:8]>>[O:1]([C@@:2]([C:3][H:10])([C@@:7]1([H:15])[C@@:4]([O:5][H:12])([H:11])[C:6]1([H:13])[H:14])[H:9])[H:8]"
O        2.18997608       0.22965300      -0.67761182
C        1.30364983       0.41418459       0.39290637
C        0.29029980       1.46938516       0.17411342
C       -1.06657596       0.14355580      -0.13625272
O       -2.29845550       0.06915967       0.49756874
C       -0.46637935      -1.05459757      -0.77162454
C        0.10739890      -0.56137296       0.53053656
H        2.73595778      -0.53751506      -0.49265206
H        1.83918997       0.44673652       1.34697631
H        0.04156375       1.95932858       1.11912157
H       -0.72477384       1.29799565      -0.89444650
H       -2.98745403       0.14461888      -0.16565358
H       -1.03051692      -1.97455685      -0.68825991
H        0.11359778      -0.92885632      -1.67772730
H       -0.04747830      -1.11771910       1.44300547
15
Frame=15 idx=009597 GeodesicLength=0.978193112580312 rxn_smarts="[O:1]([C@@:2]1([H:9])[C:3]([H:10])([H:11])[C@@:4]2([O:5][H:12])[C:6]([H:13])([H:14])[C@@:7]12[H:15])[H:8]>>[O:1]([C@@:2]([C:3][H:10])([C@@:7]1([H:15])[C@@:4]([O:5][H:12])([H:11])[C:6]1([H:13])[H:14])[H:9])[H:8]"
O        2.18547691       0.23466951      -0.68283592
C        1.30608583       0.41371682       0.39325261
C        0.27974396       1.45579531       0.18466601
C       -1.06639698       0.14515204      -0.13937212
O       -2.30001934       0.06705540       0.49316491
C       -0.46614935      -1.05582916      -0.76730244
C        0.10577710      -0.56033915       0.53530545
H        2.73414120      -0.53209272      -0.50431704
H        1.84564347       0.43942428       1.34511942
H        0.04439489       1.95450971       1.12805734
H       -0.71629654       1.31514630      -0.91108788
H       -2.98745888       0.14233648      -0.17160128
H       -1.03000032      -1.97583405      -0.68209611
H        0.11705274      -0.93336763      -1.67184446
H       -0.05199468      -1.11034313       1.45089152
15
Frame=16 idx=009597 GeodesicLength=1.043506163204583 rxn_smarts="[O:1]([C@@:2]1([H:9])[C:3]([H:10])([H:11])[C@@:4]2([O:5][H:12])[C:6]([H:13])([H:14])[C@@:7]12[H:15])[H:8]>>[O:1]([C@@:2]([C:3][H:10])([C@@:7]1([H:15])[C@@:4]([O:5][H:12])([H:11])[C:6]1([H:13])[H:14])[H:9])[H:8]"
O        2.18095992       0.23956821      -0.68785940
C        1.30834046       0.41329927       0.39355675
C        0.26925106       1.44208950       0.19478516
C       -1.06632197       0.14650321      -0.14230110
O       -2.30161904       0.06465241       0.48901831
C       -0.46597546      -1.05707253      -0.76306786
C        0.10416341      -0.55951691       0.54004279
H        2.73230407      -0.52667634      -0.51556411
H        1.85178505       0.43227447       1.34322487
H        0.04724938       1.94998742       1.13607466
H       -0.70713890       1.33291872      -0.92712842
H       -2.98750965       0.14000038      -0.17724851
H       -1.02947647      -1.97716897      -0.67614255
H        0.12036718      -0.93759147      -1.66604008
H       -0.05637904      -1.10326738       1.45864949
