15
Frame=0 idx=010620 GeodesicLength=0.0 rxn_smarts="[O:1]=[C:2]1[C:3]([H:8])([H:9])[C:4]([H:10])([H:11])[C@@:5]2([H:12])[C:6]([H:13])([H:14])[C@@:7]12[H:15]>>[O:1]=[C:2]=[C:7]([C:6]([C:5]([C:4](=[C:3]([H:8])[H:9])[H:10])([H:11])[H:12])([H:13])[H:14])[H:15]"
O       -0.43812034       2.67620652       0.57895773
C       -0.06825604       1.56039694       0.22924254
C       -1.26531587       0.56832404      -0.25578609
C       -1.03637860      -0.71029568       0.39705753
C        0.26145401      -1.22813613       0.34719720
C        1.26974607      -0.44528728      -0.44068868
C        1.16060600       0.94222136       0.12685145
H       -1.10696745       0.52559367      -1.33631346
H       -2.23817750       0.99971598      -0.04207333
H       -1.75048999      -1.13655840       1.09558646
H       -0.68926575      -1.74826690      -0.39370273
H        0.53657345      -2.03607939       1.01889941
H        1.05283529      -0.53257754      -1.51987185
H        2.26177891      -0.86959566      -0.29515772
H        2.04997782       1.43433854       0.48980155
15
Frame=1 idx=010620 GeodesicLength=0.08981176436863778 rxn_smarts="[O:1]=[C:2]1[C:3]([H:8])([H:9])[C:4]([H:10])([H:11])[C@@:5]2([H:12])[C:6]([H:13])([H:14])[C@@:7]12[H:15]>>[O:1]=[C:2]=[C:7]([C:6]([C:5]([C:4](=[C:3]([H:8])[H:9])[H:10])([H:11])[H:12])([H:13])[H:14])[H:15]"
O       -0.42303215       2.67350010       0.59684030
C       -0.06080716       1.56141940       0.23713389
C       -1.27827516       0.56306872      -0.26616970
C       -1.04727340      -0.71570731       0.38082519
C        0.26572144      -1.21331051       0.35265738
C        1.27101725      -0.44744018      -0.45377874
C        1.16118311       0.92586293       0.14589354
H       -1.11169849       0.53118779      -1.34561688
H       -2.25260836       0.99276100      -0.05546909
H       -1.75425258      -1.13323676       1.09171759
H       -0.67768014      -1.76801284      -0.38779411
H        0.54960995      -1.99216456       1.05435147
H        1.04028624      -0.51955979      -1.52983762
H        2.26255742      -0.87594170      -0.31904978
H        2.05525204       1.41757369       0.49829656
15
Frame=2 idx=010620 GeodesicLength=0.17967105419501256 rxn_smarts="[O:1]=[C:2]1[C:3]([H:8])([H:9])[C:4]([H:10])([H:11])[C@@:5]2([H:12])[C:6]([H:13])([H:14])[C@@:7]12[H:15]>>[O:1]=[C:2]=[C:7]([C:6]([C:5]([C:4](=[C:3]([H:8])[H:9])[H:10])([H:11])[H:12])([H:13])[H:14])[H:15]"
O       -0.40788509       2.67043650       0.61521746
C       -0.05298253       1.56241088       0.24527659
C       -1.29132223       0.55756155      -0.27647155
C       -1.05769294      -0.72123689       0.36483033
C        0.26977663      -1.19855616       0.35771463
C        1.27225201      -0.44948068      -0.46628119
C        1.16186724       0.90980260       0.16353909
H       -1.11659548       0.53675018      -1.35468315
H       -2.26723170       0.98524877      -0.06872167
H       -1.75763660      -1.12971124       1.08785245
H       -0.66623718      -1.78737605      -0.38131738
H        0.56148451      -1.94786985       1.08774733
H        1.02863383      -0.50677860      -1.53905458
H        2.26307202      -0.88211937      -0.34140618
H        2.06049751       1.40091834       0.50575783
15
Frame=3 idx=010620 GeodesicLength=0.2695856828986176 rxn_smarts="[O:1]=[C:2]1[C:3]([H:8])([H:9])[C:4]([H:10])([H:11])[C@@:5]2([H:12])[C:6]([H:13])([H:14])[C@@:7]12[H:15]>>[O:1]=[C:2]=[C:7]([C:6]([C:5]([C:4](=[C:3]([H:8])[H:9])[H:10])([H:11])[H:12])([H:13])[H:14])[H:15]"
O       -0.39269001       2.66710672       0.63394110
C       -0.04479295       1.56343200       0.25361632
C       -1.30447460       0.55180136      -0.28671021
C       -1.06762812      -0.72682232       0.34916071
C        0.27366236      -1.18384598       0.36242027
C        1.27345644      -0.45141340      -0.47826973
C        1.16269890       0.89412291       0.17978436
H       -1.12167339       0.54223323      -1.36352602
H       -2.28207688       0.97716868      -0.08188724
H       -1.76064379      -1.12597892       1.08403534
H       -0.65495295      -1.80631765      -0.37423280
H        0.57228900      -1.90337340       1.11909544
H        1.01776264      -0.49423361      -1.54761541
H        2.26336348      -0.88815823      -0.36242558
H        2.06569988       1.38427861       0.51261344
15
Frame=4 idx=010620 GeodesicLength=0.3595988386843047 rxn_smarts="[O:1]=[C:2]1[C:3]([H:8])([H:9])[C:4]([H:10])([H:11])[C@@:5]2([H:12])[C:6]([H:13])([H:14])[C@@:7]12[H:15]>>[O:1]=[C:2]=[C:7]([C:6]([C:5]([C:4](=[C:3]([H:8])[H:9])[H:10])([H:11])[H:12])([H:13])[H:14])[H:15]"
O       -0.37744733       2.66361867       0.65293010
C       -0.03624340       1.56455512       0.26212758
C       -1.31775357       0.54579261      -0.29691482
C       -1.07708782      -0.73242802       0.33387808
C        0.27741010      -1.16917579       0.36682360
C        1.27463264      -0.45324947      -0.48979727
C        1.16371217       0.87889346       0.19468339
H       -1.12694598       0.54761406      -1.37217901
H       -2.29717734       0.96852042      -0.09504117
H       -1.76328589      -1.12206080       1.08030664
H       -0.64385069      -1.82483817      -0.36652916
H        0.58211479      -1.85887685       1.14844304
H        1.00756789      -0.48191672      -1.55560269
H        2.26346200      -0.89409731      -0.38226037
H        2.07089243       1.36764880       0.51913207
15
Frame=5 idx=010620 GeodesicLength=0.44956479611575145 rxn_smarts="[O:1]=[C:2]1[C:3]([H:8])([H:9])[C:4]([H:10])([H:11])[C@@:5]2([H:12])[C:6]([H:13])([H:14])[C@@:7]12[H:15]>>[O:1]=[C:2]=[C:7]([C:6]([C:5]([C:4](=[C:3]([H:8])[H:9])[H:10])([H:11])[H:12])([H:13])[H:14])[H:15]"
O       -0.36217130       2.65992701       0.67209143
C       -0.02734034       1.56575917       0.27077008
C       -1.33115008       0.53949416      -0.30707139
C       -1.08608332      -0.73799800       0.31906090
C        0.28102482      -1.15446959       0.37096445
C        1.27579248      -0.45496902      -0.50086094
C        1.16491128       0.86409306       0.20834463
H       -1.13235212       0.55282986      -1.38058690
H       -2.31253482       0.95922814      -0.10822445
H       -1.76561589      -1.11790265       1.07666503
H       -0.63292122      -1.84278111      -0.35816041
H        0.59094392      -1.81452311       1.17567586
H        0.99802518      -0.46975290      -1.56298350
H        2.26338595      -0.89991314      -0.40100588
H        2.07608545       1.35097812       0.52532109
15
Frame=6 idx=010620 GeodesicLength=0.5395722878943134 rxn_smarts="[O:1]=[C:2]1[C:3]([H:8])([H:9])[C:4]([H:10])([H:11])[C@@:5]2([H:12])[C:6]([H:13])([H:14])[C@@:7]12[H:15]>>[O:1]=[C:2]=[C:7]([C:6]([C:5]([C:4](=[C:3]([H:8])[H:9])[H:10])([H:11])[H:12])([H:13])[H:14])[H:15]"
O       -0.34685979       2.65598202       0.69153727
C       -0.01808275       1.56705354       0.27956084
C       -1.34468306       0.53292443      -0.31723286
C       -1.09466100      -0.74348045       0.30466107
C        0.28451932      -1.13969883       0.37485600
C        1.27692286      -0.45659162      -0.51154599
C        1.16632616       0.84977216       0.22075133
H       -1.13788621       0.55790826      -1.38877840
H       -2.32817640       0.94930348      -0.12152672
H       -1.76766436      -1.11352099       1.07309618
H       -0.62217606      -1.86021405      -0.34915425
H        0.59892113      -1.77027021       1.20109257
H        0.98903606      -0.45778580      -1.56985036
H        2.26313640      -0.90565600      -0.41883586
H        2.08132770       1.33427404       0.53136917
15
Frame=7 idx=010620 GeodesicLength=0.6296868198687894 rxn_smarts="[O:1]=[C:2]1[C:3]([H:8])([H:9])[C:4]([H:10])([H:11])[C@@:5]2([H:12])[C:6]([H:13])([H:14])[C@@:7]12[H:15]>>[O:1]=[C:2]=[C:7]([C:6]([C:5]([C:4](=[C:3]([H:8])[H:9])[H:10])([H:11])[H:12])([H:13])[H:14])[H:15]"
O       -0.33150619       2.65198240       0.71126099
C       -0.00846540       1.56856222       0.28850555
C       -1.35838012       0.52609792      -0.32743661
C       -1.10283769      -0.74890030       0.29073750
C        0.28791549      -1.12491050       0.37856266
C        1.27802784      -0.45813970      -0.52184677
C        1.16797299       0.83596918       0.23208154
H       -1.14357153       0.56285644      -1.39683253
H       -2.34414355       0.93876990      -0.13503915
H       -1.76945208      -1.10896933       1.06964686
H       -0.61162746      -1.87717079      -0.33953598
H        0.60610357      -1.72644287       1.22471225
H        0.98053588      -0.44598173      -1.57625866
H        2.26273731      -0.91138312      -0.43579122
H        2.08669093       1.31766028       0.53723357
15
Frame=8 idx=010620 GeodesicLength=0.7198430028422301 rxn_smarts="[O:1]=[C:2]1[C:3]([H:8])([H:9])[C:4]([H:10])([H:11])[C@@:5]2([H:12])[C:6]([H:13])([H:14])[C@@:7]12[H:15]>>[O:1]=[C:2]=[C:7]([C:6]([C:5]([C:4](=[C:3]([H:8])[H:9])[H:10])([H:11])[H:12])([H:13])[H:14])[H:15]"
O       -0.31610905       2.64789276       0.73126427
C        0.00151513       1.57027438       0.29761024
C       -1.37223806       0.51899658      -0.33769601
C       -1.11064115      -0.75422601       0.27730205
C        0.29120833      -1.11006743       0.38210137
C        1.27910507      -0.45960521      -0.53177646
C        1.16984799       0.82265810       0.24243666
H       -1.14936179       0.56766568      -1.40473525
H       -2.36043668       0.92758901      -0.14881661
H       -1.77101653      -1.10421793       1.06632695
H       -0.60127132      -1.89359798      -0.32931673
H        0.61251953      -1.68312890       1.24659815
H        0.97250122      -0.43429230      -1.58221136
H        2.26218414      -0.91709249      -0.45194991
H        2.09219317       1.30115174       0.54286264
15
Frame=9 idx=010620 GeodesicLength=0.8100180645906413 rxn_smarts="[O:1]=[C:2]1[C:3]([H:8])([H:9])[C:4]([H:10])([H:11])[C@@:5]2([H:12])[C:6]([H:13])([H:14])[C@@:7]12[H:15]>>[O:1]=[C:2]=[C:7]([C:6]([C:5]([C:4](=[C:3]([H:8])[H:9])[H:10])([H:11])[H:12])([H:13])[H:14])[H:15]"
O       -0.30063957       2.64375460       0.75141475
C        0.01186755       1.57218396       0.30689969
C       -1.38627224       0.51159636      -0.34800927
C       -1.11810663      -0.75944218       0.26437438
C        0.29439440      -1.09514424       0.38547953
C        1.28015493      -0.46097301      -0.54132186
C        1.17195876       0.80982525       0.25194700
H       -1.15524966       0.57232285      -1.41245375
H       -2.37707279       0.91571679      -0.16288585
H       -1.77238020      -1.09925662       1.06314458
H       -0.59113745      -1.90943867      -0.31852675
H        0.61822721      -1.64046708       1.26672240
H        0.96490387      -0.42266067      -1.58768446
H        2.26148471      -0.92276948      -0.46734832
H        2.09786712       1.28475212       0.54824793
15
Frame=10 idx=010620 GeodesicLength=0.9002691624664013 rxn_smarts="[O:1]=[C:2]1[C:3]([H:8])([H:9])[C:4]([H:10])([H:11])[C@@:5]2([H:12])[C:6]([H:13])([H:14])[C@@:7]12[H:15]>>[O:1]=[C:2]=[C:7]([C:6]([C:5]([C:4](=[C:3]([H:8])[H:9])[H:10])([H:11])[H:12])([H:13])[H:14])[H:15]"
O       -0.28510907       2.63958246       0.77193169
C        0.02260503       1.57436598       0.31636997
C       -1.40049577       0.50391528      -0.35844568
C       -1.12526016      -0.76454599       0.25193224
C        0.29748566      -1.08015524       0.38873171
C        1.28116674      -0.46226753      -0.55053390
C        1.17431701       0.79748042       0.26066555
H       -1.16122983       0.57686515      -1.42007296
H       -2.39407616       0.90316999      -0.17736932
H       -1.77356567      -1.09408787       1.06012420
H       -0.58121157      -1.92477950      -0.30717863
H        0.62330123      -1.59852125       1.28533835
H        0.95768405      -0.41108952      -1.59276197
H        2.26063028      -0.92847427      -0.48208407
H        2.10375823       1.26854191       0.55335283
15
Frame=11 idx=010620 GeodesicLength=0.990543828027551 rxn_smarts="[O:1]=[C:2]1[C:3]([H:8])([H:9])[C:4]([H:10])([H:11])[C@@:5]2([H:12])[C:6]([H:13])([H:14])[C@@:7]12[H:15]>>[O:1]=[C:2]=[C:7]([C:6]([C:5]([C:4](=[C:3]([H:8])[H:9])[H:10])([H:11])[H:12])([H:13])[H:14])[H:15]"
O       -0.26950952       2.63512772       0.79297483
C        0.03375674       1.57673644       0.32600637
C       -1.41489569       0.49591205      -0.36902944
C       -1.13214188      -0.76949771       0.23993555
C        0.30046129      -1.06500903       0.39183888
C        1.28212720      -0.46347337      -0.55944495
C        1.17692668       0.78561730       0.26860363
H       -1.16723779       0.58128103      -1.42754201
H       -2.41143764       0.88985482      -0.19234560
H       -1.77460949      -1.08862037       1.05723910
H       -0.57148887      -1.93956188      -0.29523898
H        0.62775969      -1.55704631       1.30254533
H        0.95081904      -0.39956479      -1.59743081
H        2.25959569      -0.93419686      -0.49624835
H        2.10987455       1.25244096       0.55813645
15
Frame=12 idx=010620 GeodesicLength=1.080907925469991 rxn_smarts="[O:1]=[C:2]1[C:3]([H:8])([H:9])[C:4]([H:10])([H:11])[C@@:5]2([H:12])[C:6]([H:13])([H:14])[C@@:7]12[H:15]>>[O:1]=[C:2]=[C:7]([C:6]([C:5]([C:4](=[C:3]([H:8])[H:9])[H:10])([H:11])[H:12])([H:13])[H:14])[H:15]"
O       -0.25382914       2.63054818       0.81458432
C        0.04533731       1.57940808       0.33582812
C       -1.42950148       0.48760137      -0.37981090
C       -1.13876721      -0.77432061       0.22840196
C        0.30334160      -1.04974585       0.39483862
C        1.28302938      -0.46460821      -0.56807443
C        1.17980189       0.77424515       0.27585482
H       -1.17331439       0.58560111      -1.43494492
H       -2.42919568       0.87578606      -0.20790537
H       -1.77551088      -1.08288038       1.05453493
H       -0.56197545      -1.95385695      -0.28273323
H        0.63169137      -1.51624737       1.31845719
H        0.94425336      -0.38806804      -1.60175910
H        2.25838033      -0.93998218      -0.50988557
H        2.11625898       1.23651966       0.56261356
15
Frame=13 idx=010620 GeodesicLength=1.1713100920513662 rxn_smarts="[O:1]=[C:2]1[C:3]([H:8])([H:9])[C:4]([H:10])([H:11])[C@@:5]2([H:12])[C:6]([H:13])([H:14])[C@@:7]12[H:15]>>[O:1]=[C:2]=[C:7]([C:6]([C:5]([C:4](=[C:3]([H:8])[H:9])[H:10])([H:11])[H:12])([H:13])[H:14])[H:15]"
O       -0.23805694       2.62576671       0.83676967
C        0.05736479       1.58235776       0.34583443
C       -1.44431160       0.47895193      -0.39080048
C       -1.14515922      -0.77899027       0.21733272
C        0.30611701      -1.03431360       0.39772774
C        1.28386886      -0.46565472      -0.57643184
C        1.18293899       0.76332122       0.28247955
H       -1.17943201       0.58981912      -1.44225151
H       -2.44734990       0.86089263      -0.22409595
H       -1.77629737      -1.07680825       1.05200776
H       -0.55266735      -1.96760050      -0.26964355
H        0.63511252      -1.47613682       1.33310611
H        0.93798016      -0.37654320      -1.60572552
H        2.25697081      -0.94581841      -0.52304468
H        2.12292125       1.22075640       0.56673554
15
Frame=14 idx=010620 GeodesicLength=1.2618106616024916 rxn_smarts="[O:1]=[C:2]1[C:3]([H:8])([H:9])[C:4]([H:10])([H:11])[C@@:5]2([H:12])[C:6]([H:13])([H:14])[C@@:7]12[H:15]>>[O:1]=[C:2]=[C:7]([C:6]([C:5]([C:4](=[C:3]([H:8])[H:9])[H:10])([H:11])[H:12])([H:13])[H:14])[H:15]"
O       -0.22217429       2.62068005       0.85975934
C        0.06988281       1.58561806       0.35601648
C       -1.45933559       0.46994835      -0.40205538
C       -1.15134642      -0.78349293       0.20669871
C        0.30878836      -1.01869385       0.40051779
C        1.28462166      -0.46661786      -0.58456070
C        1.18635129       0.75286916       0.28844658
H       -1.18558836       0.59396381      -1.44950103
H       -2.46591421       0.84511165      -0.24103096
H       -1.77697982      -1.07036613       1.04966513
H       -0.54356428      -1.98082988      -0.25597770
H        0.63809684      -1.43655923       1.34668283
H        0.93194451      -0.36502156      -1.60938809
H        2.25533601      -0.95172358      -0.53579062
H        2.12988149       1.20511395       0.57051765
15
Frame=15 idx=010620 GeodesicLength=1.3523723561102146 rxn_smarts="[O:1]=[C:2]1[C:3]([H:8])([H:9])[C:4]([H:10])([H:11])[C@@:5]2([H:12])[C:6]([H:13])([H:14])[C@@:7]12[H:15]>>[O:1]=[C:2]=[C:7]([C:6]([C:5]([C:4](=[C:3]([H:8])[H:9])[H:10])([H:11])[H:12])([H:13])[H:14])[H:15]"
O       -0.20616149       2.61531555       0.88348848
C        0.08290512       1.58919269       0.36642079
C       -1.47458481       0.46057433      -0.41359146
C       -1.15734886      -0.78783627       0.19650754
C        0.31135024      -1.00287329       0.40320275
C        1.28528656      -0.46749486      -0.59246474
C        1.19004338       0.74287674       0.29388038
H       -1.19178199       0.59804498      -1.45667830
H       -2.48489817       0.82840745      -0.25875701
H       -1.77757004      -1.06352735       1.04752996
H       -0.53467188      -1.99354470      -0.24173392
H        0.64066020      -1.39761093       1.35918663
H        0.92613706      -0.35344319      -1.61274815
H        2.25346899      -0.95772157      -0.54815693
H        2.13716570       1.18964042       0.57391398
15
Frame=16 idx=010620 GeodesicLength=1.4429820233141142 rxn_smarts="[O:1]=[C:2]1[C:3]([H:8])([H:9])[C:4]([H:10])([H:11])[C@@:5]2([H:12])[C:6]([H:13])([H:14])[C@@:7]12[H:15]>>[O:1]=[C:2]=[C:7]([C:6]([C:5]([C:4](=[C:3]([H:8])[H:9])[H:10])([H:11])[H:12])([H:13])[H:14])[H:15]"
O       -0.18998144       2.60969126       0.90790314
C        0.09645968       1.59308910       0.37707407
C       -1.49007071       0.45080101      -0.42542356
C       -1.16318932      -0.79200953       0.18676592
C        0.31379769      -0.98684178       0.40577841
C        1.28585294      -0.46826784      -0.60015274
C        1.19401112       0.73332075       0.29883674
H       -1.19801868       0.60207504      -1.46376996
H       -2.50430296       0.81071625      -0.27730966
H       -1.77807919      -1.05626050       1.04561903
H       -0.52600029      -2.00572357      -0.22694929
H        0.64285292      -1.35934053       1.37067087
H        0.92053884      -0.34177160      -1.61581030
H        2.25135446      -0.96379518      -0.56017180
H        2.14477495       1.17431711       0.57693914
