13
Frame=0 idx=005500 GeodesicLength=0.0 rxn_smarts="[C:1]([C:2]([O:3][C:4]([C:5]#[N:6])([H:12])[H:13])([H:10])[H:11])([H:7])([H:8])[H:9]>>[C:1]([C:2]([O:3][C:4]([N+:6]#[C-:5])([H:12])[H:13])([H:10])[H:11])([H:7])([H:8])[H:9]"
C       -1.91216892      -0.64783640       0.14802951
C       -0.62199904      -0.10078757      -0.40730346
O        0.25308844       0.17782138       0.69088628
C        1.38277432       0.81286314       0.40030075
C        2.35071290      -0.24467965      -0.80737798
N        2.95172801      -0.36236001       0.20072212
H       -2.39365992       0.07637265       0.80599302
H       -2.59609583      -0.87914055      -0.66957778
H       -1.72993865      -1.56247762       0.71261524
H       -0.78560534       0.82439917      -0.97065992
H       -0.12130192      -0.81489904      -1.06672453
H        1.90394809       1.11079771       1.30086748
H        1.31851786       1.60992681      -0.33777078
13
Frame=1 idx=005500 GeodesicLength=0.030842741783946172 rxn_smarts="[C:1]([C:2]([O:3][C:4]([C:5]#[N:6])([H:12])[H:13])([H:10])[H:11])([H:7])([H:8])[H:9]>>[C:1]([C:2]([O:3][C:4]([N+:6]#[C-:5])([H:12])[H:13])([H:10])[H:11])([H:7])([H:8])[H:9]"
C       -1.91167961      -0.64753254       0.14814426
C       -0.61961132      -0.10301302      -0.40550054
O        0.25138533       0.18101642       0.69359869
C        1.38688279       0.81140279       0.39950206
C        2.36289521      -0.22731760      -0.82117835
N        2.93307743      -0.38449172       0.19690697
H       -2.39486362       0.07980526       0.80139735
H       -2.59323129      -0.88262352      -0.67038252
H       -1.73116803      -1.55948957       0.71762332
H       -0.78205325       0.81916495      -0.97446504
H       -0.11799037      -0.82129044      -1.05998953
H        1.90333328       1.11533329       1.30143716
H        1.31302345       1.61903571      -0.32709383
13
Frame=2 idx=005500 GeodesicLength=0.06180554321543558 rxn_smarts="[C:1]([C:2]([O:3][C:4]([C:5]#[N:6])([H:12])[H:13])([H:10])[H:11])([H:7])([H:8])[H:9]>>[C:1]([C:2]([O:3][C:4]([N+:6]#[C-:5])([H:12])[H:13])([H:10])[H:11])([H:7])([H:8])[H:9]"
C       -1.91117934      -0.64725966       0.14823493
C       -0.61724669      -0.10513546      -0.40363926
O        0.24955517       0.18447060       0.69637895
C        1.39096540       0.80999243       0.39870582
C        2.37537697      -0.21028774      -0.83400121
N        2.91399608      -0.40622778       0.19207250
H       -2.39615802       0.08314281       0.79671998
H       -2.59028444      -0.88622212      -0.67122000
H       -1.73233281      -1.55648128       0.72261209
H       -0.77855161       0.81399662      -0.97819409
H       -0.11462136      -0.82747396      -1.05318683
H        1.90276651       1.11970677       1.30198865
H        1.30771414       1.62777875      -0.31647153
13
Frame=3 idx=005500 GeodesicLength=0.09287756119206636 rxn_smarts="[C:1]([C:2]([O:3][C:4]([C:5]#[N:6])([H:12])[H:13])([H:10])[H:11])([H:7])([H:8])[H:9]>>[C:1]([C:2]([O:3][C:4]([N+:6]#[C-:5])([H:12])[H:13])([H:10])[H:11])([H:7])([H:8])[H:9]"
C       -1.91067104      -0.64703259       0.14831185
C       -0.61493719      -0.10712260      -0.40173539
O        0.24761427       0.18815116       0.69919028
C        1.39502688       0.80861482       0.39787696
C        2.38820562      -0.19373024      -0.84579111
N        2.89456706      -0.42750602       0.18636527
H       -2.39751273       0.08631629       0.79205884
H       -2.58730276      -0.88988231      -0.67206393
H       -1.73340421      -1.55351639       0.72750856
H       -0.77516452       0.80896751      -0.98179266
H       -0.11124792      -0.83337068      -1.04640436
H        1.90219105       1.12400694       1.30249174
H        1.30263550       1.63610412      -0.30601604
13
Frame=4 idx=005500 GeodesicLength=0.12406899148663961 rxn_smarts="[C:1]([C:2]([O:3][C:4]([C:5]#[N:6])([H:12])[H:13])([H:10])[H:11])([H:7])([H:8])[H:9]>>[C:1]([C:2]([O:3][C:4]([N+:6]#[C-:5])([H:12])[H:13])([H:10])[H:11])([H:7])([H:8])[H:9]"
C       -1.91016557      -0.64683366       0.14837983
C       -0.61267467      -0.10900985      -0.39979027
O        0.24558384       0.19198810       0.70202060
C        1.39906284       0.80724634       0.39702604
C        2.40139994      -0.17759967      -0.85660781
N        2.87484175      -0.44826615       0.17977810
H       -2.39892111       0.08937572       0.78739202
H       -2.58429528      -0.89358944      -0.67290449
H       -1.73442748      -1.55056311       0.73234368
H       -0.77185928       0.80403566      -0.98527268
H       -0.10788196      -0.83903355      -1.03963784
H        1.90157860       1.12822000       1.30296325
H        1.29775838       1.64402962      -0.29569043
13
Frame=5 idx=005500 GeodesicLength=0.15536943150698077 rxn_smarts="[C:1]([C:2]([O:3][C:4]([C:5]#[N:6])([H:12])[H:13])([H:10])[H:11])([H:7])([H:8])[H:9]>>[C:1]([C:2]([O:3][C:4]([N+:6]#[C-:5])([H:12])[H:13])([H:10])[H:11])([H:7])([H:8])[H:9]"
C       -1.90966358      -0.64667870       0.14844817
C       -0.61048772      -0.11076600      -0.39781966
O        0.24347915       0.19595807       0.70484064
C        1.40307991       0.80587769       0.39612587
C        2.41499908      -0.16201164      -0.86641006
N        2.85488491      -0.46848099       0.17244880
H       -2.40035757       0.09226044       0.78280667
H       -2.58130171      -0.89730432      -0.67372208
H       -1.73537008      -1.54768266       0.73705754
H       -0.76869597       0.79927230      -0.98859093
H       -0.10457258      -0.84439526      -1.03296910
H        1.90088549       1.13242837       1.30337782
H        1.29312067       1.65152270      -0.28559367
13
Frame=6 idx=005500 GeodesicLength=0.1867667986758956 rxn_smarts="[C:1]([C:2]([O:3][C:4]([C:5]#[N:6])([H:12])[H:13])([H:10])[H:11])([H:7])([H:8])[H:9]>>[C:1]([C:2]([O:3][C:4]([N+:6]#[C-:5])([H:12])[H:13])([H:10])[H:11])([H:7])([H:8])[H:9]"
C       -1.90916206      -0.64658258       0.14852640
C       -0.60840349      -0.11235634      -0.39583777
O        0.24131098       0.20004378       0.70761797
C        1.40708142       0.80449850       0.39514737
C        2.42904658      -0.14707662      -0.87515253
N        2.83475117      -0.48813656       0.16451919
H       -2.40179897       0.09490307       0.77839189
H       -2.57835528      -0.90098475      -0.67449347
H       -1.73619007      -1.54493249       0.74158428
H       -0.76573787       0.79474765      -0.99169916
H       -0.10136148      -0.84938003      -1.02647659
H        1.90006391       1.13671044       1.30369848
H        1.28875516       1.65854593      -0.27582606
13
Frame=7 idx=005500 GeodesicLength=0.21824577635401946 rxn_smarts="[C:1]([C:2]([O:3][C:4]([C:5]#[N:6])([H:12])[H:13])([H:10])[H:11])([H:7])([H:8])[H:9]>>[C:1]([C:2]([O:3][C:4]([N+:6]#[C-:5])([H:12])[H:13])([H:10])[H:11])([H:7])([H:8])[H:9]"
C       -1.90866319      -0.64655523       0.14862307
C       -0.60644380      -0.11376052      -0.39385868
O        0.23909464       0.20421503       0.71032653
C        1.41107138       0.80309840       0.39407028
C        2.44358139      -0.13288198      -0.88280666
N        2.81450757      -0.50720863       0.15611143
H       -2.40322208       0.09725598       0.77422758
H       -2.57549437      -0.90458347      -0.67520166
H       -1.73686460      -1.54236466       0.74586964
H       -0.76303318       0.79051447      -0.99456356
H       -0.09828558      -0.85393949      -1.02022767
H        1.89907214       1.14113411       1.30389828
H        1.28467967       1.66507599      -0.26646857
13
Frame=8 idx=005500 GeodesicLength=0.24979238177496102 rxn_smarts="[C:1]([C:2]([O:3][C:4]([C:5]#[N:6])([H:12])[H:13])([H:10])[H:11])([H:7])([H:8])[H:9]>>[C:1]([C:2]([O:3][C:4]([N+:6]#[C-:5])([H:12])[H:13])([H:10])[H:11])([H:7])([H:8])[H:9]"
C       -1.90817251      -0.64659077       0.14874499
C       -0.60461005      -0.11499303      -0.39189447
O        0.23684780       0.20842585       0.71297097
C        1.41504776       0.80167060       0.39290957
C        2.45861079      -0.11943859      -0.88941923
N        2.79422409      -0.52568221       0.14725614
H       -2.40461955       0.09935148       0.77033753
H       -2.57273496      -0.90808090      -0.67585316
H       -1.73740569      -1.53999559       0.74993003
H       -0.76058236       0.78658070      -0.99720537
H       -0.09535962      -0.85811418      -1.01425527
H        1.89788438       1.14572326       1.30400542
H        1.28086992       1.67114339      -0.25752714
13
Frame=9 idx=005500 GeodesicLength=0.2814164253339078 rxn_smarts="[C:1]([C:2]([O:3][C:4]([C:5]#[N:6])([H:12])[H:13])([H:10])[H:11])([H:7])([H:8])[H:9]>>[C:1]([C:2]([O:3][C:4]([N+:6]#[C-:5])([H:12])[H:13])([H:10])[H:11])([H:7])([H:8])[H:9]"
C       -1.90767467      -0.64672589       0.14889670
C       -0.60294600      -0.11597523      -0.38994949
O        0.23456771       0.21270861       0.71546545
C        1.41902627       0.80020239       0.39158678
C        2.47421460      -0.10687316      -0.89482869
N        2.77385451      -0.54357378       0.13817872
H       -2.40594994       0.10100720       0.76682874
H       -2.57011460      -0.91143530      -0.67638162
H       -1.73772617      -1.53788692       0.75361397
H       -0.75848996       0.78304051      -0.99948758
H       -0.09264350      -0.86169824      -1.00863185
H        1.89646481       1.15056713       1.30386671
H        1.27741693       1.67664270      -0.24915783
13
Frame=10 idx=005500 GeodesicLength=0.3131231309159058 rxn_smarts="[C:1]([C:2]([O:3][C:4]([C:5]#[N:6])([H:12])[H:13])([H:10])[H:11])([H:7])([H:8])[H:9]>>[C:1]([C:2]([O:3][C:4]([N+:6]#[C-:5])([H:12])[H:13])([H:10])[H:11])([H:7])([H:8])[H:9]"
C       -1.90719374      -0.64691256       0.14908390
C       -0.60140362      -0.11681025      -0.38803168
O        0.23227576       0.21697600       0.71789702
C        1.42299236       0.79869420       0.39020409
C        2.49035247      -0.09499451      -0.89927243
N        2.75348826      -0.56089477       0.12865518
H       -2.40727505       0.10246841       0.76356914
H       -2.56759266      -0.91471729      -0.67685417
H       -1.73793120      -1.53594894       0.75714555
H       -0.75664407       0.77978982      -1.00157474
H       -0.09008609      -0.86495314      -1.00330889
H        1.89483127       1.15556443       1.30366261
H        1.27418632       1.68173861      -0.24117559
13
Frame=11 idx=005500 GeodesicLength=0.3449762076434684 rxn_smarts="[C:1]([C:2]([O:3][C:4]([C:5]#[N:6])([H:12])[H:13])([H:10])[H:11])([H:7])([H:8])[H:9]>>[C:1]([C:2]([O:3][C:4]([N+:6]#[C-:5])([H:12])[H:13])([H:10])[H:11])([H:7])([H:8])[H:9]"
C       -1.90674108      -0.64716815       0.14932172
C       -0.60000692      -0.11745848      -0.38615250
O        0.22996105       0.22124737       0.72024751
C        1.42695656       0.79714524       0.38872684
C        2.50715176      -0.08385522      -0.90270391
N        2.73313384      -0.57771642       0.11878855
H       -2.40862810       0.10366038       0.76064009
H       -2.56520095      -0.91790544      -0.67725136
H       -1.73797865      -1.53423299       0.76048847
H       -0.75511505       0.77689092      -1.00344427
H       -0.08768449      -0.86779503      -0.99834188
H        1.89296309       1.16075923       1.30334378
H        1.27118894       1.68642859      -0.23366302
13
Frame=12 idx=005500 GeodesicLength=0.3768293913578327 rxn_smarts="[C:1]([C:2]([O:3][C:4]([C:5]#[N:6])([H:12])[H:13])([H:10])[H:11])([H:7])([H:8])[H:9]>>[C:1]([C:2]([O:3][C:4]([N+:6]#[C-:5])([H:12])[H:13])([H:10])[H:11])([H:7])([H:8])[H:9]"
C       -1.90630204      -0.64739522       0.14955288
C       -0.59864322      -0.11814587      -0.38422931
O        0.22770952       0.22533104       0.72250544
C        1.43090441       0.79550887       0.38725690
C        2.52421816      -0.07301116      -0.90526718
N        2.71271799      -0.59368419       0.10814823
H       -2.40984474       0.10486913       0.75764136
H       -2.56284996      -0.92104001      -0.67756811
H       -1.73815680      -1.53242932       0.76375103
H       -0.75352901       0.77393024      -1.00513043
H       -0.08549808      -0.87059096      -0.99338671
H        1.89094074       1.16593811       1.30293571
H        1.26833303       1.69071935      -0.22620980
13
Frame=13 idx=005500 GeodesicLength=0.4088009761494792 rxn_smarts="[C:1]([C:2]([O:3][C:4]([C:5]#[N:6])([H:12])[H:13])([H:10])[H:11])([H:7])([H:8])[H:9]>>[C:1]([C:2]([O:3][C:4]([N+:6]#[C-:5])([H:12])[H:13])([H:10])[H:11])([H:7])([H:8])[H:9]"
C       -1.90591719      -0.64765776       0.14984642
C       -0.59740045      -0.11871034      -0.38235014
O        0.22545533       0.22933371       0.72473526
C        1.43484181       0.79382464       0.38574836
C        2.54195353      -0.06281652      -0.90693946
N        2.69245272      -0.60914148       0.09705575
H       -2.41113993       0.10594609       0.75493154
H       -2.56062903      -0.92407479      -0.67784403
H       -1.73824294      -1.53081379       0.76693662
H       -0.75221412       0.77126930      -1.00668553
H       -0.08343265      -0.87312560      -0.98877809
H        1.88866484       1.17128461       1.30250396
H        1.26560808       1.69468193      -0.21916064
13
Frame=14 idx=005500 GeodesicLength=0.44086344756847884 rxn_smarts="[C:1]([C:2]([O:3][C:4]([C:5]#[N:6])([H:12])[H:13])([H:10])[H:11])([H:7])([H:8])[H:9]>>[C:1]([C:2]([O:3][C:4]([N+:6]#[C-:5])([H:12])[H:13])([H:10])[H:11])([H:7])([H:8])[H:9]"
C       -1.90551905      -0.64802458       0.15017927
C       -0.59633340      -0.11904664      -0.38050426
O        0.22321366       0.23333983       0.72678960
C        1.43879435       0.79209968       0.38409071
C        2.56029923      -0.05347232      -0.90738318
N        2.67210464      -0.62404398       0.08581544
H       -2.41229603       0.10658067       0.75266103
H       -2.55858308      -0.92693125      -0.67798098
H       -1.73811631      -1.52949849       0.76971671
H       -0.75125584       0.76900066      -1.00787831
H       -0.08165270      -0.87511100      -0.98456678
H        1.88613363       1.17696133       1.30178080
H        1.26321090       1.69814609      -0.21272006
13
Frame=15 idx=005500 GeodesicLength=0.4730054096284424 rxn_smarts="[C:1]([C:2]([O:3][C:4]([C:5]#[N:6])([H:12])[H:13])([H:10])[H:11])([H:7])([H:8])[H:9]>>[C:1]([C:2]([O:3][C:4]([N+:6]#[C-:5])([H:12])[H:13])([H:10])[H:11])([H:7])([H:8])[H:9]"
C       -1.90514604      -0.64843602       0.15056808
C       -0.59539637      -0.11924744      -0.37870136
O        0.22098545       0.23725556       0.72876189
C        1.44273453       0.79032291       0.38237018
C        2.57928134      -0.04482870      -0.90680444
N        2.65186431      -0.63840014       0.07420271
H       -2.41342448       0.10700174       0.75075232
H       -2.55669063      -0.92961593      -0.67803721
H       -1.73786572      -1.52840589       0.77229721
H       -0.75057613       0.76703473      -1.00887534
H       -0.08005062      -0.87678353      -0.98071496
H        1.88331508       1.18287169       1.30093433
H        1.26096929       1.70123101      -0.20675342
13
Frame=16 idx=005500 GeodesicLength=0.505221945123774 rxn_smarts="[C:1]([C:2]([O:3][C:4]([C:5]#[N:6])([H:12])[H:13])([H:10])[H:11])([H:7])([H:8])[H:9]>>[C:1]([C:2]([O:3][C:4]([N+:6]#[C-:5])([H:12])[H:13])([H:10])[H:11])([H:7])([H:8])[H:9]"
C       -1.90480087      -0.64888828       0.15099966
C       -0.59458119      -0.11934132      -0.37692355
O        0.21879506       0.24105417       0.73063167
C        1.44668081       0.78848742       0.38059180
C        2.59884663      -0.03680217      -0.90516487
N        2.63168261      -0.65214452       0.06215570
H       -2.41448937       0.10721711       0.74912740
H       -2.55495438      -0.93215568      -0.67799825
H       -1.73754236      -1.52747978       0.77467847
H       -0.75012026       0.76530191      -1.00965354
H       -0.07867117      -0.87816591      -0.97716198
H        1.88025464       1.18899210       1.29992326
H        1.25889986       1.70392493      -0.20120577
