12
Frame=0 idx=006102 GeodesicLength=0.0 rxn_smarts="[C:1]1([H:7])([H:8])[O:2][C:3]([H:9])([H:10])[C@@:4]2([H:11])[O:5][C@@:6]12[H:12]>>[C-:1]1=[O+:2][C:3]([H:9])([H:10])[C@@:4]2([H:11])[O:5][C@@:6]12[H:12].[H:7][H:8]"
C       -1.25895611       0.08620083       0.46628445
O       -0.79435254       1.17043745      -0.12986381
C        0.59571545       1.06077796      -0.54353375
C        1.09734243      -0.16525799       0.15291437
O        0.85622530      -0.12004504       1.54958880
C       -0.07920201      -0.81129322       0.72832599
H       -2.17414167      -0.56908863      -0.20765931
H       -1.74763527      -1.01647225      -0.84967348
H        0.62771766       0.95026959      -1.63132891
H        1.09001281       1.98323336      -0.24222089
H        1.98051806      -0.69316156      -0.18576331
H       -0.19324410      -1.87560054       0.89292984
12
Frame=1 idx=006102 GeodesicLength=0.05057040794569786 rxn_smarts="[C:1]1([H:7])([H:8])[O:2][C:3]([H:9])([H:10])[C@@:4]2([H:11])[O:5][C@@:6]12[H:12]>>[C-:1]1=[O+:2][C:3]([H:9])([H:10])[C@@:4]2([H:11])[O:5][C@@:6]12[H:12].[H:7][H:8]"
C       -1.25558275       0.07984642       0.45085751
O       -0.79033285       1.16895724      -0.13910239
C        0.60215364       1.06296456      -0.54365303
C        1.10274320      -0.16244528       0.15482891
O        0.85430378      -0.11823830       1.55010677
C       -0.07476870      -0.81236638       0.72397456
H       -2.20530876      -0.57845085      -0.19091753
H       -1.77313195      -1.01534044      -0.84689016
H        0.64283523       0.95422332      -1.63134787
H        1.09279702       1.98596296      -0.23778507
H        1.98916322      -0.68806211      -0.17900342
H       -0.18487108      -1.87705114       0.88893172
12
Frame=2 idx=006102 GeodesicLength=0.10111995149805292 rxn_smarts="[C:1]1([H:7])([H:8])[O:2][C:3]([H:9])([H:10])[C@@:4]2([H:11])[O:5][C@@:6]12[H:12]>>[C-:1]1=[O+:2][C:3]([H:9])([H:10])[C@@:4]2([H:11])[O:5][C@@:6]12[H:12].[H:7][H:8]"
C       -1.25214021       0.07311226       0.43448477
O       -0.78619532       1.16731463      -0.14877820
C        0.60876544       1.06519794      -0.54380355
C        1.10826083      -0.15952225       0.15685400
O        0.85196024      -0.11642947       1.55059433
C       -0.07027933      -0.81353655       0.71924986
H       -2.23623815      -0.58761688      -0.17311148
H       -1.79983001      -1.01429308      -0.84361811
H        0.65847054       0.95829100      -1.63131168
H        1.09547928       1.98878615      -0.23321505
H        1.99809045      -0.68269753      -0.17180647
H       -0.17634377      -1.87860622       0.88446159
12
Frame=3 idx=006102 GeodesicLength=0.1516600854128112 rxn_smarts="[C:1]1([H:7])([H:8])[O:2][C:3]([H:9])([H:10])[C@@:4]2([H:11])[O:5][C@@:6]12[H:12]>>[C-:1]1=[O+:2][C:3]([H:9])([H:10])[C@@:4]2([H:11])[O:5][C@@:6]12[H:12].[H:7][H:8]"
C       -1.24861654       0.06595890       0.41711270
O       -0.78194219       1.16548293      -0.15893001
C        0.61555436       1.06748158      -0.54398903
C        1.11389383      -0.15648347       0.15899624
O        0.84915730      -0.11462509       1.55105044
C       -0.06573593      -0.81482275       0.71412917
H       -2.26689627      -0.59651092      -0.15418920
H       -1.82775737      -1.01334350      -0.83980864
H        0.67465720       0.96248328      -1.63122062
H        1.09803727       1.99171716      -0.22850119
H        2.00730646      -0.67704892      -0.16414711
H       -0.16765812      -1.88028919       0.87949725
12
Frame=4 idx=006102 GeodesicLength=0.2021857369944691 rxn_smarts="[C:1]1([H:7])([H:8])[O:2][C:3]([H:9])([H:10])[C@@:4]2([H:11])[O:5][C@@:6]12[H:12]>>[C-:1]1=[O+:2][C:3]([H:9])([H:10])[C@@:4]2([H:11])[O:5][C@@:6]12[H:12].[H:7][H:8]"
C       -1.24499302       0.05834510       0.39866921
O       -0.77757859       1.16342773      -0.16960741
C        0.62251778       1.06981218      -0.54420934
C        1.11963898      -0.15332493       0.16126536
O        0.84585290      -0.11283491       1.55146359
C       -0.06113454      -0.81624105       0.70858129
H       -2.29723925      -0.60504345      -0.13408991
H       -1.85694361      -1.01249260      -0.83540148
H        0.69142716       0.96680639      -1.63106140
H        1.10043262       1.99475692      -0.22362963
H        2.01681659      -0.67109672      -0.15598760
H       -0.15879703      -1.88211464       0.87400730
12
Frame=5 idx=006102 GeodesicLength=0.25269812206103587 rxn_smarts="[C:1]1([H:7])([H:8])[O:2][C:3]([H:9])([H:10])[C@@:4]2([H:11])[O:5][C@@:6]12[H:12]>>[C-:1]1=[O+:2][C:3]([H:9])([H:10])[C@@:4]2([H:11])[O:5][C@@:6]12[H:12].[H:7][H:8]"
C       -1.24124957       0.05021895       0.37907172
O       -0.77310967       1.16111039      -0.18086269
C        0.62965325       1.07218761      -0.54446488
C        1.12549289      -0.15004175       0.16367200
O        0.84199958      -0.11106864       1.55182298
C       -0.05647090      -0.81781214       0.70257338
H       -2.32721779      -0.61311063      -0.11275032
H       -1.88742259      -1.01174142      -0.83032761
H        0.70881545       0.97126886      -1.63082138
H        1.10262377       1.99791018      -0.21858578
H        2.02662733      -0.66481820      -0.14728764
H       -0.14974175      -1.88410320       0.86796023
12
Frame=6 idx=006102 GeodesicLength=0.3032044758929383 rxn_smarts="[C:1]1([H:7])([H:8])[O:2][C:3]([H:9])([H:10])[C@@:4]2([H:11])[O:5][C@@:6]12[H:12]>>[C-:1]1=[O+:2][C:3]([H:9])([H:10])[C@@:4]2([H:11])[O:5][C@@:6]12[H:12].[H:7][H:8]"
C       -1.23736517       0.04151678       0.35822288
O       -0.76854208       1.15848436      -0.19275580
C        0.63695908       1.07460540      -0.54475659
C        1.13145354      -0.14662715       0.16622873
O        0.83754273      -0.10933690       1.55211909
C       -0.05173982      -0.81956069       0.69606813
H       -2.35677738      -0.62059567      -0.09009704
H       -1.91924024      -1.01108674      -0.82450709
H        0.72686498       0.97588115      -1.63048861
H        1.10456419       2.00118267      -0.21335205
H        2.03674999      -0.65818386      -0.13800094
H       -0.14046982      -1.88627935       0.86131929
12
Frame=7 idx=006102 GeodesicLength=0.35377468492012465 rxn_smarts="[C:1]1([H:7])([H:8])[O:2][C:3]([H:9])([H:10])[C@@:4]2([H:11])[O:5][C@@:6]12[H:12]>>[C-:1]1=[O+:2][C:3]([H:9])([H:10])[C@@:4]2([H:11])[O:5][C@@:6]12[H:12].[H:7][H:8]"
C       -1.23332364       0.03215454       0.33600871
O       -0.76387817       1.15549686      -0.20535794
C        0.64445049       1.07707448      -0.54508936
C        1.13752714      -0.14306555       0.16894733
O        0.83241684      -0.10764566       1.55235221
C       -0.04694266      -0.82152130       0.68902103
H       -2.38588302      -0.62737791      -0.06603247
H       -1.95248268      -1.01055262      -0.81784138
H        0.74565164       0.98066875      -1.63006442
H        1.10622316       2.00460202      -0.20790206
H        2.04721216      -0.65114865      -0.12808093
H       -0.13097125      -1.88868497       0.85403928
12
Frame=8 idx=006102 GeodesicLength=0.40417951425735293 rxn_smarts="[C:1]1([H:7])([H:8])[O:2][C:3]([H:9])([H:10])[C@@:4]2([H:11])[O:5][C@@:6]12[H:12]>>[C-:1]1=[O+:2][C:3]([H:9])([H:10])[C@@:4]2([H:11])[O:5][C@@:6]12[H:12].[H:7][H:8]"
C       -1.22905274       0.02205721       0.31227992
O       -0.75913607       1.15207146      -0.21876093
C        0.65206356       1.07955898      -0.54545748
C        1.14366342      -0.13937518       0.17184929
O        0.82652542      -0.10604091       1.55245520
C       -0.04205366      -0.82372661       0.68137117
H       -2.41432852      -0.63324170      -0.04048585
H       -1.98708088      -1.01001482      -0.81019237
H        0.76515973       0.98562269      -1.62947973
H        1.10744522       2.00811855      -0.20223549
H        2.05796083      -0.64369938      -0.11742459
H       -0.12116631      -1.89133028       0.84608087
12
Frame=9 idx=006102 GeodesicLength=0.45448959419717233 rxn_smarts="[C:1]1([H:7])([H:8])[O:2][C:3]([H:9])([H:10])[C@@:4]2([H:11])[O:5][C@@:6]12[H:12]>>[C-:1]1=[O+:2][C:3]([H:9])([H:10])[C@@:4]2([H:11])[O:5][C@@:6]12[H:12].[H:7][H:8]"
C       -1.22450875       0.01110238       0.28681839
O       -0.75430726       1.14811929      -0.23312302
C        0.65981656       1.08206400      -0.54585978
C        1.14987227      -0.13553217       0.17496506
O        0.81974737      -0.10454377       1.55240286
C       -0.03705626      -0.82622569       0.67301997
H       -2.44206096      -0.63793784      -0.01328328
H       -2.02321930      -1.00954785      -0.80133674
H        0.78552440       0.99077638      -1.62869879
H        1.10814003       2.01175567      -0.19630056
H        2.06905053      -0.63575171      -0.10591063
H       -0.11099863      -1.89427869       0.83730651
12
Frame=10 idx=006102 GeodesicLength=0.5048570959029941 rxn_smarts="[C:1]1([H:7])([H:8])[O:2][C:3]([H:9])([H:10])[C@@:4]2([H:11])[O:5][C@@:6]12[H:12]>>[C-:1]1=[O+:2][C:3]([H:9])([H:10])[C@@:4]2([H:11])[O:5][C@@:6]12[H:12].[H:7][H:8]"
C       -1.21967922      -0.00087484       0.25944349
O       -0.74941054       1.14353227      -0.24855101
C        0.66773084       1.08459863      -0.54631148
C        1.15616796      -0.13151060       0.17831488
O        0.81197538      -0.10316830       1.55221531
C       -0.03195506      -0.82908781       0.66390115
H       -2.46901567      -0.64126495       0.01572574
H       -2.06103769      -1.00913316      -0.79112310
H        0.80686424       0.99616708      -1.62774575
H        1.10825682       2.01555924      -0.19006000
H        2.08054820      -0.62720935      -0.09345580
H       -0.10044526      -1.89760820       0.82764656
12
Frame=11 idx=006102 GeodesicLength=0.5552092312864969 rxn_smarts="[C:1]1([H:7])([H:8])[O:2][C:3]([H:9])([H:10])[C@@:4]2([H:11])[O:5][C@@:6]12[H:12]>>[C-:1]1=[O+:2][C:3]([H:9])([H:10])[C@@:4]2([H:11])[O:5][C@@:6]12[H:12].[H:7][H:8]"
C       -1.21448609      -0.01405314       0.22986744
O       -0.74446130       1.13817639      -0.26521625
C        0.67576875       1.08714147      -0.54680832
C        1.16252015      -0.12730380       0.18193690
O        0.80304143      -0.10196222       1.55183228
C       -0.02672213      -0.83238467       0.65389965
H       -2.49496845      -0.64286316       0.04671072
H       -2.10060955      -1.00870533      -0.77928147
H        0.82926191       1.00181669      -1.62655091
H        1.10760940       2.01951798      -0.18347423
H        2.09245392      -0.61799584      -0.07990214
H       -0.08940804      -1.90138437       0.81698633
12
Frame=12 idx=006102 GeodesicLength=0.605524484451052 rxn_smarts="[C:1]1([H:7])([H:8])[O:2][C:3]([H:9])([H:10])[C@@:4]2([H:11])[O:5][C@@:6]12[H:12]>>[C-:1]1=[O+:2][C:3]([H:9])([H:10])[C@@:4]2([H:11])[O:5][C@@:6]12[H:12].[H:7][H:8]"
C       -1.20884899      -0.02867050       0.19775939
O       -0.73947863       1.13188504      -0.28330098
C        0.68389191       1.08967449      -0.54735054
C        1.16889557      -0.12289818       0.18587370
O        0.79275073      -0.10098135       1.55120264
C       -0.02133487      -0.83621104       0.64289308
H       -2.51964995      -0.64230180       0.07985270
H       -2.14201880      -1.00818534      -0.76550293
H        0.85281193       1.00776116      -1.62505464
H        1.10599670       2.02363325      -0.17650037
H        2.10477304      -0.60800631      -0.06507851
H       -0.07778865      -1.90569941       0.80520648
12
Frame=13 idx=006102 GeodesicLength=0.6557850915483375 rxn_smarts="[C:1]1([H:7])([H:8])[O:2][C:3]([H:9])([H:10])[C@@:4]2([H:11])[O:5][C@@:6]12[H:12]>>[C-:1]1=[O+:2][C:3]([H:9])([H:10])[C@@:4]2([H:11])[O:5][C@@:6]12[H:12].[H:7][H:8]"
C       -1.20267309      -0.04502703       0.16273097
O       -0.73449498       1.12444672      -0.30300956
C        0.69203895       1.09217001      -0.54793706
C        1.17524616      -0.11828093       0.19017589
O        0.78087090      -0.10029694       1.55026404
C       -0.01576732      -0.84068511       0.63074260
H       -2.54269433      -0.63903791       0.11533642
H       -2.18532506      -1.00744455      -0.74941950
H        0.87760194       1.01403802      -1.62318326
H        1.10316035       2.02790049      -0.16909193
H        2.11750156      -0.59711552      -0.04878401
H       -0.06546508      -1.91066726       0.79217540
12
Frame=14 idx=006102 GeodesicLength=0.7059676499001553 rxn_smarts="[C:1]1([H:7])([H:8])[O:2][C:3]([H:9])([H:10])[C@@:4]2([H:11])[O:5][C@@:6]12[H:12]>>[C-:1]1=[O+:2][C:3]([H:9])([H:10])[C@@:4]2([H:11])[O:5][C@@:6]12[H:12].[H:7][H:8]"
C       -1.19584840      -0.06349053       0.12435672
O       -0.72956281       1.11559837      -0.32455297
C        0.70010773       1.09458600      -0.54856432
C        1.18149572      -0.11344534       0.19490002
O        0.76713718      -0.10000124       1.54894078
C       -0.00999323      -0.84595028       0.61730601
H       -2.56358984      -0.63240311       0.15331336
H       -2.23050367      -1.00626848      -0.73061592
H        0.90368177       1.02068330      -1.62084637
H        1.09876877       2.03230220      -0.16120683
H        2.13060127      -0.58518682      -0.03080128
H       -0.05229449      -1.91642408       0.77777079
12
Frame=15 idx=006102 GeodesicLength=0.7560382019782032 rxn_smarts="[C:1]1([H:7])([H:8])[O:2][C:3]([H:9])([H:10])[C@@:4]2([H:11])[O:5][C@@:6]12[H:12]>>[C-:1]1=[O+:2][C:3]([H:9])([H:10])[C@@:4]2([H:11])[O:5][C@@:6]12[H:12].[H:7][H:8]"
C       -1.18826249      -0.08447528       0.08227371
O       -0.72477148       1.10502981      -0.34808822
C        0.70792383       1.09685336      -0.54922526
C        1.18752323      -0.10840404       0.20009876
O        0.75129536      -0.10021003       1.54714712
C       -0.00399171      -0.85216626       0.60248283
H       -2.58163597      -0.62162600       0.19379785
H       -2.27731495      -1.00428684      -0.70870686
H        0.93098130       1.02770992      -1.61794130
H        1.09240942       2.03678979      -0.15283312
H        2.14396577      -0.57209856      -0.01093972
H       -0.03812231      -1.92311586       0.76193422
12
Frame=16 idx=006102 GeodesicLength=0.8059475497490411 rxn_smarts="[C:1]1([H:7])([H:8])[O:2][C:3]([H:9])([H:10])[C@@:4]2([H:11])[O:5][C@@:6]12[H:12]>>[C-:1]1=[O+:2][C:3]([H:9])([H:10])[C@@:4]2([H:11])[O:5][C@@:6]12[H:12].[H:7][H:8]"
C       -1.17984031      -0.10834049       0.03643357
O       -0.72026511       1.09243492      -0.37357276
C        0.71520039       1.09885983      -0.54990738
C        1.19314076      -0.10321301       0.20579209
O        0.73322334      -0.10104874       1.54480848
C        0.00223520      -0.85946680       0.58631972
H       -2.59594093      -0.60599443       0.23646416
H       -2.32506045      -1.00088093      -0.68355546
H        0.95915246       1.03506221      -1.61437840
H        1.08363254       2.04125279      -0.14403847
H        2.15735269      -0.55781561       0.01084151
H       -0.02283056      -1.93084975       0.74479295
