17
Frame=0 idx=009623 GeodesicLength=0.0 rxn_smarts="[C:1]1([H:8])([H:9])[C:2]([H:10])([H:11])[C:3]12[C:4]([H:12])([H:13])[C:5]([H:14])=[C:6]([H:15])[C:7]2([H:16])[H:17]>>[C:1]1([H:8])([H:9])[C:2]([H:10])([H:11])[C:3]12[C:4]([H:12])([H:13])[C:5][C:6]([H:14])([H:15])[C:7]2([H:16])[H:17]"
C       -1.25610987      -0.64508702       0.97780736
C       -1.87464938       0.14664800      -0.14129891
C       -0.38980151       0.07580986      -0.01280391
C        0.46339770       1.26126095       0.43490462
C        1.91944386       0.91275846       0.20497320
C        1.86826734      -0.25665375      -0.56156696
C        0.48382349      -0.70947302      -0.97589042
H       -1.31057635      -1.72574657       0.92269630
H       -1.32205607      -0.24137572       1.98075174
H       -2.35941857       1.08250969       0.10837524
H       -2.34778314      -0.39991889      -0.94784934
H        0.29730984       2.13312841      -0.21203916
H        0.25132247       1.59428601       1.45257310
H        2.14758552      -0.31012306       0.67541637
H        2.76639991      -0.71987617      -0.96528690
H        0.32173749      -0.40776844      -2.01716089
H        0.34110728      -1.79037879      -0.92360147
17
Frame=1 idx=009623 GeodesicLength=0.03752857174849279 rxn_smarts="[C:1]1([H:8])([H:9])[C:2]([H:10])([H:11])[C:3]12[C:4]([H:12])([H:13])[C:5]([H:14])=[C:6]([H:15])[C:7]2([H:16])[H:17]>>[C:1]1([H:8])([H:9])[C:2]([H:10])([H:11])[C:3]12[C:4]([H:12])([H:13])[C:5][C:6]([H:14])([H:15])[C:7]2([H:16])[H:17]"
C       -1.25937303      -0.64462271       0.97735785
C       -1.87497191       0.14777734      -0.14289394
C       -0.39035988       0.07472756      -0.01185971
C        0.46241409       1.25982328       0.43676998
C        1.91584536       0.91120194       0.20237002
C        1.86915863      -0.26060190      -0.56008661
C        0.48379246      -0.71160386      -0.97381634
H       -1.31564840      -1.72517844       0.92222463
H       -1.32684623      -0.24075921       1.98014656
H       -2.35916349       1.08420314       0.10584864
H       -2.34718865      -0.39796335      -0.95053615
H        0.29652914       2.13227087      -0.21001023
H        0.25181477       1.59268877       1.45483903
H        2.16789479      -0.30629322       0.68371779
H        2.76620118      -0.71204075      -0.97877910
H        0.31992286      -0.41128522      -2.01521356
H        0.33997830      -1.79234425      -0.92007886
17
Frame=2 idx=009623 GeodesicLength=0.07505083790514587 rxn_smarts="[C:1]1([H:8])([H:9])[C:2]([H:10])([H:11])[C:3]12[C:4]([H:12])([H:13])[C:5]([H:14])=[C:6]([H:15])[C:7]2([H:16])[H:17]>>[C:1]1([H:8])([H:9])[C:2]([H:10])([H:11])[C:3]12[C:4]([H:12])([H:13])[C:5][C:6]([H:14])([H:15])[C:7]2([H:16])[H:17]"
C       -1.26270147      -0.64416500       0.97688218
C       -1.87530025       0.14892285      -0.14452232
C       -0.39093844       0.07361445      -0.01090815
C        0.46144049       1.25832139       0.43867457
C        1.91223817       0.90950663       0.19985431
C        1.87006288      -0.26465677      -0.55854168
C        0.48374842      -0.71378608      -0.97170826
H       -1.32081783      -1.72461153       0.92171436
H       -1.33171548      -0.24015112       1.97951287
H       -2.35888743       1.08592685       0.10328188
H       -2.34659033      -0.39597332      -0.95327087
H        0.29581248       2.13136134      -0.20793842
H        0.25231470       1.59101290       1.45714591
H        2.18870932      -0.30199795       0.69186501
H        2.76568523      -0.70411123      -0.99229841
H        0.31812310      -0.41485837      -2.01323328
H        0.33881644      -1.79435505      -0.91650970
17
Frame=3 idx=009623 GeodesicLength=0.11257642040946006 rxn_smarts="[C:1]1([H:8])([H:9])[C:2]([H:10])([H:11])[C:3]12[C:4]([H:12])([H:13])[C:5]([H:14])=[C:6]([H:15])[C:7]2([H:16])[H:17]>>[C:1]1([H:8])([H:9])[C:2]([H:10])([H:11])[C:3]12[C:4]([H:12])([H:13])[C:5][C:6]([H:14])([H:15])[C:7]2([H:16])[H:17]"
C       -1.26609484      -0.64371508       0.97637874
C       -1.87563446       0.15008475      -0.14618386
C       -0.39153778       0.07247068      -0.00995010
C        0.46047701       1.25675430       0.44061919
C        1.90862221       0.90767175       0.19742613
C        1.87098058      -0.26881961      -0.55693148
C        0.48369097      -0.71601842      -0.96956758
H       -1.32608406      -1.72404672       0.92116205
H       -1.33666232      -0.23955414       1.97884950
H       -2.35859015       1.08768054       0.10067706
H       -2.34598825      -0.39394749      -0.95605394
H        0.29515978       2.13039975      -0.20582153
H        0.25282273       1.58925567       1.45949513
H        2.21003815      -0.29721588       0.69984058
H        2.76484223      -0.69610597      -1.00582051
H        0.31633869      -0.41848439      -2.01122105
H        0.33761950      -1.79640974      -0.91289834
17
Frame=4 idx=009623 GeodesicLength=0.15010825240272851 rxn_smarts="[C:1]1([H:8])([H:9])[C:2]([H:10])([H:11])[C:3]12[C:4]([H:12])([H:13])[C:5]([H:14])=[C:6]([H:15])[C:7]2([H:16])[H:17]>>[C:1]1([H:8])([H:9])[C:2]([H:10])([H:11])[C:3]12[C:4]([H:12])([H:13])[C:5][C:6]([H:14])([H:15])[C:7]2([H:16])[H:17]"
C       -1.26955364      -0.64327387       0.97584582
C       -1.87597424       0.15126352      -0.14787912
C       -0.39215826       0.07129598      -0.00898584
C        0.45952416       1.25512034       0.44260555
C        1.90499697       0.90569563       0.19508669
C        1.87191305      -0.27309226      -0.55525394
C        0.48362033      -0.71830057      -0.96739438
H       -1.33144795      -1.72348472       0.92056453
H       -1.34168698      -0.23897040       1.97815505
H       -2.35827083       1.08946458       0.09803497
H       -2.34538164      -0.39188422      -0.95888679
H        0.29457176       2.12938548      -0.20365647
H        0.25333943       1.58741357       1.46188909
H        2.23189242      -0.29192435       0.70762289
H        2.76365844      -0.68803964      -1.01932402
H        0.31457101      -0.42216129      -2.00917682
H        0.33638598      -1.79850778      -0.90924722
17
Frame=5 idx=009623 GeodesicLength=0.1876565378343358 rxn_smarts="[C:1]1([H:8])([H:9])[C:2]([H:10])([H:11])[C:3]12[C:4]([H:12])([H:13])[C:5]([H:14])=[C:6]([H:15])[C:7]2([H:16])[H:17]>>[C:1]1([H:8])([H:9])[C:2]([H:10])([H:11])[C:3]12[C:4]([H:12])([H:13])[C:5][C:6]([H:14])([H:15])[C:7]2([H:16])[H:17]"
C       -1.27307847      -0.64284265       0.97528169
C       -1.87631990       0.15245985      -0.14960804
C       -0.39280065       0.07009023      -0.00801594
C        0.45858187       1.25341788       0.44463553
C        1.90136341       0.90357626       0.19283764
C        1.87286021      -0.27747450      -0.55351054
C        0.48353554      -0.72063186      -0.96518978
H       -1.33691067      -1.72292649       0.91991808
H       -1.34678962      -0.23840286       1.97742864
H       -2.35792912       1.09127934       0.09535754
H       -2.34477090      -0.38978125      -0.96177018
H        0.29404928       2.12831809      -0.20143971
H        0.25386483       1.58548294       1.46433022
H        2.25428018      -0.28609658       0.71519127
H        2.76213089      -0.67993302      -1.03278561
H        0.31281904      -0.42588698      -2.00710148
H        0.33511406      -1.80064839      -0.90555932
17
Frame=6 idx=009623 GeodesicLength=0.22522395745142032 rxn_smarts="[C:1]1([H:8])([H:9])[C:2]([H:10])([H:11])[C:3]12[C:4]([H:12])([H:13])[C:5]([H:14])=[C:6]([H:15])[C:7]2([H:16])[H:17]>>[C:1]1([H:8])([H:9])[C:2]([H:10])([H:11])[C:3]12[C:4]([H:12])([H:13])[C:5][C:6]([H:14])([H:15])[C:7]2([H:16])[H:17]"
C       -1.27667031      -0.64242242       0.97468452
C       -1.87667120       0.15367452      -0.15137122
C       -0.39346545       0.06885313      -0.00704044
C        0.45765044       1.25164506       0.44671152
C        1.89772059       0.90131213       0.19068126
C        1.87382276      -0.28196676      -0.55170064
C        0.48343659      -0.72301193      -0.96295386
H       -1.34247371      -1.72237270       0.91921896
H       -1.35197115      -0.23785396       1.97666865
H       -2.35756411       1.09312551       0.09264556
H       -2.34415529      -0.38763633      -0.96470582
H        0.29359291       2.12719710      -0.19916703
H        0.25439930       1.58345959       1.46682177
H        2.27721370      -0.27970725       0.72251834
H        2.76024906      -0.67180469      -1.04618017
H        0.31108325      -0.42965994      -2.00499494
H        0.33380263      -1.80283104      -0.90183648
17
Frame=7 idx=009623 GeodesicLength=0.26281095102592295 rxn_smarts="[C:1]1([H:8])([H:9])[C:2]([H:10])([H:11])[C:3]12[C:4]([H:12])([H:13])[C:5]([H:14])=[C:6]([H:15])[C:7]2([H:16])[H:17]>>[C:1]1([H:8])([H:9])[C:2]([H:10])([H:11])[C:3]12[C:4]([H:12])([H:13])[C:5][C:6]([H:14])([H:15])[C:7]2([H:16])[H:17]"
C       -1.28033110      -0.64201429       0.97405247
C       -1.87702861       0.15490865      -0.15316928
C       -0.39415373       0.06758436      -0.00605928
C        0.45672931       1.24979985       0.44883659
C        1.89406811       0.89890159       0.18862072
C        1.87480026      -0.28656865      -0.54982438
C        0.48332261      -0.72544046      -0.96068669
H       -1.34813993      -1.72182411       0.91846318
H       -1.35723400      -0.23732647       1.97587390
H       -2.35717550       1.09500415       0.08989987
H       -2.34353484      -0.38544662      -0.96769551
H        0.29320301       2.12602210      -0.19683322
H        0.25494271       1.58133857       1.46936792
H        2.30070903      -0.27272738       0.72957117
H        2.75800936      -0.66367715      -1.05948000
H        0.30936315      -0.43347886      -2.00285727
H        0.33245016      -1.80505530      -0.89808019
17
Frame=8 idx=009623 GeodesicLength=0.3004272205502222 rxn_smarts="[C:1]1([H:8])([H:9])[C:2]([H:10])([H:11])[C:3]12[C:4]([H:12])([H:13])[C:5]([H:14])=[C:6]([H:15])[C:7]2([H:16])[H:17]>>[C:1]1([H:8])([H:9])[C:2]([H:10])([H:11])[C:3]12[C:4]([H:12])([H:13])[C:5][C:6]([H:14])([H:15])[C:7]2([H:16])[H:17]"
C       -1.28406173      -0.64161925       0.97338388
C       -1.87739235       0.15616331      -0.15500202
C       -0.39486636       0.06628405      -0.00507254
C        0.45581837       1.24788072       0.45101353
C        1.89040667       0.89634528       0.18665575
C        1.87579136      -0.29127865      -0.54788319
C        0.48319242      -0.72791673      -0.95838901
H       -1.35391104      -1.72128134       0.91764704
H       -1.36257896      -0.23682307       1.97504335
H       -2.35676290       1.09691602       0.08712262
H       -2.34290975      -0.38320924      -0.97074004
H        0.29287845       2.12479340      -0.19443243
H        0.25549527       1.57911529       1.47197229
H        2.32476755      -0.26513177       0.73632345
H        2.75542063      -0.65557559      -1.07266105
H        0.30765730      -0.43734209      -2.00068909
H        0.33105508      -1.80732035      -0.89429255
17
Frame=9 idx=009623 GeodesicLength=0.33809253430036 rxn_smarts="[C:1]1([H:8])([H:9])[C:2]([H:10])([H:11])[C:3]12[C:4]([H:12])([H:13])[C:5]([H:14])=[C:6]([H:15])[C:7]2([H:16])[H:17]>>[C:1]1([H:8])([H:9])[C:2]([H:10])([H:11])[C:3]12[C:4]([H:12])([H:13])[C:5][C:6]([H:14])([H:15])[C:7]2([H:16])[H:17]"
C       -1.28786271      -0.64123833       0.97267685
C       -1.87776250       0.15743948      -0.15686978
C       -0.39560382       0.06495239      -0.00408080
C        0.45491725       1.24588634       0.45324479
C        1.88673599       0.89364403       0.18478604
C        1.87679683      -0.29609282      -0.54588053
C        0.48304559      -0.73043962      -0.95606195
H       -1.35978818      -1.72074509       0.91676645
H       -1.36800711      -0.23634670       1.97417593
H       -2.35632592       1.09886181       0.08431519
H       -2.34227986      -0.38092165      -0.97384066
H        0.29261838       2.12351172      -0.19195916
H        0.25605840       1.57678430       1.47463908
H        2.34939761      -0.25689804       0.74274576
H        2.75247781      -0.64752454      -1.08569038
H        0.30596473      -0.44124818      -1.99849151
H        0.32961748      -1.80962509      -0.89047532
17
Frame=10 idx=009623 GeodesicLength=0.37578786063260616 rxn_smarts="[C:1]1([H:8])([H:9])[C:2]([H:10])([H:11])[C:3]12[C:4]([H:12])([H:13])[C:5]([H:14])=[C:6]([H:15])[C:7]2([H:16])[H:17]>>[C:1]1([H:8])([H:9])[C:2]([H:10])([H:11])[C:3]12[C:4]([H:12])([H:13])[C:5][C:6]([H:14])([H:15])[C:7]2([H:16])[H:17]"
C       -1.29173937      -0.64087264       0.97192923
C       -1.87813921       0.15873939      -0.15877418
C       -0.39636759       0.06358746      -0.00308219
C        0.45402612       1.24381171       0.45553668
C        1.88305649       0.89078831       0.18302638
C        1.87781505      -0.30101500      -0.54381396
C        0.48288092      -0.73301158      -0.95370276
H       -1.36577909      -1.72021592       0.91581682
H       -1.37352527      -0.23589976       1.97326975
H       -2.35586269       1.10084458       0.08147647
H       -2.34164441      -0.37857898      -0.97700104
H        0.29242905       2.12217317      -0.18940678
H        0.25662877       1.57434004       1.47737416
H        2.37461881      -0.24797823       0.74879252
H        2.74918259      -0.63954220      -1.09855251
H        0.30428511      -0.44519865      -1.99626183
H        0.32813473      -1.81197170      -0.88662674
17
Frame=11 idx=009623 GeodesicLength=0.4135136599929822 rxn_smarts="[C:1]1([H:8])([H:9])[C:2]([H:10])([H:11])[C:3]12[C:4]([H:12])([H:13])[C:5]([H:14])=[C:6]([H:15])[C:7]2([H:16])[H:17]>>[C:1]1([H:8])([H:9])[C:2]([H:10])([H:11])[C:3]12[C:4]([H:12])([H:13])[C:5][C:6]([H:14])([H:15])[C:7]2([H:16])[H:17]"
C       -1.29569454      -0.64052335       0.97113911
C       -1.87852294       0.16006479      -0.16071558
C       -0.39715903       0.06218866      -0.00207608
C        0.45314447       1.24165383       0.45789377
C        1.87936924       0.88777434       0.18138326
C        1.87884420      -0.30604496      -0.54168452
C        0.48269669      -0.73563278      -0.95131126
H       -1.37188805      -1.71969453       0.91479367
H       -1.37913694      -0.23548548       1.97232350
H       -2.35537244       1.10286615       0.07860780
H       -2.34100356      -0.37617721      -0.98022293
H        0.29231255       2.12077645      -0.18676868
H        0.25720516       1.57177690       1.48018271
H        2.40043928      -0.23833519       0.75442307
H        2.74554425      -0.63165499      -1.11122011
H        0.30261718      -0.44919239      -1.99399974
H        0.32660449      -1.81436024      -0.88274798
17
Frame=12 idx=009623 GeodesicLength=0.45126012637702617 rxn_smarts="[C:1]1([H:8])([H:9])[C:2]([H:10])([H:11])[C:3]12[C:4]([H:12])([H:13])[C:5]([H:14])=[C:6]([H:15])[C:7]2([H:16])[H:17]>>[C:1]1([H:8])([H:9])[C:2]([H:10])([H:11])[C:3]12[C:4]([H:12])([H:13])[C:5][C:6]([H:14])([H:15])[C:7]2([H:16])[H:17]"
C       -1.29973318      -0.64019127       0.97030430
C       -1.87891354       0.16141812      -0.16269579
C       -0.39797923       0.06075444      -0.00106077
C        0.45227265       1.23940797       0.46032268
C        1.87567409       0.88459498       0.17986776
C        1.87988365      -0.31118419      -0.53948990
C        0.48249234      -0.73830550      -0.94888454
H       -1.37812255      -1.71918116       0.91369232
H       -1.38484912      -0.23510611       1.97133543
H       -2.35485311       1.10492969       0.07570792
H       -2.34035610      -0.37371125      -0.98351013
H        0.29227339       2.11931862      -0.18403653
H        0.25778581       1.56908793       1.48307170
H        2.42687287      -0.22792589       0.75958761
H        2.74156526      -0.62388229      -1.12367281
H        0.30096150      -0.45323133      -1.99170264
H        0.32502528      -1.81679276      -0.87883659
17
Frame=13 idx=009623 GeodesicLength=0.4890357034589756 rxn_smarts="[C:1]1([H:8])([H:9])[C:2]([H:10])([H:11])[C:3]12[C:4]([H:12])([H:13])[C:5]([H:14])=[C:6]([H:15])[C:7]2([H:16])[H:17]>>[C:1]1([H:8])([H:9])[C:2]([H:10])([H:11])[C:3]12[C:4]([H:12])([H:13])[C:5][C:6]([H:14])([H:15])[C:7]2([H:16])[H:17]"
C       -1.30385857      -0.63987739       0.96942278
C       -1.87931110       0.16280150      -0.16471540
C       -0.39882932       0.05928395      -0.00003527
C        0.45141041       1.23707056       0.46282871
C        1.87197294       0.88124584       0.17848815
C        1.88093173      -0.31643293      -0.53723056
C        0.48226635      -0.74103055      -0.94642182
H       -1.38448772      -1.71867622       0.91250810
H       -1.39066631      -0.23476454       1.97030415
H       -2.35430331       1.10703758       0.07277765
H       -2.33970165      -0.37117653      -0.98686478
H        0.29231467       2.11779782      -0.18120305
H        0.25836924       1.56626705       1.48604693
H        2.45392369      -0.21671243       0.76424333
H        2.73725677      -0.61624838      -1.13588668
H        0.29931701      -0.45731536      -1.98936973
H        0.32339520      -1.81926996      -0.87489252
17
Frame=14 idx=009623 GeodesicLength=0.526814026771508 rxn_smarts="[C:1]1([H:8])([H:9])[C:2]([H:10])([H:11])[C:3]12[C:4]([H:12])([H:13])[C:5]([H:14])=[C:6]([H:15])[C:7]2([H:16])[H:17]>>[C:1]1([H:8])([H:9])[C:2]([H:10])([H:11])[C:3]12[C:4]([H:12])([H:13])[C:5][C:6]([H:14])([H:15])[C:7]2([H:16])[H:17]"
C       -1.30807704      -0.63958238       0.96849233
C       -1.87971512       0.16421785      -0.16677665
C       -0.39971050       0.05777518       0.00100312
C        0.45055815       1.23463588       0.46542033
C        1.86826668       0.87771733       0.17725920
C        1.88198791      -0.32179476      -0.53490095
C        0.48201830      -0.74381113      -0.94391846
H       -1.39099290      -1.71817972       0.91123610
H       -1.39659753      -0.23446283       1.96922771
H       -2.35372026       1.10919374       0.06981499
H       -2.33903818      -0.36856716      -0.99029155
H        0.29244280       2.11620998      -0.17825846
H        0.25895278       1.56330655       1.48911692
H        2.48160110      -0.20464477       0.76832785
H        2.73262633      -0.60877220      -1.14784332
H        0.29768557      -0.46144686      -1.98699697
H        0.32171193      -1.82179469      -0.87091220
17
Frame=15 idx=009623 GeodesicLength=0.564589766707068 rxn_smarts="[C:1]1([H:8])([H:9])[C:2]([H:10])([H:11])[C:3]12[C:4]([H:12])([H:13])[C:5]([H:14])=[C:6]([H:15])[C:7]2([H:16])[H:17]>>[C:1]1([H:8])([H:9])[C:2]([H:10])([H:11])[C:3]12[C:4]([H:12])([H:13])[C:5][C:6]([H:14])([H:15])[C:7]2([H:16])[H:17]"
C       -1.31239515      -0.63930711       0.96751032
C       -1.88012522       0.16567041      -0.16888168
C       -0.40062415       0.05622593       0.00205689
C        0.44971619       1.23209765       0.46810610
C        1.86455679       0.87399875       0.17619792
C        1.88305084      -0.32727295      -0.53249791
C        0.48174701      -0.74665048      -0.94137067
H       -1.39764797      -1.71769174       0.90987070
H       -1.40265209      -0.23420349       1.96810394
H       -2.35310103       1.11140245       0.06681825
H       -2.33836398      -0.36587662      -0.99379503
H        0.29266520       2.11455047      -0.17519315
H        0.25953318       1.56019846       1.49229015
H        2.50991751      -0.19166956       0.77177930
H        2.72768183      -0.60147398      -1.15952219
H        0.29606792      -0.46562828      -1.98458074
H        0.31997312      -1.82436992      -0.86689222
17
Frame=16 idx=009623 GeodesicLength=0.6023493853056748 rxn_smarts="[C:1]1([H:8])([H:9])[C:2]([H:10])([H:11])[C:3]12[C:4]([H:12])([H:13])[C:5]([H:14])=[C:6]([H:15])[C:7]2([H:16])[H:17]>>[C:1]1([H:8])([H:9])[C:2]([H:10])([H:11])[C:3]12[C:4]([H:12])([H:13])[C:5][C:6]([H:14])([H:15])[C:7]2([H:16])[H:17]"
C       -1.31682044      -0.63905235       0.96647411
C       -1.88054044       0.16716292      -0.17103306
C       -0.40157138       0.05463337       0.00312930
C        0.44888532       1.22944837       0.47089607
C        1.86084612       0.87007646       0.17532415
C        1.88411969      -0.33287313      -0.53001623
C        0.48145165      -0.74955311      -0.93877322
H       -1.40446453      -1.71721217       0.90840598
H       -1.40884085      -0.23398899       1.96693049
H       -2.35244156       1.11366879       0.06378504
H       -2.33767651      -0.36309749      -0.99738057
H        0.29299178       2.11281330      -0.17199646
H        0.26010682       1.55693398       1.49557622
H        2.53887998      -0.17772569       0.77453020
H        2.72243281      -0.59437142      -1.17090769
H        0.29446569      -0.46986308      -1.98211628
H        0.31817586      -1.82699974      -0.86282806
