15
Frame=0 idx=001707 GeodesicLength=0.0 rxn_smarts="[C:1]([C:2]1([H:9])[C:3]([H:10])([H:11])[C:4]([H:12])([H:13])[C:5]1([H:14])[H:15])([H:6])([H:7])[H:8]>>[C:1](=[C:2]1[C:3]([H:10])([H:11])[C:4]([H:12])([H:13])[C:5]1([H:14])[H:15])([H:7])[H:8].[H:6][H:9]"
C        1.79194572      -0.07746117       0.13348988
C        0.39024412      -0.13445468      -0.10720044
C       -0.72374809      -0.90978066       0.55191997
C       -1.69406167      -0.17169327      -0.41051012
C       -0.54415100       0.75712745      -0.88745463
H        2.22962658       0.92288399       1.35182732
H        2.26411311      -0.91858369       0.62350396
H        2.41130981       0.46785167      -0.56617056
H        1.10866974       0.62846546       0.86760712
H       -0.69548432      -1.99899327       0.45810964
H       -0.90188109      -0.67176525       1.60934366
H       -2.54057052       0.32604532       0.06091381
H       -2.06665656      -0.81744574      -1.20448810
H       -0.63674764       1.78514299      -0.51179596
H       -0.39260814       0.81266079      -1.96909557
15
Frame=1 idx=001707 GeodesicLength=0.10369454808728795 rxn_smarts="[C:1]([C:2]1([H:9])[C:3]([H:10])([H:11])[C:4]([H:12])([H:13])[C:5]1([H:14])[H:15])([H:6])([H:7])[H:8]>>[C:1](=[C:2]1[C:3]([H:10])([H:11])[C:4]([H:12])([H:13])[C:5]1([H:14])[H:15])([H:7])[H:8].[H:6][H:9]"
C        1.79368269      -0.07387729       0.14419316
C        0.39257286      -0.12845066      -0.09377420
C       -0.72161711      -0.92400273       0.53932756
C       -1.69465020      -0.16105846      -0.39923970
C       -0.53879783       0.75012221      -0.89252800
H        2.21239639       0.96535111       1.34845801
H        2.26370046      -0.91372798       0.63956617
H        2.41086230       0.44205881      -0.57991593
H        1.08962918       0.65225318       0.89506707
H       -0.68620818      -2.00873972       0.40521619
H       -0.89757678      -0.72488716       1.60459899
H       -2.51728955       0.35292921       0.09663074
H       -2.10094782      -0.79173055      -1.18878607
H       -0.62317022       1.78793679      -0.54428299
H       -0.38258618       0.77582324      -1.97453100
15
Frame=2 idx=001707 GeodesicLength=0.20678288004890077 rxn_smarts="[C:1]([C:2]1([H:9])[C:3]([H:10])([H:11])[C:4]([H:12])([H:13])[C:5]1([H:14])[H:15])([H:6])([H:7])[H:8]>>[C:1](=[C:2]1[C:3]([H:10])([H:11])[C:4]([H:12])([H:13])[C:5]1([H:14])[H:15])([H:7])[H:8].[H:6][H:9]"
C        1.79551442      -0.07024894       0.15497947
C        0.39483791      -0.12220706      -0.07993579
C       -0.71918371      -0.93824341       0.52603511
C       -1.69484468      -0.15016200      -0.38741705
C       -0.53327777       0.74290987      -0.89753460
H        2.19352364       1.00895022       1.34344155
H        2.26299371      -0.90868807       0.65627459
H        2.41020768       0.41444787      -0.59313352
H        1.06898011       0.67631381       0.92334372
H       -0.67665943      -2.01683438       0.35090636
H       -0.89284250      -0.77914459       1.59787382
H       -2.49211233       0.37941881       0.13313562
H       -2.13509382      -0.76464865      -1.17150363
H       -0.60919747       1.78987046      -0.57734456
H       -0.37284575       0.73826607      -1.97912109
15
Frame=3 idx=001707 GeodesicLength=0.3094467817779987 rxn_smarts="[C:1]([C:2]1([H:9])[C:3]([H:10])([H:11])[C:4]([H:12])([H:13])[C:5]1([H:14])[H:15])([H:6])([H:7])[H:8]>>[C:1](=[C:2]1[C:3]([H:10])([H:11])[C:4]([H:12])([H:13])[C:5]1([H:14])[H:15])([H:7])[H:8].[H:6][H:9]"
C        1.79747822      -0.06672310       0.16563598
C        0.39701647      -0.11569502      -0.06566150
C       -0.71646259      -0.95228641       0.51220512
C       -1.69457358      -0.13917517      -0.37521522
C       -0.52763436       0.73565372      -0.90227266
H        2.17301209       1.05338049       1.33656027
H        2.26199732      -0.90361267       0.67342475
H        2.40924478       0.38476023      -0.60597867
H        1.04672940       0.70062446       0.95239966
H       -0.66681404      -2.02302226       0.29577181
H       -0.88779225      -0.83391445       1.58916736
H       -2.46527725       0.40505880       0.16990882
H       -2.16849550      -0.73653553      -1.15288771
H       -0.59504666       1.79095499      -0.61043399
H       -0.36338204       0.70053191      -1.98262400
15
Frame=4 idx=001707 GeodesicLength=0.4118811799667945 rxn_smarts="[C:1]([C:2]1([H:9])[C:3]([H:10])([H:11])[C:4]([H:12])([H:13])[C:5]1([H:14])[H:15])([H:6])([H:7])[H:8]>>[C:1](=[C:2]1[C:3]([H:10])([H:11])[C:4]([H:12])([H:13])[C:5]1([H:14])[H:15])([H:7])[H:8].[H:6][H:9]"
C        1.79961012      -0.06346529       0.17589996
C        0.39910038      -0.10887818      -0.05093797
C       -0.71346317      -0.96588507       0.49805667
C       -1.69377610      -0.12829258      -0.36283953
C       -0.52190801       0.72853393      -0.90654881
H        2.15087172       1.09816030       1.32770049
H        2.26072668      -0.89870040       0.69069679
H        2.40784769       0.35285477      -0.61859741
H        1.02292262       0.72520904       0.98217077
H       -0.65662258      -2.02708387       0.24053324
H       -0.88252743      -0.88848408       1.57858084
H       -2.43713152       0.42939385       0.20637884
H       -2.20054795      -0.70782432      -1.13325945
H       -0.58094353       1.79125858      -0.64299064
H       -0.35415894       0.66320330      -1.98484380
15
Frame=5 idx=001707 GeodesicLength=0.5148353687503995 rxn_smarts="[C:1]([C:2]1([H:9])[C:3]([H:10])([H:11])[C:4]([H:12])([H:13])[C:5]1([H:14])[H:15])([H:6])([H:7])[H:8]>>[C:1](=[C:2]1[C:3]([H:10])([H:11])[C:4]([H:12])([H:13])[C:5]1([H:14])[H:15])([H:7])[H:8].[H:6][H:9]"
C        1.80195859      -0.06071405       0.18542000
C        0.40111940      -0.10159756      -0.03561886
C       -0.71015361      -0.97877324       0.48389276
C       -1.69241473      -0.11771746      -0.35051737
C       -0.51609915       0.72173162      -0.91018457
H        2.12713951       1.14254953       1.31687066
H        2.25921990      -0.89428759       0.70756503
H        2.40588020       0.31886069      -0.63118114
H        0.99753936       0.75030525       1.01268322
H       -0.64604713      -2.02891095       0.18597287
H       -0.87715887      -0.94214892       1.56638502
H       -2.40813721       0.45203853       0.24195074
H       -2.23069521      -0.67904911      -1.11302149
H       -0.56710081       1.79093506      -0.67456822
H       -0.34505021       0.62677819      -1.98564866
15
Frame=6 idx=001707 GeodesicLength=0.6179561033321618 rxn_smarts="[C:1]([C:2]1([H:9])[C:3]([H:10])([H:11])[C:4]([H:12])([H:13])[C:5]1([H:14])[H:15])([H:6])([H:7])[H:8]>>[C:1](=[C:2]1[C:3]([H:10])([H:11])[C:4]([H:12])([H:13])[C:5]1([H:14])[H:15])([H:7])[H:8].[H:6][H:9]"
C        1.80456742      -0.05853681       0.19397649
C        0.40309913      -0.09391176      -0.01982501
C       -0.70651693      -0.99077061       0.46991124
C       -1.69047435      -0.10758025      -0.33840980
C       -0.51022408       0.71537954      -0.91307954
H        2.10174219       1.18602460       1.30432832
H        2.25756104      -0.89047349       0.72370262
H        2.40317682       0.28269091      -0.64387365
H        0.97065498       0.77591493       1.04374553
H       -0.63498439      -2.02845180       0.13275300
H       -0.87167364      -0.99425357       1.55279827
H       -2.37868153       0.47275900       0.27621129
H       -2.25857570      -0.65061031      -1.09250115
H       -0.55364380       1.79008080      -0.70473891
H       -0.33602717       0.59173881      -1.98499870
15
Frame=7 idx=001707 GeodesicLength=0.7213191483811456 rxn_smarts="[C:1]([C:2]1([H:9])[C:3]([H:10])([H:11])[C:4]([H:12])([H:13])[C:5]1([H:14])[H:15])([H:6])([H:7])[H:8]>>[C:1](=[C:2]1[C:3]([H:10])([H:11])[C:4]([H:12])([H:13])[C:5]1([H:14])[H:15])([H:7])[H:8].[H:6][H:9]"
C        1.80749484      -0.05701758       0.20132241
C        0.40509312      -0.08579446      -0.00359220
C       -0.70250255      -1.00172287       0.45632958
C       -1.68797268      -0.09797487      -0.32665064
C       -0.50427045       0.70956149      -0.91520073
H        2.07466877       1.22788140       1.29052711
H        2.25586621      -0.88742024       0.73867459
H        2.39957975       0.24453844      -0.65680452
H        0.94222982       0.80222351       1.07521808
H       -0.62335023      -2.02576648       0.08144550
H       -0.86603119      -1.04427789       1.53813255
H       -2.34915909       0.49147655       0.30884043
H       -2.28399298      -0.62289111      -1.07198882
H       -0.54063948       1.78883249      -0.73330500
H       -0.32701385       0.55835162      -1.98294833
15
Frame=8 idx=001707 GeodesicLength=0.8249790575539783 rxn_smarts="[C:1]([C:2]1([H:9])[C:3]([H:10])([H:11])[C:4]([H:12])([H:13])[C:5]1([H:14])[H:15])([H:6])([H:7])[H:8]>>[C:1](=[C:2]1[C:3]([H:10])([H:11])[C:4]([H:12])([H:13])[C:5]1([H:14])[H:15])([H:7])[H:8].[H:6][H:9]"
C        1.81080094      -0.05619846       0.20720651
C        0.40716954      -0.07719997       0.01302198
C       -0.69804748      -1.01149573       0.44334317
C       -1.68490927      -0.08895060      -0.31531833
C       -0.49821663       0.70430263      -0.91659572
H        2.04586994       1.26728332       1.27621972
H        2.25425903      -0.88528473       0.75196920
H        2.39495054       0.20477004      -0.67006622
H        0.91214203       0.82948815       1.10690614
H       -0.61109336      -2.02094385       0.03254547
H       -0.86014608      -1.09178361       1.52271482
H       -2.31984539       0.50822420       0.33963851
H       -2.30685167      -0.59619837      -1.05166188
H       -0.52811645       1.78728325      -0.76029010
H       -0.31796569       0.52670371      -1.97963326
15
Frame=9 idx=001707 GeodesicLength=0.9295185800025725 rxn_smarts="[C:1]([C:2]1([H:9])[C:3]([H:10])([H:11])[C:4]([H:12])([H:13])[C:5]1([H:14])[H:15])([H:6])([H:7])[H:8]>>[C:1](=[C:2]1[C:3]([H:10])([H:11])[C:4]([H:12])([H:13])[C:5]1([H:14])[H:15])([H:7])[H:8].[H:6][H:9]"
C        1.81451427      -0.05611295       0.21129153
C        0.40944311      -0.06778531       0.03018237
C       -0.69300593      -1.01984302       0.43129340
C       -1.68123723      -0.08057083      -0.30448943
C       -0.49201015       0.69958599      -0.91739286
H        2.01515166       1.30259983       1.26286411
H        2.25283560      -0.88453587       0.76254412
H        2.38912197       0.16416749      -0.68398424
H        0.88011483       0.85850625       1.13856497
H       -0.59806743      -2.01405616      -0.01332109
H       -0.85394318      -1.13627141       1.50702703
H       -2.29097379       0.52310379       0.36834874
H       -2.32703063      -0.57093268      -1.03163362
H       -0.51616141       1.78554086      -0.78606424
H       -0.30875169       0.49660405      -1.97523081
15
Frame=10 idx=001707 GeodesicLength=1.034179719575733 rxn_smarts="[C:1]([C:2]1([H:9])[C:3]([H:10])([H:11])[C:4]([H:12])([H:13])[C:5]1([H:14])[H:15])([H:6])([H:7])[H:8]>>[C:1](=[C:2]1[C:3]([H:10])([H:11])[C:4]([H:12])([H:13])[C:5]1([H:14])[H:15])([H:7])[H:8].[H:6][H:9]"
C        1.81868063      -0.05669241       0.21351031
C        0.41197482      -0.05777922       0.04758088
C       -0.68735440      -1.02683333       0.42016661
C       -1.67702814      -0.07275757      -0.29414144
C       -0.48562941       0.69535832      -0.91768382
H        1.98264771       1.33375154       1.25104408
H        2.25173287      -0.88495734       0.77048105
H        2.38203858       0.12279145      -0.69852900
H        0.84596222       0.88918195       1.16988699
H       -0.58428147      -2.00533545      -0.05610872
H       -0.84720982      -1.17766578       1.49124862
H       -2.26268218       0.53638951       0.39507889
H       -2.34478182      -0.54709009      -1.01195246
H       -0.50462921       1.78359565      -0.81066773
H       -0.29944039       0.46804276      -1.96991427
15
Frame=11 idx=001707 GeodesicLength=1.1388260254852334 rxn_smarts="[C:1]([C:2]1([H:9])[C:3]([H:10])([H:11])[C:4]([H:12])([H:13])[C:5]1([H:14])[H:15])([H:6])([H:7])[H:8]>>[C:1](=[C:2]1[C:3]([H:10])([H:11])[C:4]([H:12])([H:13])[C:5]1([H:14])[H:15])([H:7])[H:8].[H:6][H:9]"
C        1.82332802      -0.05789612       0.21368740
C        0.41485658      -0.04713186       0.06512529
C       -0.68102228      -1.03241854       0.41010329
C       -1.67229279      -0.06546810      -0.28427649
C       -0.47903801       0.69154835      -0.91760726
H        1.94840055       1.35995366       1.24194621
H        2.25107345      -0.88665345       0.77533296
H        2.37361071       0.08112331      -0.71386793
H        0.80939654       0.92186322       1.20052469
H       -0.56970835      -1.99499388      -0.09559753
H       -0.83979302      -1.21575333       1.47573989
H       -2.23506941       0.54835800       0.41981234
H       -2.36024423      -0.52479555      -0.99265465
H       -0.49346772       1.78145273      -0.83440078
H       -0.29003005       0.44081156      -1.96386742
15
Frame=12 idx=001707 GeodesicLength=1.2433280666890105 rxn_smarts="[C:1]([C:2]1([H:9])[C:3]([H:10])([H:11])[C:4]([H:12])([H:13])[C:5]1([H:14])[H:15])([H:6])([H:7])[H:8]>>[C:1](=[C:2]1[C:3]([H:10])([H:11])[C:4]([H:12])([H:13])[C:5]1([H:14])[H:15])([H:7])[H:8].[H:6][H:9]"
C        1.82848394      -0.05968106       0.21168016
C        0.41817280      -0.03578432       0.08272674
C       -0.67395195      -1.03656060       0.40121427
C       -1.66703084      -0.05866773      -0.27489057
C       -0.47221123       0.68808576      -0.91729618
H        1.91251954       1.38052156       1.23670721
H        2.25093598      -0.88969703       0.77675960
H        2.36377884       0.03956215      -0.73018620
H        0.77010434       0.95690618       1.23009538
H       -0.55433278      -1.98322463      -0.13162911
H       -0.83156290      -1.25040949       1.46080410
H       -2.20818146       0.55927000       0.44256500
H       -2.37354641      -0.50412132      -0.97373422
H       -0.48264042       1.77909452      -0.85756334
H       -0.28053747       0.41470602      -1.95725283
15
Frame=13 idx=001707 GeodesicLength=1.3475689267768367 rxn_smarts="[C:1]([C:2]1([H:9])[C:3]([H:10])([H:11])[C:4]([H:12])([H:13])[C:5]1([H:14])[H:15])([H:6])([H:7])[H:8]>>[C:1](=[C:2]1[C:3]([H:10])([H:11])[C:4]([H:12])([H:13])[C:5]1([H:14])[H:15])([H:7])[H:8].[H:6][H:9]"
C        1.83417111      -0.06198381       0.20735319
C        0.42200766      -0.02366857       0.10030753
C       -0.66608271      -1.03923062       0.39360713
C       -1.66124914      -0.05230366      -0.26597387
C       -0.46512592       0.68490417      -0.91687280
H        1.87514709       1.39484445       1.23649428
H        2.25140557      -0.89411078       0.77448350
H        2.35246966      -0.00159273      -0.74771984
H        0.72776105       0.99463110       1.25818608
H       -0.53813788      -1.97022915      -0.16410457
H       -0.82238903      -1.28154116       1.44673585
H       -2.18204868       0.56939114       0.46336033
H       -2.38482844      -0.48511732      -0.95519490
H       -0.47211314       1.77649293      -0.88045421
H       -0.27098720       0.38951402      -1.95020769
15
Frame=14 idx=001707 GeodesicLength=1.4515117432981932 rxn_smarts="[C:1]([C:2]1([H:9])[C:3]([H:10])([H:11])[C:4]([H:12])([H:13])[C:5]1([H:14])[H:15])([H:6])([H:7])[H:8]>>[C:1](=[C:2]1[C:3]([H:10])([H:11])[C:4]([H:12])([H:13])[C:5]1([H:14])[H:15])([H:7])[H:8].[H:6][H:9]"
C        1.84036818      -0.06476615       0.20057452
C        0.42645095      -0.01073412       0.11778762
C       -0.65736260      -1.04042416       0.38737120
C       -1.65493533      -0.04633512      -0.25751384
C       -0.45775134       0.68193515      -0.91644289
H        1.83655084       1.40244187       1.24238230
H        2.25249617      -0.89992329       0.76825827
H        2.33964353      -0.04201434      -0.76665212
H        0.68199629       1.03533525       1.28437013
H       -0.52115688      -1.95620160      -0.19294375
H       -0.81217005      -1.30909278       1.43380380
H       -2.15666537       0.57893477       0.48221930
H       -2.39420637      -0.46779327      -0.93701807
H       -0.46184699       1.77359558      -0.90334551
H       -0.26141102       0.36504223      -1.94285096
15
Frame=15 idx=001707 GeodesicLength=1.5551300121955718 rxn_smarts="[C:1]([C:2]1([H:9])[C:3]([H:10])([H:11])[C:4]([H:12])([H:13])[C:5]1([H:14])[H:15])([H:6])([H:7])[H:8]>>[C:1](=[C:2]1[C:3]([H:10])([H:11])[C:4]([H:12])([H:13])[C:5]1([H:14])[H:15])([H:7])[H:8].[H:6][H:9]"
C        1.84706714      -0.06796393       0.19124874
C        0.43158625       0.00307487       0.13508638
C       -0.64774331      -1.04014311       0.38257859
C       -1.64808242      -0.04071620      -0.24949466
C       -0.45006771       0.67913126      -0.91609494
H        1.79692092       1.40288560       1.25539167
H        2.25423174      -0.90711138       0.75794649
H        2.32526166      -0.08152669      -0.78719650
H        0.63251892       1.07927901       1.30815443
H       -0.50340299      -1.94132276      -0.21811482
H       -0.80079937      -1.33305038       1.42224638
H       -2.13202405       0.58811427       0.49918709
H       -2.40179641      -0.45214682      -0.91919298
H       -0.45181752       1.77035921      -0.92646930
H       -0.25185285       0.34113707      -1.93527656
15
Frame=16 idx=001707 GeodesicLength=1.6584871366731033 rxn_smarts="[C:1]([C:2]1([H:9])[C:3]([H:10])([H:11])[C:4]([H:12])([H:13])[C:5]1([H:14])[H:15])([H:6])([H:7])[H:8]>>[C:1](=[C:2]1[C:3]([H:10])([H:11])[C:4]([H:12])([H:13])[C:5]1([H:14])[H:15])([H:7])[H:8].[H:6][H:9]"
C        1.85423326      -0.07151654       0.17930523
C        0.43749451       0.01779386       0.15211164
C       -0.63718846      -1.03840068       0.37928085
C       -1.64068091      -0.03540597      -0.24189450
C       -0.44205863       0.67645194      -0.91590044
H        1.75646221       1.39586296       1.27643791
H        2.25659182      -0.91562218       0.74348477
H        2.30929934      -0.11997930      -0.80950768
H        0.57912441       1.12664517       1.32900442
H       -0.48491146      -1.92576545      -0.23963316
H       -0.78818860      -1.35342597       1.41226759
H       -2.10809815       0.59710199       0.51431972
H       -2.40770562      -0.43814655      -0.90169490
H       -0.44200658       1.76673742      -0.95001861
H       -0.24236714       0.31766930      -1.92756283
