10
Frame=0 idx=009381 GeodesicLength=0.0 rxn_smarts="[O:1]=[C:2]([C:3]([C:4]#[C:5][H:10])([H:8])[H:9])[C:6]#[N:7]>>[C:3](=[C:4]=[C:5]([N+:7]#[C-:6])[H:10])([H:8])[H:9].[O+:1]#[C-:2]"
O       -2.60361166      -0.45219001       0.04286579
C       -1.54853175       0.00997539       0.16231953
C        0.12850971      -1.09768928      -0.56895555
C        1.16315283      -0.30182832      -0.26807818
C        1.44991126       0.83091724       0.27496806
C       -0.92285418       1.23713433       0.71346373
N        0.24537404       1.55714922       0.75885400
H       -0.22452513      -1.15377383      -1.59552351
H       -0.06315797      -1.98079583       0.03495358
H        2.37573285       1.35110109       0.44513254
10
Frame=1 idx=009381 GeodesicLength=0.1244239774091212 rxn_smarts="[O:1]=[C:2]([C:3]([C:4]#[C:5][H:10])([H:8])[H:9])[C:6]#[N:7]>>[C:3](=[C:4]=[C:5]([N+:7]#[C-:6])[H:10])([H:8])[H:9].[O+:1]#[C-:2]"
O       -2.61358083      -0.46611300       0.06861087
C       -1.55526032      -0.01198528       0.18833508
C        0.12528955      -1.09625364      -0.57335589
C        1.16228621      -0.30486275      -0.25829965
C        1.45881844       0.82432646       0.28242446
C       -0.93354301       1.27471399       0.68512074
N        0.23249036       1.58894711       0.74403007
H       -0.21197313      -1.14312931      -1.60594206
H       -0.05660303      -1.99485343       0.01032656
H        2.39207577       1.32920984       0.45874980
10
Frame=2 idx=009381 GeodesicLength=0.24875896154874605 rxn_smarts="[O:1]=[C:2]([C:3]([C:4]#[C:5][H:10])([H:8])[H:9])[C:6]#[N:7]>>[C:3](=[C:4]=[C:5]([N+:7]#[C-:6])[H:10])([H:8])[H:9].[O+:1]#[C-:2]"
O       -2.62307648      -0.47891251       0.09306344
C       -1.56161629      -0.03249362       0.21238455
C        0.12207461      -1.09501779      -0.57745628
C        1.16138924      -0.30856607      -0.24745449
C        1.46765799       0.81725849       0.29038914
C       -0.94387632       1.30895131       0.66073837
N        0.21935160       1.62083713       0.72867441
H       -0.19819318      -1.13284811      -1.61607990
H       -0.05132097      -2.00793254      -0.01380035
H        2.40760980       1.30872370       0.46954111
10
Frame=3 idx=009381 GeodesicLength=0.3728914315584049 rxn_smarts="[O:1]=[C:2]([C:3]([C:4]#[C:5][H:10])([H:8])[H:9])[C:6]#[N:7]>>[C:3](=[C:4]=[C:5]([N+:7]#[C-:6])[H:10])([H:8])[H:9].[O+:1]#[C-:2]"
O       -2.63227446      -0.49103961       0.11704044
C       -1.56775798      -0.05185747       0.23443929
C        0.11884761      -1.09385340      -0.58148800
C        1.16029559      -0.31223315      -0.23680275
C        1.47638361       0.81064962       0.29702259
C       -0.95402535       1.34098568       0.63939325
N        0.20598699       1.65262341       0.71334964
H       -0.18359675      -1.12370137      -1.62597605
H       -0.04656768      -2.01976956      -0.03701944
H        2.42270844       1.28819587       0.48004103
10
Frame=4 idx=009381 GeodesicLength=0.4968049499970133 rxn_smarts="[O:1]=[C:2]([C:3]([C:4]#[C:5][H:10])([H:8])[H:9])[C:6]#[N:7]>>[C:3](=[C:4]=[C:5]([N+:7]#[C-:6])[H:10])([H:8])[H:9].[O+:1]#[C-:2]"
O       -2.64119228      -0.50285780       0.14133966
C       -1.57363283      -0.07064279       0.25537579
C        0.11558041      -1.09269336      -0.58563421
C        1.15899258      -0.31577767      -0.22655475
C        1.48506805       0.80426144       0.30271946
C       -0.96416602       1.37204752       0.61917960
N        0.19234715       1.68424260       0.69810361
H       -0.16849070      -1.11532064      -1.63573830
H       -0.04204160      -2.03063059      -0.05977901
H        2.43753525       1.26737128       0.49098814
10
Frame=5 idx=009381 GeodesicLength=0.6206802765122283 rxn_smarts="[O:1]=[C:2]([C:3]([C:4]#[C:5][H:10])([H:8])[H:9])[C:6]#[N:7]>>[C:3](=[C:4]=[C:5]([N+:7]#[C-:6])[H:10])([H:8])[H:9].[O+:1]#[C-:2]"
O       -2.64990275      -0.51424128       0.16584685
C       -1.57923150      -0.08908607       0.27549741
C        0.11226740      -1.09153736      -0.58991883
C        1.15749553      -0.31919771      -0.21674747
C        1.49380339       0.79802627       0.30753902
C       -0.97412500       1.40236315       0.60005225
N        0.17819861       1.71570103       0.68280804
H       -0.15291326      -1.10768626      -1.64537751
H       -0.03766364      -2.04062786      -0.08213940
H        2.45207122       1.24628609       0.50243963
10
Frame=6 idx=009381 GeodesicLength=0.7444748169711337 rxn_smarts="[O:1]=[C:2]([C:3]([C:4]#[C:5][H:10])([H:8])[H:9])[C:6]#[N:7]>>[C:3](=[C:4]=[C:5]([N+:7]#[C-:6])[H:10])([H:8])[H:9].[O+:1]#[C-:2]"
O       -2.65813742      -0.52579295       0.19188035
C       -1.58431138      -0.10767930       0.29582790
C        0.10886907      -1.09024145      -0.59463242
C        1.15579222      -0.32231322      -0.20780453
C        1.50264977       0.79174000       0.31175030
C       -0.98432248       1.43264553       0.58021958
N        0.16366995       1.74776035       0.66632726
H       -0.13737649      -1.10022892      -1.65506079
H       -0.03308730      -2.04989071      -0.10470816
H        2.46625406       1.22400068       0.51620052
10
Frame=7 idx=009381 GeodesicLength=0.8682346237802245 rxn_smarts="[O:1]=[C:2]([C:3]([C:4]#[C:5][H:10])([H:8])[H:9])[C:6]#[N:7]>>[C:3](=[C:4]=[C:5]([N+:7]#[C-:6])[H:10])([H:8])[H:9].[O+:1]#[C-:2]"
O       -2.66598339      -0.53726325       0.21888893
C       -1.58890849      -0.12649065       0.31635223
C        0.10538820      -1.08883658      -0.59966586
C        1.15388872      -0.32522859      -0.19943844
C        1.51166636       0.78519924       0.31580998
C       -0.99480440       1.46295230       0.55962387
N        0.14874411       1.78010732       0.64954067
H       -0.12169159      -1.09295686      -1.66473105
H       -0.02843673      -2.05848170      -0.12741557
H        2.48013722       1.20099877       0.53103524
10
Frame=8 idx=009381 GeodesicLength=0.9920514487772087 rxn_smarts="[O:1]=[C:2]([C:3]([C:4]#[C:5][H:10])([H:8])[H:9])[C:6]#[N:7]>>[C:3](=[C:4]=[C:5]([N+:7]#[C-:6])[H:10])([H:8])[H:9].[O+:1]#[C-:2]"
O       -2.67359878      -0.54840041       0.24616750
C       -1.59313052      -0.14559885       0.33698385
C        0.10183678      -1.08735279      -0.60485818
C        1.15178162      -0.32813931      -0.19112339
C        1.52089725       0.77802889       0.32056710
C       -1.00560649       1.49325203       0.53832720
N        0.13336614       1.81253147       0.63332261
H       -0.10554657      -1.08576352      -1.67427931
H       -0.02391384      -2.06649084      -0.15024432
H        2.49391441       1.17793332       0.54513694
10
Frame=9 idx=009381 GeodesicLength=1.115517924090049 rxn_smarts="[O:1]=[C:2]([C:3]([C:4]#[C:5][H:10])([H:8])[H:9])[C:6]#[N:7]>>[C:3](=[C:4]=[C:5]([N+:7]#[C-:6])[H:10])([H:8])[H:9].[O+:1]#[C-:2]"
O       -2.68117828      -0.55894506       0.27301673
C       -1.59713491      -0.16502137       0.35753732
C        0.09821767      -1.08582616      -0.61007016
C        1.14942593      -0.33105994      -0.18267789
C        1.53032550       0.77025994       0.32606613
C       -1.01674828       1.52358784       0.51632027
N        0.11761459       1.84460367       0.61896585
H       -0.08872222      -1.07890340      -1.68359179
H       -0.01956971      -2.07390818      -0.17290602
H        2.50776971       1.15521265       0.55733957
10
Frame=10 idx=009381 GeodesicLength=1.2390614023501305 rxn_smarts="[O:1]=[C:2]([C:3]([C:4]#[C:5][H:10])([H:8])[H:9])[C:6]#[N:7]>>[C:3](=[C:4]=[C:5]([N+:7]#[C-:6])[H:10])([H:8])[H:9].[O+:1]#[C-:2]"
O       -2.68873070      -0.56895380       0.29951253
C       -1.60090621      -0.18492938       0.37817956
C        0.09452793      -1.08421168      -0.61532430
C        1.14683118      -0.33402961      -0.17400586
C        1.53998438       0.76168004       0.33270350
C       -1.02819919       1.55394222       0.49358001
N        0.10121542       1.87670710       0.60598816
H       -0.07123193      -1.07215218      -1.69264455
H       -0.01540340      -2.08076935      -0.19556662
H        2.52191252       1.13271664       0.56757758
10
Frame=11 idx=009381 GeodesicLength=1.3625550327670768 rxn_smarts="[O:1]=[C:2]([C:3]([C:4]#[C:5][H:10])([H:8])[H:9])[C:6]#[N:7]>>[C:3](=[C:4]=[C:5]([N+:7]#[C-:6])[H:10])([H:8])[H:9].[O+:1]#[C-:2]"
O       -2.69630862      -0.57839996       0.32557467
C       -1.60448725      -0.20541545       0.39894516
C        0.09076658      -1.08248701      -0.62060643
C        1.14397339      -0.33702664      -0.16506787
C        1.54986436       0.75226378       0.34057559
C       -1.03997483       1.58438147       0.46991076
N        0.08410797       1.90883835       0.59464455
H       -0.05304286      -1.06550800      -1.70139970
H       -0.01138794      -2.08707221      -0.21819555
H        2.53648920       1.11042568       0.57561883
10
Frame=12 idx=009381 GeodesicLength=1.4860223710728628 rxn_smarts="[O:1]=[C:2]([C:3]([C:4]#[C:5][H:10])([H:8])[H:9])[C:6]#[N:7]>>[C:3](=[C:4]=[C:5]([N+:7]#[C-:6])[H:10])([H:8])[H:9].[O+:1]#[C-:2]"
O       -2.70388137      -0.58731746       0.35136135
C       -1.60784739      -0.22658919       0.41993739
C        0.08692899      -1.08061178      -0.62595892
C        1.14084713      -0.33998276      -0.15597648
C        1.55998361       0.74203127       0.34959247
C       -1.05207348       1.61496598       0.44506699
N        0.06616117       1.94114592       0.58487263
H       -0.03423291      -1.05894556      -1.70985242
H       -0.00744615      -2.09279062      -0.24080933
H        2.55156041       1.08809421       0.58176632
10
Frame=13 idx=009381 GeodesicLength=1.609517233072031 rxn_smarts="[O:1]=[C:2]([C:3]([C:4]#[C:5][H:10])([H:8])[H:9])[C:6]#[N:7]>>[C:3](=[C:4]=[C:5]([N+:7]#[C-:6])[H:10])([H:8])[H:9].[O+:1]#[C-:2]"
O       -2.71130437      -0.59579319       0.37728812
C       -1.61085663      -0.24856887       0.44134466
C        0.08300121      -1.07853045      -0.63148953
C        1.13746728      -0.34276178      -0.14704576
C        1.57037827       0.73110129       0.35937666
C       -1.06448295       1.64575399       0.41873900
N        0.04720940       1.97388437       0.57631188
H       -0.01502563      -1.05244108      -1.71805157
H       -0.00344300      -2.09787244      -0.26345994
H        2.56705642       1.06522817       0.58698647
10
Frame=14 idx=009381 GeodesicLength=1.7329831793279402 rxn_smarts="[O:1]=[C:2]([C:3]([C:4]#[C:5][H:10])([H:8])[H:9])[C:6]#[N:7]>>[C:3](=[C:4]=[C:5]([N+:7]#[C-:6])[H:10])([H:8])[H:9].[O+:1]#[C-:2]"
O       -2.71854176      -0.60377721       0.40342725
C       -1.61347901      -0.27144598       0.46321401
C        0.07898139      -1.07621968      -0.63721888
C        1.13383673      -0.34530840      -0.13835619
C        1.58109243       0.71951125       0.36976449
C       -1.07718239       1.67678774       0.39075655
N        0.02711460       2.00710159       0.56904706
H        0.00452980      -1.04601654      -1.72599683
H        0.00067130      -2.10229832      -0.28611815
H        2.58297692       1.04166555       0.59148070
10
Frame=15 idx=009381 GeodesicLength=1.85644147868913 rxn_smarts="[O:1]=[C:2]([C:3]([C:4]#[C:5][H:10])([H:8])[H:9])[C:6]#[N:7]>>[C:3](=[C:4]=[C:5]([N+:7]#[C-:6])[H:10])([H:8])[H:9].[O+:1]#[C-:2]"
O       -2.72550343      -0.61124576       0.42994996
C       -1.61563734      -0.29533412       0.48562351
C        0.07486605      -1.07364736      -0.64318254
C        1.12996524      -0.34757461      -0.12998912
C        1.59216536       0.70725132       0.38066089
C       -1.09013669       1.70809568       0.36092803
N        0.00568135       2.04092848       0.56296997
H        0.02434291      -1.03961282      -1.73369536
H        0.00494144      -2.10605199      -0.30882296
H        2.59931510       1.01719119       0.59555763
10
Frame=16 idx=009381 GeodesicLength=1.979878434487881 rxn_smarts="[O:1]=[C:2]([C:3]([C:4]#[C:5][H:10])([H:8])[H:9])[C:6]#[N:7]>>[C:3](=[C:4]=[C:5]([N+:7]#[C-:6])[H:10])([H:8])[H:9].[O+:1]#[C-:2]"
O       -2.73215781      -0.61810925       0.45686547
C       -1.61730987      -0.32034992       0.50857654
C        0.07065969      -1.07079498      -0.64936934
C        1.12585169      -0.34955092      -0.12190148
C        1.60364136       0.69426590       0.39207759
C       -1.10329211       1.73970805       0.32911367
N       -0.01729721       2.07540904       0.55818638
H        0.04441188      -1.03318560      -1.74111875
H        0.00937616      -2.10912988      -0.33157386
H        2.61611622       0.99173755       0.59914378
