13
Frame=0 idx=002433 GeodesicLength=0.0 rxn_smarts="[C:1]1([H:7])([H:8])[C@@:2]2([H:9])[C@@:3]3([H:10])[C@:4]1([H:11])[C:5]([H:12])([H:13])[N:6]23>>[C:1]1([H:7])([H:8])[C:2]([H:9])([H:12])[N:6]2[C@:3]3([H:10])[C@@:4]1([H:11])[C@@:5]32[H:13]"
C        1.11929582      -0.55525351      -0.17411291
C        0.55682375      -0.23645111       1.21480610
C       -0.37969199       1.23788627      -0.24165100
C       -0.05734962      -0.01665837      -0.95296874
C       -1.25575074      -0.28508551       0.04919983
N       -0.67873269       0.67132057       0.99191174
H        1.31465954      -1.62338073      -0.30379591
H        2.01478741      -0.00697166      -0.46866626
H        1.24075585       0.08017090       2.00199636
H       -0.68045505       2.22402551      -0.58510566
H       -0.14683108      -0.13449221      -2.02819092
H       -0.75548717      -1.20173806       0.75175434
H       -2.29202399      -0.15337209      -0.25517692
13
Frame=1 idx=002433 GeodesicLength=0.0693825681435793 rxn_smarts="[C:1]1([H:7])([H:8])[C@@:2]2([H:9])[C@@:3]3([H:10])[C@:4]1([H:11])[C:5]([H:12])([H:13])[N:6]23>>[C:1]1([H:7])([H:8])[C:2]([H:9])([H:12])[N:6]2[C@:3]3([H:10])[C@@:4]1([H:11])[C@@:5]32[H:13]"
C        1.11908401      -0.55601452      -0.17781086
C        0.55517659      -0.22349249       1.20679043
C       -0.37390970       1.23332956      -0.23264233
C       -0.06111095      -0.02001868      -0.95512900
C       -1.25818073      -0.28658043       0.04135914
N       -0.69145859       0.66351259       0.99743559
H        1.31029787      -1.62541641      -0.30230435
H        2.01688676      -0.01165868      -0.47228141
H        1.23561250       0.09985646       1.99369062
H       -0.66032394       2.22577483      -0.56869340
H       -0.14936179      -0.13110008      -2.03107993
H       -0.74828307      -1.21000993       0.76376333
H       -2.29442896      -0.15818221      -0.26309782
13
Frame=2 idx=002433 GeodesicLength=0.1387705903334291 rxn_smarts="[C:1]1([H:7])([H:8])[C@@:2]2([H:9])[C@@:3]3([H:10])[C@:4]1([H:11])[C:5]([H:12])([H:13])[N:6]23>>[C:1]1([H:7])([H:8])[C:2]([H:9])([H:12])[N:6]2[C@:3]3([H:10])[C@@:4]1([H:11])[C@@:5]32[H:13]"
C        1.11885535      -0.55672830      -0.18147138
C        0.55338122      -0.21070303       1.19871628
C       -0.36828916       1.22878792      -0.22386124
C       -0.06482087      -0.02329776      -0.95735405
C       -1.26062431      -0.28778138       0.03350232
N       -0.70377340       0.65572642       1.00268765
H        1.30595888      -1.62735123      -0.30084432
H        2.01899897      -0.01628405      -0.47567905
H        1.23027806       0.11913820       1.98539035
H       -0.64048856       2.22726291      -0.55231579
H       -0.15184271      -0.12775428      -2.03398146
H       -0.74074461      -1.21822031       0.77608159
H       -2.29688886      -0.16279513      -0.27087091
13
Frame=3 idx=002433 GeodesicLength=0.20815782329230034 rxn_smarts="[C:1]1([H:7])([H:8])[C@@:2]2([H:9])[C@@:3]3([H:10])[C@:4]1([H:11])[C:5]([H:12])([H:13])[N:6]23>>[C:1]1([H:7])([H:8])[C:2]([H:9])([H:12])[N:6]2[C@:3]3([H:10])[C@@:4]1([H:11])[C@@:5]32[H:13]"
C        1.11860740      -0.55739212      -0.18509210
C        0.55144391      -0.19809733       1.19059010
C       -0.36282745       1.22426492      -0.21531432
C       -0.06848443      -0.02649790      -0.95963774
C       -1.26308736      -0.28867911       0.02561964
N       -0.71567703       0.64795915       1.00767094
H        1.30164097      -1.62917908      -0.29942180
H        2.02112007      -0.02084486      -0.47885074
H        1.22476511       0.13799766       1.97710102
H       -0.62096389       2.22848581      -0.53599429
H       -0.15427476      -0.12445261      -2.03688717
H       -0.73285482      -1.22636429       0.78872452
H       -2.29940771      -0.16720024      -0.27850808
13
Frame=4 idx=002433 GeodesicLength=0.27755582111412247 rxn_smarts="[C:1]1([H:7])([H:8])[C@@:2]2([H:9])[C@@:3]3([H:10])[C@:4]1([H:11])[C:5]([H:12])([H:13])[N:6]23>>[C:1]1([H:7])([H:8])[C:2]([H:9])([H:12])[N:6]2[C@:3]3([H:10])[C@@:4]1([H:11])[C@@:5]32[H:13]"
C        1.11833615      -0.55800897      -0.18867623
C        0.54936468      -0.18568694       1.18241979
C       -0.35752815       1.21977079      -0.20700448
C       -0.07210475      -0.02962501      -0.96198308
C       -1.26557931      -0.28928116       0.01770319
N       -0.72718610       0.64020676       1.01240083
H        1.29733914      -1.63090821      -0.29804970
H        2.02324515      -0.02533855      -0.48179778
H        1.21907596       0.15645935       1.96882051
H       -0.60171934       2.22947674      -0.51972150
H       -0.15665311      -0.12119997      -2.03980799
H       -0.72459768      -1.23445570       0.80171685
H       -2.30199264      -0.17140913      -0.28602039
13
Frame=5 idx=002433 GeodesicLength=0.3469712077293581 rxn_smarts="[C:1]1([H:7])([H:8])[C@@:2]2([H:9])[C@@:3]3([H:10])[C@:4]1([H:11])[C:5]([H:12])([H:13])[N:6]23>>[C:1]1([H:7])([H:8])[C:2]([H:9])([H:12])[N:6]2[C@:3]3([H:10])[C@@:4]1([H:11])[C@@:5]32[H:13]"
C        1.11803684      -0.55857961      -0.19222418
C        0.54714834      -0.17348097       1.17421442
C       -0.35239347       1.21530719      -0.19893157
C       -0.07568829      -0.03268248      -0.96438925
C       -1.26811042      -0.28959062       0.00974125
N       -0.73831667       0.63245660       1.01688507
H        1.29304730      -1.63253918      -0.29673478
H        2.02536952      -0.02976599      -0.48452149
H        1.21321989       0.17454626       1.96054683
H       -0.58272618       2.23024943      -0.50349035
H       -0.15898331      -0.11799418      -2.04274624
H       -0.71595293      -1.24250082       0.81508172
H       -2.30465062      -0.17542562      -0.29343141
13
Frame=6 idx=002433 GeodesicLength=0.41639705166997215 rxn_smarts="[C:1]1([H:7])([H:8])[C@@:2]2([H:9])[C@@:3]3([H:10])[C@:4]1([H:11])[C:5]([H:12])([H:13])[N:6]23>>[C:1]1([H:7])([H:8])[C:2]([H:9])([H:12])[N:6]2[C@:3]3([H:10])[C@@:4]1([H:11])[C@@:5]32[H:13]"
C        1.11770932      -0.55910465      -0.19573713
C        0.54479950      -0.16149070       1.16597873
C       -0.34741158       1.21088619      -0.19109889
C       -0.07923335      -0.03566947      -0.96685303
C       -1.27068292      -0.28959417       0.00172511
N       -0.74906894       0.62471213       1.02112932
H        1.28876164      -1.63407497      -0.29548731
H        2.02749323      -0.03412808      -0.48701442
H        1.20720396       0.19222777       1.95229102
H       -0.56402770       2.23080003      -0.48732847
H       -0.16126114      -0.11483428      -2.04569778
H       -0.70690162      -1.25049337       0.82884362
H       -2.30738040      -0.17923643      -0.30075076
13
Frame=7 idx=002433 GeodesicLength=0.4858316567677449 rxn_smarts="[C:1]1([H:7])([H:8])[C@@:2]2([H:9])[C@@:3]3([H:10])[C@:4]1([H:11])[C:5]([H:12])([H:13])[N:6]23>>[C:1]1([H:7])([H:8])[C:2]([H:9])([H:12])[N:6]2[C@:3]3([H:10])[C@@:4]1([H:11])[C@@:5]32[H:13]"
C        1.11734910      -0.55958630      -0.19921694
C        0.54231988      -0.14972249       1.15772018
C       -0.34258565       1.20650994      -0.18350394
C       -0.08274668      -0.03859020      -0.96937610
C       -1.27331014      -0.28929698      -0.00635602
N       -0.75946393       0.61696273       1.02514367
H        1.28447701      -1.63551950      -0.29431332
H        2.02961388      -0.03842565      -0.48927911
H        1.20103653       0.20952692       1.94405065
H       -0.54559016       2.23114497      -0.47122850
H       -0.16348573      -0.11171594      -2.04867051
H       -0.69742067      -1.25843832       0.84302539
H       -2.31019343      -0.18284917      -0.30799544
13
Frame=8 idx=002433 GeodesicLength=0.5552934961297844 rxn_smarts="[C:1]1([H:7])([H:8])[C@@:2]2([H:9])[C@@:3]3([H:10])[C@:4]1([H:11])[C:5]([H:12])([H:13])[N:6]23>>[C:1]1([H:7])([H:8])[C:2]([H:9])([H:12])[N:6]2[C@:3]3([H:10])[C@@:4]1([H:11])[C@@:5]32[H:13]"
C        1.11694974      -0.56003027      -0.20266586
C        0.53971131      -0.13817899       1.14944266
C       -0.33791685       1.20218424      -0.17614332
C       -0.08623045      -0.04144636      -0.97195870
C       -1.27599476      -0.28869811      -0.01451457
N       -0.76951944       0.60919447       1.02893505
H        1.28018051      -1.63688095      -0.29321940
H        2.03172382      -0.04267091      -0.49131890
H        1.19471844       0.22647176       1.93581555
H       -0.52739931       2.23129883      -0.45517512
H       -0.16565169      -0.10863296      -2.05166756
H       -0.68748107      -1.26634451       0.85765800
H       -2.31309027      -0.18626625      -0.31518784
13
Frame=9 idx=002433 GeodesicLength=0.6247891441658011 rxn_smarts="[C:1]1([H:7])([H:8])[C@@:2]2([H:9])[C@@:3]3([H:10])[C@:4]1([H:11])[C:5]([H:12])([H:13])[N:6]23>>[C:1]1([H:7])([H:8])[C:2]([H:9])([H:12])[N:6]2[C@:3]3([H:10])[C@@:4]1([H:11])[C@@:5]32[H:13]"
C        1.11650426      -0.56043853      -0.20608711
C        0.53697689      -0.12686358       1.14114996
C       -0.33340940       1.19790114      -0.16901467
C       -0.08969059      -0.04423954      -0.97460142
C       -1.27875363      -0.28780685      -0.02277030
N       -0.77925819       0.60138714       1.03250769
H        1.27586172      -1.63816258      -0.29220772
H        2.03381515      -0.04686504      -0.49314073
H        1.18825754       0.24309743       1.92757334
H       -0.50940576       2.23127249      -0.43914426
H       -0.16775762      -0.10557212      -2.05469057
H       -0.67705903      -1.27420871       0.87277957
H       -2.31608135      -0.18950126      -0.32235380
13
Frame=10 idx=002433 GeodesicLength=0.6942881590677239 rxn_smarts="[C:1]1([H:7])([H:8])[C@@:2]2([H:9])[C@@:3]3([H:10])[C@:4]1([H:11])[C:5]([H:12])([H:13])[N:6]23>>[C:1]1([H:7])([H:8])[C:2]([H:9])([H:12])[N:6]2[C@:3]3([H:10])[C@@:4]1([H:11])[C@@:5]32[H:13]"
C        1.11601215      -0.56081599      -0.20948116
C        0.53411618      -0.11578494       1.13284758
C       -0.32905045       1.19367910      -0.16211397
C       -0.09312668      -0.04696917      -0.97730448
C       -1.28158349      -0.28660451      -0.03112654
N       -0.78868474       0.59354638       1.03586655
H        1.27151268      -1.63937411      -0.29128848
H        2.03589293      -0.05101589      -0.49473697
H        1.18165511       0.25936677       1.91934281
H       -0.49167035       2.23106041      -0.42316908
H       -0.16979757      -0.10253607      -2.05774231
H       -0.66611352      -1.28201941       0.88840325
H       -2.31916224      -0.19253257      -0.32949719
13
Frame=11 idx=002433 GeodesicLength=0.7638330114382595 rxn_smarts="[C:1]1([H:7])([H:8])[C@@:2]2([H:9])[C@@:3]3([H:10])[C@:4]1([H:11])[C:5]([H:12])([H:13])[N:6]23>>[C:1]1([H:7])([H:8])[C:2]([H:9])([H:12])[N:6]2[C@:3]3([H:10])[C@@:4]1([H:11])[C@@:5]32[H:13]"
C        1.11546587      -0.56117013      -0.21285055
C        0.53113654      -0.10493720       1.12453468
C       -0.32484812       1.18951544      -0.15543423
C       -0.09654172      -0.04963225      -0.98006921
C       -1.28450041      -0.28509504      -0.03960283
N       -0.79782562       0.58564820       1.03901111
H        1.26711825      -1.64052282      -0.29046301
H        2.03794857      -0.05514333      -0.49611289
H        1.17491902       0.27532810       1.91110138
H       -0.47414905       2.23067765      -0.40722121
H       -0.17176074      -0.09949686      -2.06082895
H       -0.65461703      -1.28979448       0.90458262
H       -2.32234557      -0.19537728      -0.33664692
13
Frame=12 idx=002433 GeodesicLength=0.8333813494026514 rxn_smarts="[C:1]1([H:7])([H:8])[C@@:2]2([H:9])[C@@:3]3([H:10])[C@:4]1([H:11])[C:5]([H:12])([H:13])[N:6]23>>[C:1]1([H:7])([H:8])[C:2]([H:9])([H:12])[N:6]2[C@:3]3([H:10])[C@@:4]1([H:11])[C@@:5]32[H:13]"
C        1.11486506      -0.56150226      -0.21619973
C        0.52803609      -0.09433319       1.11621834
C       -0.32078268       1.18541674      -0.14897412
C       -0.09993514      -0.05223016      -0.98289888
C       -1.28750237      -0.28326396      -0.04821286
N       -0.80668320       0.57768968       1.04195193
H        1.26267059      -1.64161385      -0.28974602
H        2.03998625      -0.05924320      -0.49726365
H        1.16804854       0.29094227       1.90287574
H       -0.45689550       2.23011283      -0.39132544
H       -0.17364765      -0.09646693      -2.06395279
H       -0.64252991      -1.29749735       0.92133948
H       -2.32563008      -0.19801062      -0.34381201
13
Frame=13 idx=002433 GeodesicLength=0.9029804124712922 rxn_smarts="[C:1]1([H:7])([H:8])[C@@:2]2([H:9])[C@@:3]3([H:10])[C@:4]1([H:11])[C:5]([H:12])([H:13])[N:6]23>>[C:1]1([H:7])([H:8])[C:2]([H:9])([H:12])[N:6]2[C@:3]3([H:10])[C@@:4]1([H:11])[C@@:5]32[H:13]"
C        1.11419902      -0.56182213      -0.21953083
C        0.52481943      -0.08396424       1.10789575
C       -0.31686619       1.18138396      -0.14272333
C       -0.10330982      -0.05475744      -0.98579456
C       -1.29060253      -0.28111282      -0.05697574
N       -0.81528548       0.56964236       1.04468375
H        1.25814939      -1.64265953      -0.28913408
H        2.04199325      -0.06333934      -0.49819871
H        1.16104573       0.30625984       1.89463901
H       -0.43986417       2.22938508      -0.37544927
H       -0.17544724      -0.09341703      -2.06711785
H       -0.62980940      -1.30514946       0.93873123
H       -2.32902197      -0.20044925      -0.35102536
13
Frame=14 idx=002433 GeodesicLength=0.9725932621958105 rxn_smarts="[C:1]1([H:7])([H:8])[C@@:2]2([H:9])[C@@:3]3([H:10])[C@:4]1([H:11])[C:5]([H:12])([H:13])[N:6]23>>[C:1]1([H:7])([H:8])[C:2]([H:9])([H:12])[N:6]2[C@:3]3([H:10])[C@@:4]1([H:11])[C@@:5]32[H:13]"
C        1.11346636      -0.56213516      -0.22284720
C        0.52148695      -0.07383873       1.09957191
C       -0.31308408       1.17742217      -0.13667633
C       -0.10666519      -0.05721239      -0.98875985
C       -1.29380391      -0.27862670      -0.06590441
N       -0.82364029       0.56150090       1.04721066
H        1.25354267      -1.64366816      -0.28863697
H        2.04397427      -0.06743966      -0.49891480
H        1.15391447       0.32125044       1.88641073
H       -0.42310610       2.22848539      -0.35961308
H       -0.17715269      -0.09034404      -2.07032934
H       -0.61640946      -1.31271898       0.95678808
H       -2.33252299      -0.20267506      -0.35829938
13
Frame=15 idx=002433 GeodesicLength=1.0422189062355927 rxn_smarts="[C:1]1([H:7])([H:8])[C@@:2]2([H:9])[C@@:3]3([H:10])[C@:4]1([H:11])[C:5]([H:12])([H:13])[N:6]23>>[C:1]1([H:7])([H:8])[C:2]([H:9])([H:12])[N:6]2[C@:3]3([H:10])[C@@:4]1([H:11])[C@@:5]32[H:13]"
C        1.11266288      -0.56244891      -0.22615185
C        0.51804233      -0.06395927       1.09124657
C       -0.30942697       1.17353649      -0.13082463
C       -0.10999943      -0.05958909      -0.99179677
C       -1.29711148      -0.27579112      -0.07501608
N       -0.83175837       0.55325039       1.04953229
H        1.24883610      -1.64464918      -0.28826059
H        2.04592651      -0.07155907      -0.49941129
H        1.14665682       0.33589885       1.87819791
H       -0.40665711       2.22741388      -0.34382994
H       -0.17875298      -0.08723562      -2.07359025
H       -0.60228241      -1.32019229       0.97555632
H       -2.33613589      -0.20467506      -0.36565167
13
Frame=16 idx=002433 GeodesicLength=1.1118537319323212 rxn_smarts="[C:1]1([H:7])([H:8])[C@@:2]2([H:9])[C@@:3]3([H:10])[C@:4]1([H:11])[C:5]([H:12])([H:13])[N:6]23>>[C:1]1([H:7])([H:8])[C:2]([H:9])([H:12])[N:6]2[C@:3]3([H:10])[C@@:4]1([H:11])[C@@:5]32[H:13]"
C        1.11178356      -0.56277198      -0.22944817
C        0.51448831      -0.05432861       1.08292050
C       -0.30588672       1.16973058      -0.12515888
C       -0.11331123      -0.06188175      -0.99490847
C       -1.30053050      -0.27259134      -0.08432933
N       -0.83965191       0.54487277       1.05164695
H        1.24401290      -1.64561357      -0.28801068
H        2.04784740      -0.07571397      -0.49968878
H        1.13927458       0.35019260       1.87000814
H       -0.39055145       2.22617281      -0.32810918
H       -0.18023689      -0.08407918      -2.07690483
H       -0.58737456      -1.32755188       0.99508445
H       -2.33986348      -0.20643649      -0.37310173
