12
Frame=0 idx=005748 GeodesicLength=0.0 rxn_smarts="[C:1]([C@@:2]1([C:5](=[O:6])[H:12])[C:3]([H:10])([H:11])[O:4]1)([H:7])([H:8])[H:9]>>[C:1]([C@@:2]1([C-:5]([O:6][H:11])[H:12])[C:3]([H:10])=[O+:4]1)([H:7])([H:8])[H:9]"
C       -1.00054970      -1.16870929       0.00583062
C       -0.01342623      -0.17975949       0.52806442
C       -0.11273143       1.31285047       0.18872774
O       -0.45305059       0.73802719       1.47303928
C        1.25837837       0.11884104      -0.08128734
O        1.15425804       0.18610875      -1.37119554
H       -1.18552041      -1.90727686       0.78863975
H       -1.94441713      -0.68080067      -0.23933559
H       -0.60965422      -1.67539805      -0.87418551
H        0.67143365       2.06206564       0.31677368
H        0.04825288       0.86499361      -1.17920595
H        2.18702678       0.32905761       0.44413441
12
Frame=1 idx=005748 GeodesicLength=0.08807088339082475 rxn_smarts="[C:1]([C@@:2]1([C:5](=[O:6])[H:12])[C:3]([H:10])([H:11])[O:4]1)([H:7])([H:8])[H:9]>>[C:1]([C@@:2]1([C-:5]([O:6][H:11])[H:12])[C:3]([H:10])=[O+:4]1)([H:7])([H:8])[H:9]"
C       -1.00322135      -1.16536660       0.00598285
C       -0.01634978      -0.17395241       0.52336712
C       -0.12364160       1.31642274       0.18558487
O       -0.44541672       0.74552002       1.47352761
C        1.26524765       0.10252777      -0.07642117
O        1.18007347       0.16913884      -1.36639332
H       -1.15370688      -1.92427989       0.77658121
H       -1.95875612      -0.68385331      -0.20345040
H       -0.63894572      -1.65158805      -0.89682673
H        0.65917156       2.06863526       0.30917338
H        0.05557667       0.86367895      -1.19631001
H        2.17996883       0.33311669       0.46518459
12
Frame=2 idx=005748 GeodesicLength=0.1761100062612614 rxn_smarts="[C:1]([C@@:2]1([C:5](=[O:6])[H:12])[C:3]([H:10])([H:11])[O:4]1)([H:7])([H:8])[H:9]>>[C:1]([C@@:2]1([C-:5]([O:6][H:11])[H:12])[C:3]([H:10])=[O+:4]1)([H:7])([H:8])[H:9]"
C       -1.00575422      -1.16195357       0.00610409
C       -0.01919939      -0.16797756       0.51871033
C       -0.13487566       1.32014475       0.18259418
O       -0.43778185       0.75312962       1.47396277
C        1.27206213       0.08574477      -0.07112783
O        1.20578814       0.15139013      -1.36093699
H       -1.12168054      -1.94074485       0.76267124
H       -1.97198187      -0.68769361      -0.16701716
H       -0.66873943      -1.62681514      -0.91843014
H        0.64669275       2.07527442       0.30129816
H        0.06298551       0.86240738      -1.21341149
H        2.17248444       0.33709367       0.48558283
12
Frame=3 idx=005748 GeodesicLength=0.2640202688435983 rxn_smarts="[C:1]([C@@:2]1([C:5](=[O:6])[H:12])[C:3]([H:10])([H:11])[O:4]1)([H:7])([H:8])[H:9]>>[C:1]([C@@:2]1([C-:5]([O:6][H:11])[H:12])[C:3]([H:10])=[O+:4]1)([H:7])([H:8])[H:9]"
C       -1.00812631      -1.15846399       0.00618848
C       -0.02193372      -0.16184558       0.51407451
C       -0.14645232       1.32399254       0.17982819
O       -0.43009040       0.76077721       1.47436670
C        1.27880512       0.06851327      -0.06544297
O        1.23129722       0.13289145      -1.35484162
H       -1.08970099      -1.95646986       0.74698071
H       -1.98396176      -0.69229686      -0.13033665
H       -0.69883347      -1.60127550      -0.93878470
H        0.63397569       2.08194881       0.29322212
H        0.07039347       0.86122842      -1.23045805
H        2.16462747       0.34100008       0.50520328
12
Frame=4 idx=005748 GeodesicLength=0.3518955452863456 rxn_smarts="[C:1]([C@@:2]1([C:5](=[O:6])[H:12])[C:3]([H:10])([H:11])[O:4]1)([H:7])([H:8])[H:9]>>[C:1]([C@@:2]1([C-:5]([O:6][H:11])[H:12])[C:3]([H:10])=[O+:4]1)([H:7])([H:8])[H:9]"
C       -1.01032880      -1.15490401       0.00623597
C       -0.02453254      -0.15556429       0.50945320
C       -0.15840061       1.32798561       0.17732411
O       -0.42232995       0.76844454       1.47477885
C        1.28547572       0.05082685      -0.05937214
O        1.25658449       0.11362941      -1.34813777
H       -1.05790898      -1.97139720       0.72957206
H       -1.99464915      -0.69763322      -0.09353281
H       -0.72911181      -1.57508286      -0.95783047
H        0.62098000       2.08868699       0.28497373
H        0.07777848       0.86018950      -1.24746251
H        2.15644316       0.34481867       0.52399777
12
Frame=5 idx=005748 GeodesicLength=0.4397799386053899 rxn_smarts="[C:1]([C@@:2]1([C:5](=[O:6])[H:12])[C:3]([H:10])([H:11])[O:4]1)([H:7])([H:8])[H:9]>>[C:1]([C@@:2]1([C-:5]([O:6][H:11])[H:12])[C:3]([H:10])=[O+:4]1)([H:7])([H:8])[H:9]"
C       -1.01236703      -1.15129649       0.00624656
C       -0.02697647      -0.14913706       0.50483865
C       -0.17072758       1.33214988       0.17511721
O       -0.41447150       0.77612386       1.47523678
C        1.29206839       0.03269175      -0.05291418
O        1.28163291       0.09359455      -1.34085400
H       -1.02644648      -1.98549949       0.71050768
H       -2.00400622      -0.70369818      -0.05672686
H       -0.75949947      -1.54836348      -0.97552646
H        0.60769320       2.09553897       0.27658278
H        0.08513029       0.85933485      -1.26444599
H        2.14796997       0.34856086       0.54193783
12
Frame=6 idx=005748 GeodesicLength=0.527505429069191 rxn_smarts="[C:1]([C@@:2]1([C:5](=[O:6])[H:12])[C:3]([H:10])([H:11])[O:4]1)([H:7])([H:8])[H:9]>>[C:1]([C@@:2]1([C-:5]([O:6][H:11])[H:12])[C:3]([H:10])=[O+:4]1)([H:7])([H:8])[H:9]"
C       -1.01421513      -1.14757106       0.00621577
C       -0.02923408      -0.14255240       0.50018416
C       -0.18349470       1.33638883       0.17319414
O       -0.40648660       0.78375203       1.47564681
C        1.29859846       0.01412919      -0.04603676
O        1.30645466       0.07277588      -1.33289027
H       -0.99533767      -1.99864674       0.68975521
H       -2.01203641      -0.71047814      -0.01989591
H       -0.78993858      -1.52101941      -0.99182608
H        0.59401938       2.10238945       0.26799136
H        0.09241354       0.85861307      -1.28135547
H        2.13925713       0.35221930       0.55901707
12
Frame=7 idx=005748 GeodesicLength=0.6152566712640767 rxn_smarts="[C:1]([C@@:2]1([C:5](=[O:6])[H:12])[C:3]([H:10])([H:11])[O:4]1)([H:7])([H:8])[H:9]>>[C:1]([C@@:2]1([C-:5]([O:6][H:11])[H:12])[C:3]([H:10])=[O+:4]1)([H:7])([H:8])[H:9]"
C       -1.01585793      -1.14375294       0.00614175
C       -0.03130482      -0.13580434       0.49548106
C       -0.19670915       1.34078523       0.17159307
O       -0.39840153       0.79138292       1.47605604
C        1.30503155      -0.00490429      -0.03873046
O        1.33104025       0.05108074      -1.32428752
H       -0.96459279      -2.01086786       0.66737779
H       -2.01867471      -0.71792539       0.01689216
H       -0.82040515      -1.49318570      -1.00676105
H        0.57992556       2.10933766       0.25926669
H        0.09966349       0.85809214      -1.29823322
H        2.13028524       0.35576184       0.57520368
12
Frame=8 idx=005748 GeodesicLength=0.7029977446994556 rxn_smarts="[C:1]([C@@:2]1([C:5](=[O:6])[H:12])[C:3]([H:10])([H:11])[O:4]1)([H:7])([H:8])[H:9]>>[C:1]([C@@:2]1([C-:5]([O:6][H:11])[H:12])[C:3]([H:10])=[O+:4]1)([H:7])([H:8])[H:9]"
C       -1.01730297      -1.13986745       0.00601882
C       -0.03313456      -0.12891184       0.49070627
C       -0.21038839       1.34531442       0.17038752
O       -0.39012806       0.79891332       1.47652099
C        1.31140277      -0.02434905      -0.03103875
O        1.35536364       0.02862562      -1.31511150
H       -0.93457231      -2.02204313       0.64361307
H       -2.02391802      -0.72599911       0.05333116
H       -0.85067669      -1.46512259      -1.02023772
H        0.56539443       2.11639146       0.25046144
H        0.10678350       0.85784416      -1.31508822
H        2.12117665       0.35920419       0.59043691
12
Frame=9 idx=005748 GeodesicLength=0.7907221121830798 rxn_smarts="[C:1]([C@@:2]1([C:5](=[O:6])[H:12])[C:3]([H:10])([H:11])[O:4]1)([H:7])([H:8])[H:9]>>[C:1]([C@@:2]1([C-:5]([O:6][H:11])[H:12])[C:3]([H:10])=[O+:4]1)([H:7])([H:8])[H:9]"
C       -1.01852731      -1.13591353       0.00585319
C       -0.03469614      -0.12187170       0.48582755
C       -0.22455190       1.34998223       0.16963616
O       -0.38163998       0.80631040       1.47705113
C        1.31769804      -0.04420850      -0.02297636
O        1.37939406       0.00540906      -1.30537926
H       -0.90538754      -2.03211460       0.61863338
H       -2.02773642      -0.73459839       0.08920411
H       -0.88062491      -1.43700460      -1.03223176
H        0.55038002       2.12356022       0.24164419
H        0.11372569       0.85792592      -1.33191115
H        2.11196638       0.36252349       0.60464883
12
Frame=10 idx=005748 GeodesicLength=0.8783656096623098 rxn_smarts="[C:1]([C@@:2]1([C:5](=[O:6])[H:12])[C:3]([H:10])([H:11])[O:4]1)([H:7])([H:8])[H:9]>>[C:1]([C@@:2]1([C-:5]([O:6][H:11])[H:12])[C:3]([H:10])=[O+:4]1)([H:7])([H:8])[H:9]"
C       -1.01948320      -1.13186109       0.00563656
C       -0.03594378      -0.11468804       0.48078782
C       -0.23924352       1.35474725       0.16942107
O       -0.37288707       0.81348310       1.47763958
C        1.32392274      -0.06446653      -0.01460065
O        1.40311574      -0.01849759      -1.29511753
H       -0.87726355      -2.04094290       0.59270135
H       -2.03011382      -0.74357867       0.12425867
H       -0.90998741      -1.40903374      -1.04269704
H        0.53479254       2.13079780       0.23287903
H        0.12038920       0.85838721      -1.34866044
H        2.10270212       0.36565320       0.61775157
12
Frame=11 idx=005748 GeodesicLength=0.9659826440635512 rxn_smarts="[C:1]([C@@:2]1([C:5](=[O:6])[H:12])[C:3]([H:10])([H:11])[O:4]1)([H:7])([H:8])[H:9]>>[C:1]([C@@:2]1([C-:5]([O:6][H:11])[H:12])[C:3]([H:10])=[O+:4]1)([H:7])([H:8])[H:9]"
C       -1.02018996      -1.12772637       0.00536953
C       -0.03686825      -0.10733961       0.47556396
C       -0.25446791       1.35963356       0.16974292
O       -0.36386256       0.82045767       1.47828603
C        1.33008202      -0.08511833      -0.00586442
O        1.42657102      -0.04315287      -1.28431681
H       -0.85014812      -2.04861714       0.56588654
H       -2.03111848      -0.75292280       0.15851054
H       -0.93884087      -1.38124888      -1.05174468
H        0.51861060       2.13816411       0.22417712
H        0.12680039       0.85926538      -1.36540163
H        2.09343213       0.36860527       0.62979091
12
Frame=12 idx=005748 GeodesicLength=1.0535974780188495 rxn_smarts="[C:1]([C@@:2]1([C:5](=[O:6])[H:12])[C:3]([H:10])([H:11])[O:4]1)([H:7])([H:8])[H:9]>>[C:1]([C@@:2]1([C-:5]([O:6][H:11])[H:12])[C:3]([H:10])=[O+:4]1)([H:7])([H:8])[H:9]"
C       -1.02062851      -1.12349307       0.00504281
C       -0.03745625      -0.09980619       0.47011325
C       -0.27025768       1.36463625       0.17060483
O       -0.35455967       0.82724536       1.47895754
C        1.33617607      -0.10616904       0.00326779
O        1.44981975      -0.06861477      -1.27293754
H       -0.82401931      -2.05517660       0.53822501
H       -2.03077613      -0.76262664       0.19205416
H       -0.96720378      -1.35359070      -1.05946553
H        0.50175491       2.14567698       0.21550273
H        0.13298284       0.86057725      -1.38216738
H        2.08416776       0.37134116       0.64080232
12
Frame=13 idx=005748 GeodesicLength=1.141241538203187 rxn_smarts="[C:1]([C@@:2]1([C:5](=[O:6])[H:12])[C:3]([H:10])([H:11])[O:4]1)([H:7])([H:8])[H:9]>>[C:1]([C@@:2]1([C-:5]([O:6][H:11])[H:12])[C:3]([H:10])=[O+:4]1)([H:7])([H:8])[H:9]"
C       -1.02078135      -1.11915413       0.00465517
C       -0.03767444      -0.09207594       0.46439157
C       -0.28664126       1.36975083       0.17207499
O       -0.34495155       0.83380687       1.47966961
C        1.34221373      -0.12761326       0.01277495
O        1.47287048      -0.09488311      -1.26101089
H       -0.79896975      -2.06059660       0.50994306
H       -2.02912355      -0.77255429       0.22469631
H       -0.99494653      -1.32624143      -1.06589044
H        0.48415996       2.15334839       0.20693333
H        0.13886904       0.86239068      -1.39897850
H        2.07497523       0.37382198       0.65074083
12
Frame=14 idx=005748 GeodesicLength=1.2287750604271053 rxn_smarts="[C:1]([C@@:2]1([C:5](=[O:6])[H:12])[C:3]([H:10])([H:11])[O:4]1)([H:7])([H:8])[H:9]>>[C:1]([C@@:2]1([C-:5]([O:6][H:11])[H:12])[C:3]([H:10])=[O+:4]1)([H:7])([H:8])[H:9]"
C       -1.02063821      -1.11469321       0.00419717
C       -0.03750565      -0.08411821       0.45833362
C       -0.30361920       1.37493978       0.17416518
O       -0.33500558       0.84013029       1.48034540
C        1.34817313      -0.14941780       0.02268629
O        1.49574625      -0.12199577      -1.24846341
H       -0.77498513      -2.06488337       0.48108774
H       -2.02617652      -0.78270424       0.25646327
H       -1.02209921      -1.29918520      -1.07106580
H        0.46577748       2.16116912       0.19846096
H        0.14446815       0.86472374      -1.41582985
H        2.06586449       0.37603487       0.65961943
12
Frame=15 idx=005748 GeodesicLength=1.3164018093096763 rxn_smarts="[C:1]([C@@:2]1([C:5](=[O:6])[H:12])[C:3]([H:10])([H:11])[O:4]1)([H:7])([H:8])[H:9]>>[C:1]([C@@:2]1([C-:5]([O:6][H:11])[H:12])[C:3]([H:10])=[O+:4]1)([H:7])([H:8])[H:9]"
C       -1.02017868      -1.11010031       0.00366195
C       -0.03692929      -0.07590839       0.45190785
C       -0.32124272       1.38023534       0.17691013
O       -0.32473310       0.84624009       1.48101859
C        1.35407089      -0.17161278       0.03302650
O        1.51851059      -0.15005382      -1.23531485
H       -0.75202883      -2.06810853       0.45176365
H       -2.02198092      -0.79300335       0.28737698
H       -1.04864362      -1.27244243      -1.07510736
H        0.44650191       2.16920150       0.19010292
H        0.14976254       0.86764454      -1.43281665
H        2.05689123       0.37790816       0.66747028
12
Frame=16 idx=005748 GeodesicLength=1.4039630107978796 rxn_smarts="[C:1]([C@@:2]1([C:5](=[O:6])[H:12])[C:3]([H:10])([H:11])[O:4]1)([H:7])([H:8])[H:9]>>[C:1]([C@@:2]1([C-:5]([O:6][H:11])[H:12])[C:3]([H:10])=[O+:4]1)([H:7])([H:8])[H:9]"
C       -1.01939063      -1.10535299       0.00303933
C       -0.03592232      -0.06741299       0.44504414
C       -0.33950724       1.38558678       0.18033802
O       -0.31409814       0.85211382       1.48160965
C        1.35987742      -0.19416040       0.04382338
O        1.54116892      -0.17911247      -1.22148085
H       -0.73010090      -2.07026500       0.42202200
H       -2.01654252      -0.80342803       0.31742446
H       -1.07458640      -1.24602236      -1.07804040
H        0.42628146       2.17742383       0.18187268
H        0.15474714       0.87118254      -1.44992696
H        2.04807320       0.37944727       0.67427456
