12
Frame=0 idx=011803 GeodesicLength=0.0 rxn_smarts="[N:1]#[C:2][C@@:3]1([H:8])[O:4][C@@:5]2([H:9])[C:6]([H:10])([H:11])[C@@:7]12[H:12]>>[N:1]1=[C-:2][C@@:3]2([H:8])[O+:4]=[C:5]([H:9])[C@@:7]2([H:12])[C:6]1([H:10])[H:11]"
N        1.50484296       1.46326286      -0.29103996
C        1.87055000       0.43198916       0.21905989
C        0.99650630      -0.72408199       0.30462166
O        0.07943257      -0.67290436       1.54354175
C       -0.95388871      -0.69385936       0.75150569
C       -0.39535658       1.07771385      -0.65971518
C       -0.33950285      -0.41543798      -0.51803975
H        1.40880341      -1.73041842       0.27348572
H       -1.95552946      -0.85829219       1.13424756
H       -0.87532364       1.43902850      -1.56711898
H       -0.69755723       1.63803149       0.21996878
H       -0.64297678      -0.95503155      -1.41051723
12
Frame=1 idx=011803 GeodesicLength=0.04954284253788338 rxn_smarts="[N:1]#[C:2][C@@:3]1([H:8])[O:4][C@@:5]2([H:9])[C:6]([H:10])([H:11])[C@@:7]12[H:12]>>[N:1]1=[C-:2][C@@:3]2([H:8])[O+:4]=[C:5]([H:9])[C@@:7]2([H:12])[C:6]1([H:10])[H:11]"
N        1.51364132       1.46277757      -0.29537401
C        1.87367775       0.43124613       0.21819205
C        0.99533546      -0.72417045       0.30658954
O        0.07855249      -0.67064929       1.54135566
C       -0.95677733      -0.67645008       0.74616667
C       -0.40172768       1.07241470      -0.64838476
C       -0.33319403      -0.42384803      -0.52487554
H        1.40914326      -1.72991583       0.27663921
H       -1.95748704      -0.85762648       1.12328446
H       -0.88984325       1.43199480      -1.55230670
H       -0.69332836       1.64794586       0.22485112
H       -0.63799259      -0.96371889      -1.41613771
12
Frame=2 idx=011803 GeodesicLength=0.09908575878151715 rxn_smarts="[N:1]#[C:2][C@@:3]1([H:8])[O:4][C@@:5]2([H:9])[C:6]([H:10])([H:11])[C@@:7]12[H:12]>>[N:1]1=[C-:2][C@@:3]2([H:8])[O+:4]=[C:5]([H:9])[C@@:7]2([H:12])[C:6]1([H:10])[H:11]"
N        1.52245537       1.46233633      -0.29958400
C        1.87668770       0.43052355       0.21742492
C        0.99402888      -0.72423339       0.30846608
O        0.07763606      -0.66849917       1.53919167
C       -0.95954853      -0.65950365       0.74084370
C       -0.40806530       1.06717075      -0.63703441
C       -0.32720899      -0.43199129      -0.53132289
H        1.40939613      -1.72936664       0.27953297
H       -1.95910945      -0.85708152       1.11237370
H       -0.90394340       1.42480271      -1.53769311
H       -0.68918536       1.65801491       0.22924862
H       -0.63314312      -0.97217260      -1.42144725
12
Frame=3 idx=011803 GeodesicLength=0.14864150330093184 rxn_smarts="[N:1]#[C:2][C@@:3]1([H:8])[O:4][C@@:5]2([H:9])[C:6]([H:10])([H:11])[C@@:7]12[H:12]>>[N:1]1=[C-:2][C@@:3]2([H:8])[O+:4]=[C:5]([H:9])[C@@:7]2([H:12])[C:6]1([H:10])[H:11]"
N        1.53130098       1.46191741      -0.30366608
C        1.87958446       0.42982511       0.21675739
C        0.99259379      -0.72426139       0.31024707
O        0.07667535      -0.66644169       1.53702637
C       -0.96222100      -0.64304837       0.73550965
C       -0.41436357       1.06197619      -0.62566549
C       -0.32152904      -0.43986994      -0.53741465
H        1.40957298      -1.72874662       0.28217988
H       -1.96042800      -0.85657070       1.10157339
H       -0.91765852       1.41746233      -1.52323658
H       -0.68513957       1.66814440       0.23316604
H       -0.62838786      -0.98038672      -1.42647699
12
Frame=4 idx=011803 GeodesicLength=0.19818805912692397 rxn_smarts="[N:1]#[C:2][C@@:3]1([H:8])[O:4][C@@:5]2([H:9])[C:6]([H:10])([H:11])[C@@:7]12[H:12]>>[N:1]1=[C-:2][C@@:3]2([H:8])[O+:4]=[C:5]([H:9])[C@@:7]2([H:12])[C:6]1([H:10])[H:11]"
N        1.54013973       1.46156559      -0.30753362
C        1.88236842       0.42914143       0.21617000
C        0.99104857      -0.72426778       0.31191238
O        0.07571248      -0.66449544       1.53485741
C       -0.96478008      -0.62711129       0.73020509
C       -0.42063146       1.05681801      -0.61428857
C       -0.31614626      -0.44750864      -0.54316345
H        1.40970006      -1.72806668       0.28453640
H       -1.96147157      -0.85596374       1.09091305
H       -0.93091735       1.40998576      -1.50900141
H       -0.68127289       1.67828119       0.23662233
H       -0.62374965      -0.98837842      -1.43122961
12
Frame=5 idx=011803 GeodesicLength=0.24773427436256346 rxn_smarts="[N:1]#[C:2][C@@:3]1([H:8])[O:4][C@@:5]2([H:9])[C:6]([H:10])([H:11])[C@@:7]12[H:12]>>[N:1]1=[C-:2][C@@:3]2([H:8])[O+:4]=[C:5]([H:9])[C@@:7]2([H:12])[C:6]1([H:10])[H:11]"
N        1.54899020       1.46129441      -0.31118916
C        1.88505215       0.42848351       0.21567152
C        0.98940342      -0.72426180       0.31347231
O        0.07475378      -0.66266620       1.53270276
C       -0.96723825      -0.61171771       0.72491295
C       -0.42686393       1.05172024      -0.60292090
C       -0.31104353      -0.45492134      -0.54861099
H        1.40978643      -1.72735029       0.28662969
H       -1.96227469      -0.85523384       1.08046354
H       -0.94376518       1.40242090      -1.49499121
H       -0.67758790       1.68839870       0.23961975
H       -0.61921250      -0.99616658      -1.43576026
12
Frame=6 idx=011803 GeodesicLength=0.2972919638367629 rxn_smarts="[N:1]#[C:2][C@@:3]1([H:8])[O:4][C@@:5]2([H:9])[C:6]([H:10])([H:11])[C@@:7]12[H:12]>>[N:1]1=[C-:2][C@@:3]2([H:8])[O+:4]=[C:5]([H:9])[C@@:7]2([H:12])[C:6]1([H:10])[H:11]"
N        1.55787046       1.46109481      -0.31464702
C        1.88764273       0.42784906       0.21525702
C        0.98766643      -0.72424010       0.31492887
O        0.07380087      -0.66094024       1.53055577
C       -0.96960703      -0.59686352       0.71964054
C       -0.43305762       1.04667644      -0.59156383
C       -0.30620311      -0.46211689      -0.55377751
H        1.40983977      -1.72658797       0.28847035
H       -1.96287079      -0.85434307       1.07021247
H       -0.95624299       1.39477156      -1.48117775
H       -0.67408527       1.69845855       0.24218729
H       -0.61475345      -1.00375863      -1.44008620
12
Frame=7 idx=011803 GeodesicLength=0.34686123330822904 rxn_smarts="[N:1]#[C:2][C@@:3]1([H:8])[O:4][C@@:5]2([H:9])[C:6]([H:10])([H:11])[C@@:7]12[H:12]>>[N:1]1=[C-:2][C@@:3]2([H:8])[O+:4]=[C:5]([H:9])[C@@:7]2([H:12])[C:6]1([H:10])[H:11]"
N        1.56678938       1.46095938      -0.31792301
C        1.89015390       0.42723224       0.21492663
C        0.98585217      -0.72420714       0.31629278
O        0.07287387      -0.65931171       1.52842515
C       -0.97188307      -0.58253985       0.71439014
C       -0.43920812       1.04169928      -0.58022369
C       -0.30160097      -0.46910148      -0.55868115
H        1.40987076      -1.72579185       0.29007644
H       -1.96332079      -0.85329005       1.06015473
H       -0.96840576       1.38706307      -1.46755143
H       -0.67076239       1.70844719       0.24433414
H       -0.61035898      -1.01115908      -1.44422074
12
Frame=8 idx=011803 GeodesicLength=0.39644589890477133 rxn_smarts="[N:1]#[C:2][C@@:3]1([H:8])[O:4][C@@:5]2([H:9])[C:6]([H:10])([H:11])[C@@:7]12[H:12]>>[N:1]1=[C-:2][C@@:3]2([H:8])[O+:4]=[C:5]([H:9])[C@@:7]2([H:12])[C:6]1([H:10])[H:11]"
N        1.57577509       1.46087987      -0.32102389
C        1.89257913       0.42664524       0.21468120
C        0.98395035      -0.72415194       0.31756093
O        0.07194534      -0.65776632       1.52630089
C       -0.97409573      -0.56872873       0.70915000
C       -0.44530726       1.03678559      -0.56891366
C       -0.29723018      -0.47587213      -0.56335572
H        1.40986739      -1.72494248       0.29145978
H       -1.96361591      -0.85209366       1.05035265
H       -0.98025406       1.37929974      -1.45408334
H       -0.66760435       1.71831358       0.24606621
H       -0.60600981      -1.01836876      -1.44819507
12
Frame=9 idx=011803 GeodesicLength=0.4460165420456568 rxn_smarts="[N:1]#[C:2][C@@:3]1([H:8])[O:4][C@@:5]2([H:9])[C:6]([H:10])([H:11])[C@@:7]12[H:12]>>[N:1]1=[C-:2][C@@:3]2([H:8])[O+:4]=[C:5]([H:9])[C@@:7]2([H:12])[C:6]1([H:10])[H:11]"
N        1.58479966       1.46087567      -0.32392416
C        1.89492517       0.42607521       0.21448377
C        0.98197548      -0.72407323       0.31872246
O        0.07105353      -0.65630189       1.52418091
C       -0.97622688      -0.55542399       0.70397141
C       -0.45135652       1.03191507      -0.55761999
C       -0.29308092      -0.48244587      -0.56778598
H        1.40983617      -1.72402905       0.29259467
H       -1.96380863      -0.85071933       1.04074849
H       -0.99172677       1.37147911      -1.44081267
H       -0.66465409       1.72803520       0.24741317
H       -0.60173619      -1.02538690      -1.45197208
12
Frame=10 idx=011803 GeodesicLength=0.4956050465528075 rxn_smarts="[N:1]#[C:2][C@@:3]1([H:8])[O:4][C@@:5]2([H:9])[C:6]([H:10])([H:11])[C@@:7]12[H:12]>>[N:1]1=[C-:2][C@@:3]2([H:8])[O+:4]=[C:5]([H:9])[C@@:7]2([H:12])[C:6]1([H:10])[H:11]"
N        1.59389412       1.46094742      -0.32661741
C        1.89720769       0.42552479       0.21436066
C        0.97993429      -0.72398570       0.31979326
O        0.07020420      -0.65491714       1.52208702
C       -0.97830035      -0.54260088       0.69882845
C       -0.45736403       1.02712483      -0.54636967
C       -0.28914790      -0.48882819      -0.57201290
H        1.40978560      -1.72309157       0.29351222
H       -1.96389189      -0.84922021       1.03142152
H       -1.00287769       1.36365257      -1.42775642
H       -0.66190768       1.73763040       0.24836370
H       -0.59753637      -1.03223632      -1.45561043
12
Frame=11 idx=011803 GeodesicLength=0.545208921709273 rxn_smarts="[N:1]#[C:2][C@@:3]1([H:8])[O:4][C@@:5]2([H:9])[C:6]([H:10])([H:11])[C@@:7]12[H:12]>>[N:1]1=[C-:2][C@@:3]2([H:8])[O+:4]=[C:5]([H:9])[C@@:7]2([H:12])[C:6]1([H:10])[H:11]"
N        1.60307192       1.46108570      -0.32913372
C        1.89942929       0.42499116       0.21429670
C        0.97782703      -0.72388156       0.32077653
O        0.06939433      -0.65359536       1.52001698
C       -0.98032075      -0.53023351       0.69373857
C       -0.46332295       1.02240766      -0.53515710
C       -0.28541820      -0.49502228      -0.57604313
H        1.40970723      -1.72211570       0.29422320
H       -1.96389494      -0.84762018       1.02232970
H       -1.01372748       1.35581694      -1.41488558
H       -0.65934857       1.74708619       0.24894248
H       -0.59339690      -1.03891906      -1.45910462
12
Frame=12 idx=011803 GeodesicLength=0.5948353199116221 rxn_smarts="[N:1]#[C:2][C@@:3]1([H:8])[O:4][C@@:5]2([H:9])[C:6]([H:10])([H:11])[C@@:7]12[H:12]>>[N:1]1=[C-:2][C@@:3]2([H:8])[O+:4]=[C:5]([H:9])[C@@:7]2([H:12])[C:6]1([H:10])[H:11]"
N        1.61234933       1.46127637      -0.33149534
C        1.90159713       0.42447211       0.21428726
C        0.97565681      -0.72375642       0.32167766
O        0.06862575      -0.65232504       1.51797234
C       -0.98229860      -0.51830064       0.68870095
C       -0.46922870       1.01776783      -0.52398191
C       -0.28187717      -0.50103050      -0.57988551
H        1.40959743      -1.72109711       0.29474321
H       -1.96384402      -0.84594961       1.01346015
H       -1.02431046       1.34797894      -1.40218320
H       -0.65696215       1.75640245       0.24916504
H       -0.58930536      -1.04543836      -1.46246065
12
Frame=13 idx=011803 GeodesicLength=0.6445028655960459 rxn_smarts="[N:1]#[C:2][C@@:3]1([H:8])[O:4][C@@:5]2([H:9])[C:6]([H:10])([H:11])[C@@:7]12[H:12]>>[N:1]1=[C-:2][C@@:3]2([H:8])[O+:4]=[C:5]([H:9])[C@@:7]2([H:12])[C:6]1([H:10])[H:11]"
N        1.62174408       1.46151035      -0.33371856
C        1.90371861       0.42396702       0.21433639
C        0.97342754      -0.72361097       0.32250500
O        0.06789920      -0.65109680       1.51595896
C       -0.98424538      -0.50677547       0.68371588
C       -0.47508440       1.01321363      -0.51284576
C       -0.27851483      -0.50685860      -0.58355626
H        1.40945516      -1.72004280       0.29508953
H       -1.96374295      -0.84423885       1.00480361
H       -1.03466001       1.34015356      -1.38963372
H       -0.65473868       1.76558524       0.24903932
H       -0.58525833      -1.05180633      -1.46569438
12
Frame=14 idx=011803 GeodesicLength=0.6941947343272006 rxn_smarts="[N:1]#[C:2][C@@:3]1([H:8])[O:4][C@@:5]2([H:9])[C:6]([H:10])([H:11])[C@@:7]12[H:12]>>[N:1]1=[C-:2][C@@:3]2([H:8])[O+:4]=[C:5]([H:9])[C@@:7]2([H:12])[C:6]1([H:10])[H:11]"
N        1.63125911       1.46183189      -0.33581806
C        1.90580775       0.42346409       0.21448366
C        0.97115931      -0.72350338       0.32329954
O        0.06725913      -0.64995724       1.51408599
C       -0.98615049      -0.49568560       0.67877749
C       -0.48091859       1.00883668      -0.50179049
C       -0.27532679      -0.51256480      -0.58707232
H        1.40930706      -1.71907248       0.29530008
H       -1.96357746      -0.84256934       0.99640772
H       -1.04486447       1.33248028      -1.37735135
H       -0.65268752       1.77485058       0.24858163
H       -0.58126706      -1.05811070      -1.46890392
12
Frame=15 idx=011803 GeodesicLength=0.7438038757010002 rxn_smarts="[N:1]#[C:2][C@@:3]1([H:8])[O:4][C@@:5]2([H:9])[C:6]([H:10])([H:11])[C@@:7]12[H:12]>>[N:1]1=[C-:2][C@@:3]2([H:8])[O+:4]=[C:5]([H:9])[C@@:7]2([H:12])[C:6]1([H:10])[H:11]"
N        1.64092498       1.46214965      -0.33781094
C        1.90781451       0.42304094       0.21459392
C        0.96877437      -0.72324934       0.32394437
O        0.06653997      -0.64874621       1.51206799
C       -0.98805132      -0.48494599       0.67396414
C       -0.48662712       1.00437760      -0.49072450
C       -0.27233034      -0.51799045      -0.59043133
H        1.40904509      -1.71782957       0.29527698
H       -1.96347391      -0.84075765       0.98813059
H       -1.05468912       1.32453333      -1.36496194
H       -0.65067715       1.78352096       0.24780178
H       -0.57724995      -1.06410328      -1.47185106
12
Frame=16 idx=011803 GeodesicLength=0.7935319583901628 rxn_smarts="[N:1]#[C:2][C@@:3]1([H:8])[O:4][C@@:5]2([H:9])[C:6]([H:10])([H:11])[C@@:7]12[H:12]>>[N:1]1=[C-:2][C@@:3]2([H:8])[O+:4]=[C:5]([H:9])[C@@:7]2([H:12])[C:6]1([H:10])[H:11]"
N        1.65069492       1.46243980      -0.33964170
C        1.90979091       0.42255673       0.21479896
C        0.96636988      -0.72301306       0.32455393
O        0.06594855      -0.64758074       1.51010318
C       -0.98991538      -0.47452375       0.66916273
C       -0.49233974       1.00005326      -0.47971054
C       -0.26947412      -0.52325862      -0.59363027
H        1.40879603      -1.71661354       0.29513391
H       -1.96327035      -0.83896848       0.98005027
H       -1.06438633       1.31671189      -1.35280120
H       -0.64890491       1.79216492       0.24668111
H       -0.57330945      -1.06996840      -1.47470037
