17
Frame=0 idx=010650 GeodesicLength=0.0 rxn_smarts="[C:1]([C@@:2]1([H:11])[O:3][C@@:4]2([H:12])[C:5]([H:13])([H:14])[C:6]([H:15])([H:16])[C@@:7]12[H:17])([H:8])([H:9])[H:10]>>[C:1]([C@@:7]1([H:17])[C:2]([H:11])=[O+:3][C-:4]([H:12])[C:5]([H:13])([H:14])[C:6]1([H:15])[H:16])([H:8])([H:9])[H:10]"
C        1.54794566       0.79935647      -0.12778783
C        1.03234611      -0.90764604       0.02184900
O        0.48795632      -1.25238783       1.14521234
C       -0.95711091      -1.13374280       1.18627724
C       -1.43158735       0.17278443       0.63919336
C       -1.09253103       0.22772739      -0.85038549
C        0.25817215      -0.35747556      -1.04396703
H        0.83667521       1.62163203      -0.22217258
H        1.94905929       0.83286820       0.88275029
H        2.35287157       0.88064244      -0.85109501
H        1.96547124      -1.41619662      -0.20255261
H       -1.22536371      -1.31470814       2.22492465
H       -0.99468719       1.07596249       1.11736281
H       -2.50982430       0.24427441       0.78851781
H       -1.80962024      -0.37067530      -1.41215080
H       -1.12700791       1.24642627      -1.27088080
H        0.71723516      -0.34884182      -2.02509528
17
Frame=1 idx=010650 GeodesicLength=0.07646598926258276 rxn_smarts="[C:1]([C@@:2]1([H:11])[O:3][C@@:4]2([H:12])[C:5]([H:13])([H:14])[C:6]([H:15])([H:16])[C@@:7]12[H:17])([H:8])([H:9])[H:10]>>[C:1]([C@@:7]1([H:17])[C:2]([H:11])=[O+:3][C-:4]([H:12])[C:5]([H:13])([H:14])[C:6]1([H:15])[H:16])([H:8])([H:9])[H:10]"
C        1.55742695       0.80892501      -0.14351221
C        1.04419002      -0.89898281       0.04643227
O        0.48650474      -1.23079394       1.17128407
C       -0.95503904      -1.13653050       1.16430670
C       -1.43939444       0.17714099       0.64247061
C       -1.09158033       0.23605890      -0.84536884
C        0.25590484      -0.36583653      -1.02145549
H        0.84279931       1.63140294      -0.20039054
H        2.00661216       0.85205792       0.84673840
H        2.33460416       0.90443613      -0.89565484
H        1.96657391      -1.42656261      -0.17730770
H       -1.26359529      -1.37031762       2.18077410
H       -1.00507945       1.07439811       1.13134281
H       -2.51848600       0.24204542       0.78803119
H       -1.80928379      -0.35328340      -1.41606693
H       -1.11226800       1.25572528      -1.26217271
H        0.70011026      -0.39988329      -2.00945088
17
Frame=2 idx=010650 GeodesicLength=0.15237341123155784 rxn_smarts="[C:1]([C@@:2]1([H:11])[O:3][C@@:4]2([H:12])[C:5]([H:13])([H:14])[C:6]([H:15])([H:16])[C@@:7]12[H:17])([H:8])([H:9])[H:10]>>[C:1]([C@@:7]1([H:17])[C:2]([H:11])=[O+:3][C-:4]([H:12])[C:5]([H:13])([H:14])[C:6]1([H:15])[H:16])([H:8])([H:9])[H:10]"
C        1.56645641       0.81795328      -0.15885225
C        1.05571390      -0.89018965       0.07103840
O        0.48383885      -1.20981755       1.19653636
C       -0.95225288      -1.13804755       1.14347922
C       -1.44740104       0.18134602       0.64545988
C       -1.09029933       0.24442023      -0.84048701
C        0.25385771      -0.37371440      -0.99888821
H        0.85014205       1.64046355      -0.17649774
H        2.06363616       0.86929523       0.80832034
H        2.31367912       0.92830405      -0.93955500
H        1.96696068      -1.43696705      -0.15126783
H       -1.29771339      -1.42358752       2.13431367
H       -1.01673540       1.07314997       1.14484803
H       -2.52739775       0.23891610       0.78681562
H       -1.80810135      -0.33615484      -1.42017662
H       -1.09734316       1.26496978      -1.25331759
H        0.68295943      -0.45033964      -1.99176928
17
Frame=3 idx=010650 GeodesicLength=0.2278186635938863 rxn_smarts="[C:1]([C@@:2]1([H:11])[O:3][C@@:4]2([H:12])[C:5]([H:13])([H:14])[C:6]([H:15])([H:16])[C@@:7]12[H:17])([H:8])([H:9])[H:10]>>[C:1]([C@@:7]1([H:17])[C:2]([H:11])=[O+:3][C-:4]([H:12])[C:5]([H:13])([H:14])[C:6]1([H:15])[H:16])([H:8])([H:9])[H:10]"
C        1.57502492       0.82646670      -0.17383364
C        1.06693046      -0.88128830       0.09565432
O        0.48007618      -1.18951995       1.22099062
C       -0.94887157      -1.13841252       1.12376228
C       -1.45555881       0.18541775       0.64814918
C       -1.08867611       0.25278289      -0.83574569
C        0.25202862      -0.38116474      -0.97631775
H        0.85882641       1.64872401      -0.15065118
H        2.11993471       0.88458422       0.76742112
H        2.29004856       0.95235504      -0.98259471
H        1.96667107      -1.44734066      -0.12447423
H       -1.32790710      -1.47453452       2.08581028
H       -1.02951384       1.07217670       1.15789142
H       -2.53648524       0.23502958       0.78487098
H       -1.80608907      -0.31931071      -1.42447110
H       -1.08224671       1.27413769      -1.24431883
H        0.66580750      -0.50010318      -1.97214308
17
Frame=4 idx=010650 GeodesicLength=0.3028913463740043 rxn_smarts="[C:1]([C@@:2]1([H:11])[O:3][C@@:4]2([H:12])[C:5]([H:13])([H:14])[C:6]([H:15])([H:16])[C@@:7]12[H:17])([H:8])([H:9])[H:10]>>[C:1]([C@@:7]1([H:17])[C:2]([H:11])=[O+:3][C-:4]([H:12])[C:5]([H:13])([H:14])[C:6]1([H:15])[H:16])([H:8])([H:9])[H:10]"
C        1.58312564       0.83448679      -0.18848598
C        1.07784889      -0.87229572       0.12027185
O        0.47532313      -1.16994491       1.24467181
C       -0.94499991      -1.13773033       1.10511946
C       -1.46381582       0.18937521       0.65053143
C       -1.08670075       0.26111607      -0.83114299
C        0.25041284      -0.38824304      -0.95378312
H        0.86897713       1.65608865      -0.12301429
H        2.17530377       0.89794390       0.72396230
H        2.26367581       0.97669102      -1.02456574
H        1.96574638      -1.45760783      -0.09695739
H       -1.35438544      -1.52318929       2.03547045
H       -1.04326647       1.07143599       1.17047871
H       -2.54567169       0.23052071       0.78220958
H       -1.80326553      -0.30277465      -1.42892858
H       -1.06699234       1.28319969      -1.23517739
H        0.64868437      -0.54907227      -1.95066011
17
Frame=5 idx=010650 GeodesicLength=0.3776561154217779 rxn_smarts="[C:1]([C@@:2]1([H:11])[O:3][C@@:4]2([H:12])[C:5]([H:13])([H:14])[C:6]([H:15])([H:16])[C@@:7]12[H:17])([H:8])([H:9])[H:10]>>[C:1]([C@@:7]1([H:17])[C:2]([H:11])=[O+:3][C-:4]([H:12])[C:5]([H:13])([H:14])[C:6]1([H:15])[H:16])([H:8])([H:9])[H:10]"
C        1.59073942       0.84203197      -0.20281811
C        1.08847708      -0.86324527       0.14487324
O        0.46968546      -1.15114797       1.26760589
C       -0.94072365      -1.13610740       1.08751279
C       -1.47211468       0.19324355       0.65260626
C       -1.08437608       0.26939042      -0.82669153
C        0.24900309      -0.39500002      -0.93133613
H        0.88070817       1.66248842      -0.09381987
H        2.22946258       0.90937811       0.67795036
H        2.23457833       1.00137922      -1.06519807
H        1.96424357      -1.46770404      -0.06876374
H       -1.37729433      -1.56955006       1.98351129
H       -1.05784041       1.07089744       1.18262183
H       -2.55487597       0.22552723       0.77885942
H       -1.79965877      -0.28657996      -1.43354458
H       -1.05162706       1.29213168      -1.22591842
H        0.63161325      -0.59713332      -1.92745063
17
Frame=6 idx=010650 GeodesicLength=0.4521809225518013 rxn_smarts="[C:1]([C@@:2]1([H:11])[O:3][C@@:4]2([H:12])[C:5]([H:13])([H:14])[C:6]([H:15])([H:16])[C@@:7]12[H:17])([H:8])([H:9])[H:10]>>[C:1]([C@@:7]1([H:17])[C:2]([H:11])=[O+:3][C-:4]([H:12])[C:5]([H:13])([H:14])[C:6]1([H:15])[H:16])([H:8])([H:9])[H:10]"
C        1.59785780       0.84911615      -0.21685638
C        1.09881471      -0.85415883       0.16943995
O        0.46325048      -1.13316178       1.28980927
C       -0.93612463      -1.13363026       1.07090677
C       -1.48039879       0.19704310       0.65437530
C       -1.08170310       0.27756852      -0.82238501
C        0.24778943      -0.40148173      -0.90900612
H        0.89413344       1.66783674      -0.06328352
H        2.28214754       0.91892695       0.62936234
H        2.20280132       1.02649416      -1.10423220
H        1.96220667      -1.47755719      -0.03993390
H       -1.39682856      -1.61363676       1.93008070
H       -1.07308019       1.07052709       1.19431080
H       -2.56401997       0.22017155       0.77486187
H       -1.79529622      -0.27076859      -1.43827856
H       -1.03618036       1.30089325      -1.21655370
H        0.61463040      -0.64418237      -1.90261761
17
Frame=7 idx=010650 GeodesicLength=0.5265269942659219 rxn_smarts="[C:1]([C@@:2]1([H:11])[O:3][C@@:4]2([H:12])[C:5]([H:13])([H:14])[C:6]([H:15])([H:16])[C@@:7]12[H:17])([H:8])([H:9])[H:10]>>[C:1]([C@@:7]1([H:17])[C:2]([H:11])=[O+:3][C-:4]([H:12])[C:5]([H:13])([H:14])[C:6]1([H:15])[H:16])([H:8])([H:9])[H:10]"
C        1.60446542       0.85575235      -0.23061414
C        1.10885697      -0.84506200       0.19395083
O        0.45610159      -1.11600877       1.31130375
C       -0.93126955      -1.13038336       1.05526183
C       -1.48861009       0.20079532       0.65584568
C       -1.07869105       0.28561463      -0.81822341
C        0.24675848      -0.40772650      -0.88682491
H        0.90935463       1.67207336      -0.03166872
H        2.33306306       0.92662041       0.57823794
H        2.16843708       1.05207189      -1.14138312
H        1.95968488      -1.48709745      -0.01051568
H       -1.41314469      -1.65545749       1.87531603
H       -1.08883198       1.07029637       1.20554061
H       -2.57302502       0.21456711       0.77026800
H       -1.79021053      -0.25538697      -1.44309811
H       -1.02070193       1.30944571      -1.20710887
H        0.59776274      -0.69011460      -1.87628771
17
Frame=8 idx=010650 GeodesicLength=0.6007996359676233 rxn_smarts="[C:1]([C@@:2]1([H:11])[O:3][C@@:4]2([H:12])[C:5]([H:13])([H:14])[C:6]([H:15])([H:16])[C@@:7]12[H:17])([H:8])([H:9])[H:10]>>[C:1]([C@@:7]1([H:17])[C:2]([H:11])=[O+:3][C-:4]([H:12])[C:5]([H:13])([H:14])[C:6]1([H:15])[H:16])([H:8])([H:9])[H:10]"
C        1.61055137       0.86195834      -0.24409948
C        1.11862022      -0.83599546       0.21839556
O        0.44834164      -1.09970492       1.33214404
C       -0.92620237      -1.12644893       1.04055350
C       -1.49671178       0.20453729       0.65703407
C       -1.07537331       0.29350601      -0.81422803
C        0.24589720      -0.41377583      -0.86483598
H        0.92644831       1.67517129       0.00078714
H        2.38194661       0.93249888       0.52465720
H        2.13161523       1.07813249      -1.17638341
H        1.95676038      -1.49630300       0.01945227
H       -1.42636987      -1.69505606       1.81933505
H       -1.10497516       1.07021392       1.21632925
H       -2.58184659       0.20883706       0.76513651
H       -1.78445922      -0.24047610      -1.44801424
H       -1.00527708       1.31777942      -1.19763732
H        0.58103442      -0.73487440      -1.84862612
17
Frame=9 idx=010650 GeodesicLength=0.6749651697812955 rxn_smarts="[C:1]([C@@:2]1([H:11])[O:3][C@@:4]2([H:12])[C:5]([H:13])([H:14])[C:6]([H:15])([H:16])[C@@:7]12[H:17])([H:8])([H:9])[H:10]>>[C:1]([C@@:7]1([H:17])[C:2]([H:11])=[O+:3][C-:4]([H:12])[C:5]([H:13])([H:14])[C:6]1([H:15])[H:16])([H:8])([H:9])[H:10]"
C        1.61610838       0.86774382      -0.25730618
C        1.12806472      -0.82697082       0.24270270
O        0.44001087      -1.08424689       1.35227981
C       -0.92099562      -1.12190476       1.02670823
C       -1.50463958       0.20825746       0.65794451
C       -1.07176682       0.30118503      -0.81037094
C        0.24518561      -0.41962357      -0.84305685
H        0.94548671       1.67711551       0.03364118
H        2.42839634       0.93657895       0.46882368
H        2.09265651       1.10463580      -1.20886581
H        1.95343742      -1.50506961       0.04984129
H       -1.43659804      -1.73233633       1.76230772
H       -1.12134274       1.07021177       1.22663119
H       -2.59039811       0.20302962       0.75954108
H       -1.77808265      -0.22611825      -1.45292226
H       -0.98996236       1.32581141      -1.18815032
H        0.56443934      -0.77829914      -1.81974902
17
Frame=10 idx=010650 GeodesicLength=0.7491193252866462 rxn_smarts="[C:1]([C@@:2]1([H:11])[O:3][C@@:4]2([H:12])[C:5]([H:13])([H:14])[C:6]([H:15])([H:16])[C@@:7]12[H:17])([H:8])([H:9])[H:10]>>[C:1]([C@@:7]1([H:17])[C:2]([H:11])=[O+:3][C-:4]([H:12])[C:5]([H:13])([H:14])[C:6]1([H:15])[H:16])([H:8])([H:9])[H:10]"
C        1.62112380       0.87312979      -0.27022069
C        1.13722564      -0.81806504       0.26682638
O        0.43123934      -1.06966783       1.37175239
C       -0.91566285      -1.11682856       1.01371188
C       -1.51237060       0.21200512       0.65860168
C       -1.06795449       0.30862133      -0.80670051
C        0.24459806      -0.42530993      -0.82156311
H        0.96646370       1.67792351       0.06667484
H        2.47214175       0.93899531       0.41098356
H        2.05187332       1.13152788      -1.23856478
H        1.94981877      -1.51345613       0.08055601
H       -1.44392041      -1.76730723       1.70439124
H       -1.13782778       1.07034261       1.23647285
H       -2.59866422       0.19728700       0.75357707
H       -1.77119954      -0.21239199      -1.45785760
H       -0.97489937       1.33353523      -1.17874963
H        0.54801488      -0.82034107      -1.78989157
17
Frame=11 idx=010650 GeodesicLength=0.8233562579863897 rxn_smarts="[C:1]([C@@:2]1([H:11])[O:3][C@@:4]2([H:12])[C:5]([H:13])([H:14])[C:6]([H:15])([H:16])[C@@:7]12[H:17])([H:8])([H:9])[H:10]>>[C:1]([C@@:7]1([H:17])[C:2]([H:11])=[O+:3][C-:4]([H:12])[C:5]([H:13])([H:14])[C:6]1([H:15])[H:16])([H:8])([H:9])[H:10]"
C        1.62558990       0.87813241      -0.28283253
C        1.14607838      -0.80927737       0.29078512
O        0.42207371      -1.05591508       1.39062367
C       -0.91021952      -1.11129561       1.00150840
C       -1.51985937       0.21577275       0.65901928
C       -1.06394414       0.31580453      -0.80321065
C        0.24411747      -0.43083278      -0.80034795
H        0.98942405       1.67764810       0.09955820
H        2.51299322       0.93971020       0.35128844
H        2.00942077       1.15877979      -1.26531274
H        1.94592854      -1.52138809       0.11157975
H       -1.44844994      -1.79998205       1.64563526
H       -1.15433182       1.07055768       1.24586761
H       -2.60657706       0.19160869       0.74726878
H       -1.76383009      -0.19930442      -1.46280345
H       -0.96013936       1.34093985      -1.16945945
H        0.53172526      -0.86095857      -1.75916774
17
Frame=12 idx=010650 GeodesicLength=0.897588043353025 rxn_smarts="[C:1]([C@@:2]1([H:11])[O:3][C@@:4]2([H:12])[C:5]([H:13])([H:14])[C:6]([H:15])([H:16])[C@@:7]12[H:17])([H:8])([H:9])[H:10]>>[C:1]([C@@:7]1([H:17])[C:2]([H:11])=[O+:3][C-:4]([H:12])[C:5]([H:13])([H:14])[C:6]1([H:15])[H:16])([H:8])([H:9])[H:10]"
C        1.62948136       0.88275152      -0.29517420
C        1.15456990      -0.80060869       0.31445358
O        0.41250929      -1.04294675       1.40881321
C       -0.90473089      -1.10533712       0.99005414
C       -1.52707118       0.21953721       0.65923090
C       -1.05975436       0.32267285      -0.79986860
C        0.24372686      -0.43615621      -0.77944855
H        1.01429031       1.67622616       0.13195764
H        2.55055060       0.93893974       0.29002667
H        1.96587833       1.18621508      -1.28888682
H        1.94172359      -1.52880209       0.14272612
H       -1.45029314      -1.83029142       1.58619232
H       -1.17075117       1.07077842       1.25478173
H       -2.61408069       0.18604590       0.74078324
H       -1.75599263      -0.18693256      -1.46762996
H       -0.94569805       1.34791852      -1.16030107
H        0.51564188      -0.90001056      -1.72771035
17
Frame=13 idx=010650 GeodesicLength=0.9720656692336673 rxn_smarts="[C:1]([C@@:2]1([H:11])[O:3][C@@:4]2([H:12])[C:5]([H:13])([H:14])[C:6]([H:15])([H:16])[C@@:7]12[H:17])([H:8])([H:9])[H:10]>>[C:1]([C@@:7]1([H:17])[C:2]([H:11])=[O+:3][C-:4]([H:12])[C:5]([H:13])([H:14])[C:6]1([H:15])[H:16])([H:8])([H:9])[H:10]"
C        1.63288234       0.88705959      -0.30715135
C        1.16284235      -0.79219516       0.33785403
O        0.40278458      -1.03078266       1.42644205
C       -0.89916183      -1.09909001       0.97929848
C       -1.53407896       0.22337828       0.65924075
C       -1.05559239       0.32924529      -0.79677652
C        0.24338124      -0.44136079      -0.75894573
H        1.04105400       1.67391883       0.16370352
H        2.58488550       0.93674830       0.22762314
H        1.92158398       1.21381395      -1.30916695
H        1.93744408      -1.53593512       0.17395054
H       -1.44942541      -1.85830181       1.52624606
H       -1.18708085       1.07118620       1.26330387
H       -2.62132343       0.18070156       0.73411184
H       -1.74800179      -0.17534168      -1.47252083
H       -0.93187013       1.35460048      -1.15140422
H        0.49967673      -0.93764526      -1.69580870
17
Frame=14 idx=010650 GeodesicLength=1.046566508524982 rxn_smarts="[C:1]([C@@:2]1([H:11])[O:3][C@@:4]2([H:12])[C:5]([H:13])([H:14])[C:6]([H:15])([H:16])[C@@:7]12[H:17])([H:8])([H:9])[H:10]>>[C:1]([C@@:7]1([H:17])[C:2]([H:11])=[O+:3][C-:4]([H:12])[C:5]([H:13])([H:14])[C:6]1([H:15])[H:16])([H:8])([H:9])[H:10]"
C        1.63571272       0.89104430      -0.31884616
C        1.17065494      -0.78391377       0.36089098
O        0.39265702      -1.01929826       1.44340137
C       -0.89360701      -1.09256044       0.96919167
C       -1.54075355       0.22713487       0.65906946
C       -1.05125604       0.33545803      -0.79380678
C        0.24309318      -0.44631052      -0.73876704
H        1.06962573       1.67058743       0.19436337
H        2.61559351       0.93314784       0.16414029
H        1.87691587       1.24152205      -1.32610230
H        1.93273677      -1.54249815       0.20510203
H       -1.44607250      -1.88386669       1.46597823
H       -1.20320994       1.07145923       1.27132374
H       -2.62805578       0.17536731       0.72736533
H       -1.73954726      -0.16452705      -1.47718833
H       -0.91837078       1.36080001      -1.14270479
H        0.48388311      -0.97354617      -1.66341107
17
Frame=15 idx=010650 GeodesicLength=1.121248418633382 rxn_smarts="[C:1]([C@@:2]1([H:11])[O:3][C@@:4]2([H:12])[C:5]([H:13])([H:14])[C:6]([H:15])([H:16])[C@@:7]12[H:17])([H:8])([H:9])[H:10]>>[C:1]([C@@:7]1([H:17])[C:2]([H:11])=[O+:3][C-:4]([H:12])[C:5]([H:13])([H:14])[C:6]1([H:15])[H:16])([H:8])([H:9])[H:10]"
C        1.63807311       0.89472828      -0.33014256
C        1.17822598      -0.77589028       0.38350148
O        0.38242659      -1.00847913       1.45968099
C       -0.88801456      -1.08582651       0.95959986
C       -1.54721560       0.23088360       0.65868364
C       -1.04702159       0.34129793      -0.79105554
C        0.24282332      -0.45108354      -0.71902070
H        1.09991097       1.66634391       0.22394332
H        2.64283030       0.92829206       0.10008023
H        1.83231806       1.26926030      -1.33956043
H        1.92793486      -1.54872588       0.23603856
H       -1.44022333      -1.90685682       1.40569762
H       -1.21917579       1.07174886       1.27888903
H       -2.63451284       0.17019080       0.72053060
H       -1.73104790      -0.15456670      -1.48178606
H       -0.90555870       1.36656421      -1.13428588
H        0.46822713      -1.00788109      -1.63079417
17
Frame=16 idx=010650 GeodesicLength=1.1961855076848065 rxn_smarts="[C:1]([C@@:2]1([H:11])[O:3][C@@:4]2([H:12])[C:5]([H:13])([H:14])[C:6]([H:15])([H:16])[C@@:7]12[H:17])([H:8])([H:9])[H:10]>>[C:1]([C@@:7]1([H:17])[C:2]([H:11])=[O+:3][C-:4]([H:12])[C:5]([H:13])([H:14])[C:6]1([H:15])[H:16])([H:8])([H:9])[H:10]"
C        1.63992188       0.89816428      -0.34108410
C        1.18546837      -0.76812517       0.40573244
O        0.37202295      -0.99826044       1.47541819
C       -0.88240019      -1.07895195       0.95056432
C       -1.55344044       0.23459588       0.65814160
C       -1.04282772       0.34680870      -0.78853082
C        0.24255403      -0.45566431      -0.69970593
H        1.13184677       1.66127177       0.25229950
H        2.66647612       0.92233874       0.03555211
H        1.78803323       1.29691678      -1.34975744
H        1.92289110      -1.55465928       0.26679585
H       -1.43193637      -1.92749714       1.34545298
H       -1.23498613       1.07202191       1.28608076
H       -2.64061581       0.16510535       0.71367264
H       -1.72239855      -0.14538274      -1.48636114
H       -0.89332949       1.37196918      -1.12618466
H        0.45272025      -1.04065156      -1.59808632
