11
Frame=0 idx=003052 GeodesicLength=0.0 rxn_smarts="[O:1]([C@@:2]1([H:8])[C:3]([H:9])([H:10])[C@:4]1([C:5]#[N:6])[H:11])[H:7]>>[O:1]([C:2](/[C:3](=[C:4](\[C:5]#[N:6])[H:11])[H:10])([H:8])[H:9])[H:7]"
O       -1.67359767       1.01062561      -1.13034452
C       -0.48949728       0.65130658      -0.68727646
C       -0.24279255      -0.72258202      -0.28065440
C        0.94098509      -1.02327317       0.51906506
C        1.39999781      -0.03910280       1.38496259
N        1.70901883       0.84720237       2.07312120
H       -1.76889175       1.96816705      -1.14161049
H        0.20950414       1.44128135      -0.41486899
H       -1.12399514      -0.77584816       0.40609902
H       -0.48268645      -1.44581022      -1.06447822
H        1.52195499      -1.91196664       0.33598518
11
Frame=1 idx=003052 GeodesicLength=0.09909012213623689 rxn_smarts="[O:1]([C@@:2]1([H:8])[C:3]([H:9])([H:10])[C@:4]1([C:5]#[N:6])[H:11])[H:7]>>[O:1]([C:2](/[C:3](=[C:4](\[C:5]#[N:6])[H:11])[H:10])([H:8])[H:9])[H:7]"
O       -1.66367283       0.98752219      -1.17994109
C       -0.50699403       0.65808055      -0.63622059
C       -0.24611501      -0.72626067      -0.28396936
C        0.94489100      -1.00146609       0.50198310
C        1.45767104      -0.02867764       1.35224584
N        1.79355476       0.81096469       2.08330907
H       -1.76323339       1.94231124      -1.24293208
H        0.11782138       1.47658681      -0.28196721
H       -1.14328425      -0.75866928       0.40834555
H       -0.47604351      -1.43651698      -1.08082139
H        1.48540483      -1.92387483       0.35996817
11
Frame=2 idx=003052 GeodesicLength=0.19630435136212815 rxn_smarts="[O:1]([C@@:2]1([H:8])[C:3]([H:9])([H:10])[C@:4]1([C:5]#[N:6])[H:11])[H:7]>>[O:1]([C:2](/[C:3](=[C:4](\[C:5]#[N:6])[H:11])[H:10])([H:8])[H:9])[H:7]"
O       -1.64705306       0.97014967      -1.22293586
C       -0.52783679       0.66040194      -0.58423839
C       -0.25036730      -0.73245917      -0.28907259
C        0.94424353      -0.97955706       0.48915480
C        1.51129933      -0.01235887       1.31331085
N        1.87783190       0.78386901       2.07604761
H       -1.73802171       1.92135871      -1.33108714
H        0.01306988       1.49636586      -0.14449097
H       -1.16738365      -0.75103766       0.40359524
H       -0.46216834      -1.42623176      -1.10358321
H        1.44638622      -1.93050068       0.39329968
11
Frame=3 idx=003052 GeodesicLength=0.29261896518538455 rxn_smarts="[O:1]([C@@:2]1([H:8])[C:3]([H:9])([H:10])[C@:4]1([C:5]#[N:6])[H:11])[H:7]>>[O:1]([C:2](/[C:3](=[C:4](\[C:5]#[N:6])[H:11])[H:10])([H:8])[H:9])[H:7]"
O       -1.62353469       0.96005328      -1.25975634
C       -0.55236156       0.65745882      -0.53030629
C       -0.25547377      -0.74191547      -0.29635424
C        0.93686998      -0.95886451       0.48383978
C        1.55881524       0.00888807       1.26995661
N        1.96594086       0.77101443       2.04557645
H       -1.69281285       1.90803324      -1.40381585
H       -0.10477969       1.49666027      -0.00164564
H       -1.19828802      -0.75514441       0.38878331
H       -0.43865288      -1.41379558      -1.13426721
H        1.40427737      -1.93238813       0.43798943
11
Frame=4 idx=003052 GeodesicLength=0.3888244106107996 rxn_smarts="[O:1]([C@@:2]1([H:8])[C:3]([H:9])([H:10])[C@:4]1([C:5]#[N:6])[H:11])[H:7]>>[O:1]([C:2](/[C:3](=[C:4](\[C:5]#[N:6])[H:11])[H:10])([H:8])[H:9])[H:7]"
O       -1.59266842       0.95825476      -1.28919705
C       -0.58072958       0.64804640      -0.47378643
C       -0.26079117      -0.75499547      -0.30608743
C        0.92118592      -0.94019381       0.48847381
C        1.60048500       0.03389723       1.22103903
N        2.05423859       0.77601460       1.98889551
H       -1.62931613       1.90423885      -1.45490921
H       -0.22991513       1.47481550       0.14003446
H       -1.23629146      -0.77188678       0.36156737
H       -0.40338916      -1.39768363      -1.17276188
H        1.35719153      -1.93050766       0.49673181
11
Frame=5 idx=003052 GeodesicLength=0.4860398348252251 rxn_smarts="[O:1]([C@@:2]1([H:8])[C:3]([H:9])([H:10])[C@:4]1([C:5]#[N:6])[H:11])[H:7]>>[O:1]([C:2](/[C:3](=[C:4](\[C:5]#[N:6])[H:11])[H:10])([H:8])[H:9])[H:7]"
O       -1.55512697       0.96463683      -1.30951234
C       -0.61303645       0.63134310      -0.41497803
C       -0.26582569      -0.77151282      -0.31772698
C        0.89725233      -0.92358016       0.50321644
C        1.63571628       0.05995603       1.16718189
N        2.13810464       0.79892782       1.90595986
H       -1.54915827       1.90967534      -1.48296186
H       -0.35626388       1.43220842       0.27458673
H       -1.28012435      -0.79961017       0.32190835
H       -0.35707271      -1.37730091      -1.21587139
H        1.30553508      -1.92474349       0.56819732
11
Frame=6 idx=003052 GeodesicLength=0.5852952239502669 rxn_smarts="[O:1]([C@@:2]1([H:8])[C:3]([H:9])([H:10])[C@:4]1([C:5]#[N:6])[H:11])[H:7]>>[O:1]([C:2](/[C:3](=[C:4](\[C:5]#[N:6])[H:11])[H:10])([H:8])[H:9])[H:7]"
O       -1.51233812       0.97726292      -1.32102654
C       -0.64762739       0.60757057      -0.35792022
C       -0.26989157      -0.79058829      -0.33051895
C        0.86925003      -0.90673118       0.52254821
C        1.66517166       0.08543790       1.10821664
N        2.21003078       0.83266699       1.80610121
H       -1.45848844       1.92176758      -1.48777151
H       -0.47609661       1.37343428       0.39462859
H       -1.32545208      -0.83253378       0.27424094
H       -0.30499440      -1.35467922      -1.25787935
H        1.25043612      -1.91360776       0.64938097
11
Frame=7 idx=003052 GeodesicLength=0.687609109355694 rxn_smarts="[O:1]([C@@:2]1([H:8])[C:3]([H:9])([H:10])[C@:4]1([C:5]#[N:6])[H:11])[H:7]>>[O:1]([C:2](/[C:3](=[C:4](\[C:5]#[N:6])[H:11])[H:10])([H:8])[H:9])[H:7]"
O       -1.46633620       0.99400017      -1.32384135
C       -0.68338103       0.57794897      -0.30461185
C       -0.27330129      -0.81140904      -0.34332653
C        0.84036387      -0.88872317       0.54185179
C        1.68761134       0.10888497       1.04780422
N        2.26826880       0.87179949       1.69669369
H       -1.35945565       1.93647504      -1.47462414
H       -0.58673772       1.30439575       0.49840055
H       -1.36995778      -0.86617458       0.22329137
H       -0.25252756      -1.33155006      -1.29521901
H        1.19545322      -1.89564754       0.73358126
11
Frame=8 idx=003052 GeodesicLength=0.7926962148429538 rxn_smarts="[O:1]([C@@:2]1([H:8])[C:3]([H:9])([H:10])[C@:4]1([C:5]#[N:6])[H:11])[H:7]>>[O:1]([C:2](/[C:3](=[C:4](\[C:5]#[N:6])[H:11])[H:10])([H:8])[H:9])[H:7]"
O       -1.41875528       1.01225922      -1.31956398
C       -0.71769017       0.54467998      -0.25768485
C       -0.27650341      -0.83317920      -0.35522763
C        0.81342227      -0.86926588       0.55723797
C        1.70324713       0.13033259       0.98896663
N        2.31174950       0.91078588       1.58791450
H       -1.25691444       1.94994685      -1.44806315
H       -0.68588238       1.23125264       0.58433283
H       -1.41211336      -0.89561535       0.17427213
H       -0.20525597      -1.31071675      -1.32565436
H        1.14469611      -1.87047997       0.81346992
11
Frame=9 idx=003052 GeodesicLength=0.9003006820988774 rxn_smarts="[O:1]([C@@:2]1([H:8])[C:3]([H:9])([H:10])[C@:4]1([C:5]#[N:6])[H:11])[H:7]>>[O:1]([C:2](/[C:3](=[C:4](\[C:5]#[N:6])[H:11])[H:10])([H:8])[H:9])[H:7]"
O       -1.37064567       1.03115057      -1.30951109
C       -0.75022325       0.50925022      -0.21705163
C       -0.27946756      -0.85549215      -0.36637781
C        0.78889919      -0.84853900       0.56820713
C        1.71327389       0.15079647       0.93259504
N        2.34440019       0.94792969       1.48238251
H       -1.15244822       1.96043897      -1.41154160
H       -0.77559455       1.15650029       0.65558687
H       -1.45206992      -0.92062846       0.12771054
H       -0.16399841      -1.29261787      -1.35053469
H        1.09787431      -1.83878875       0.88853473
11
Frame=10 idx=003052 GeodesicLength=1.0107829848281344 rxn_smarts="[O:1]([C@@:2]1([H:8])[C:3]([H:9])([H:10])[C@:4]1([C:5]#[N:6])[H:11])[H:7]>>[O:1]([C:2](/[C:3](=[C:4](\[C:5]#[N:6])[H:11])[H:10])([H:8])[H:9])[H:7]"
O       -1.32183725       1.05028163      -1.29440429
C       -0.78110124       0.47247989      -0.18195074
C       -0.28223069      -0.87804075      -0.37665660
C        0.76604547      -0.82672336       0.57569996
C        1.71838629       0.17104065       0.87876541
N        2.36903499       0.98314681       1.37968245
H       -1.04584581       1.96667223      -1.36663436
H       -0.85821353       1.08096461       0.71497731
H       -1.49058050      -0.94158596       0.08294921
H       -0.12829335      -1.27708434      -1.37078301
H        1.05463560      -1.80115141       0.95835465
11
Frame=11 idx=003052 GeodesicLength=1.1241707995191312 rxn_smarts="[O:1]([C@@:2]1([H:8])[C:3]([H:9])([H:10])[C@:4]1([C:5]#[N:6])[H:11])[H:7]>>[O:1]([C:2](/[C:3](=[C:4](\[C:5]#[N:6])[H:11])[H:10])([H:8])[H:9])[H:7]"
O       -1.27301719       1.06936005      -1.27462963
C       -0.81036403       0.43532054      -0.15163950
C       -0.28471543      -0.90049810      -0.38595757
C        0.74431130      -0.80396149       0.58076277
C        1.71956299       0.19149867       0.82726625
N        2.38800156       1.01589026       1.28018693
H       -0.93792160       1.96759639      -1.31538127
H       -0.93538954       1.00569902       0.76456994
H       -1.52805778      -0.95860153       0.03935592
H       -0.09726066      -1.26381625      -1.38726544
H        1.01485039      -1.75848756       1.02273160
11
Frame=12 idx=003052 GeodesicLength=1.2409356751816627 rxn_smarts="[O:1]([C@@:2]1([H:8])[C:3]([H:9])([H:10])[C@:4]1([C:5]#[N:6])[H:11])[H:7]>>[O:1]([C:2](/[C:3](=[C:4](\[C:5]#[N:6])[H:11])[H:10])([H:8])[H:9])[H:7]"
O       -1.22310127       1.08811268      -1.25107738
C       -0.83766778       0.39815474      -0.12586720
C       -0.28635949      -0.92280527      -0.39445965
C        0.72326613      -0.78043965       0.58425852
C        1.71779027       0.21186593       0.77778623
N        2.40368762       1.04591612       1.18176580
H       -0.83184445       1.96407131      -1.25682995
H       -1.00843676       0.93058872       0.80552382
H       -1.56449519      -0.97193963      -0.00477866
H       -0.06906958      -1.25260266      -1.40069528
H        0.97623048      -1.71092232       1.08437374
11
Frame=13 idx=003052 GeodesicLength=1.3616296345705943 rxn_smarts="[O:1]([C@@:2]1([H:8])[C:3]([H:9])([H:10])[C@:4]1([C:5]#[N:6])[H:11])[H:7]>>[O:1]([C:2](/[C:3](=[C:4](\[C:5]#[N:6])[H:11])[H:10])([H:8])[H:9])[H:7]"
O       -1.17314924       1.10645361      -1.22335302
C       -0.86353066       0.36123179      -0.10388129
C       -0.28702451      -0.94470448      -0.40213542
C        0.70267796      -0.75594723       0.58658107
C        1.71347823       0.23257544       0.73022158
N        2.41775371       1.07263114       1.08417068
H       -0.72732550       1.95517658      -1.19247707
H       -1.07824994       0.85569056       0.83914177
H       -1.59985512      -0.98201082      -0.05012018
H       -0.04304278      -1.24271823      -1.41162427
H        0.93826785      -1.65837836       1.14347614
11
Frame=14 idx=003052 GeodesicLength=1.486404038910855 rxn_smarts="[O:1]([C@@:2]1([H:8])[C:3]([H:9])([H:10])[C@:4]1([C:5]#[N:6])[H:11])[H:7]>>[O:1]([C:2](/[C:3](=[C:4](\[C:5]#[N:6])[H:11])[H:10])([H:8])[H:9])[H:7]"
O       -1.12376703       1.12407914      -1.19192458
C       -0.88801591       0.32498441      -0.08541094
C       -0.28653385      -0.96598370      -0.40868307
C        0.68219143      -0.73030974       0.58851607
C        1.70688944       0.25382784       0.68496570
N        2.43167598       1.09508352       0.98761868
H       -0.62600241       1.94093340      -1.12348307
H       -1.14522638       0.78155907       0.86594619
H       -1.63396259      -0.98865610      -0.09687622
H       -0.01851984      -1.23404194      -1.42003761
H        0.90127118      -1.60147590       1.19936883
11
Frame=15 idx=003052 GeodesicLength=1.615144348937263 rxn_smarts="[O:1]([C@@:2]1([H:8])[C:3]([H:9])([H:10])[C@:4]1([C:5]#[N:6])[H:11])[H:7]>>[O:1]([C:2](/[C:3](=[C:4](\[C:5]#[N:6])[H:11])[H:10])([H:8])[H:9])[H:7]"
O       -1.07606555       1.14062372      -1.15721123
C       -0.91107368       0.28981642      -0.07014734
C       -0.28465878      -0.98631463      -0.41389028
C        0.66161836      -0.70330690       0.59058233
C        1.69837445       0.27577879       0.64249966
N        2.44689780       1.11207408       0.89262399
H       -0.52974344       1.92147567      -1.05147655
H       -1.20948267       0.70863364       0.88642830
H       -1.66643382      -0.99169759      -0.14505290
H        0.00514190      -1.22616799      -1.42593246
H        0.86542544      -1.54091522       1.25157649
11
Frame=16 idx=003052 GeodesicLength=1.7474299683827206 rxn_smarts="[O:1]([C@@:2]1([H:8])[C:3]([H:9])([H:10])[C@:4]1([C:5]#[N:6])[H:11])[H:7]>>[O:1]([C:2](/[C:3](=[C:4](\[C:5]#[N:6])[H:11])[H:10])([H:8])[H:9])[H:7]"
O       -1.03116428       1.15583988      -1.11974996
C       -0.93265379       0.25597598      -0.05766986
C       -0.28111785      -1.00546784      -0.41770531
C        0.64107207      -0.67484192       0.59289318
C        1.68847808       0.29852135       0.60292665
N        2.46460998       1.12234535       0.79985565
H       -0.44045803       1.89750188      -0.97806916
H       -1.27109901       0.63722310       0.90119654
H       -1.69676535      -0.99118116      -0.19440303
H        0.02853733      -1.21872912      -1.42950492
H        0.83056085      -1.47718751       1.30023024
