13
Frame=0 idx=008811 GeodesicLength=0.0 rxn_smarts="[N:1]([c:2]1[c:3]([O:4][H:10])[n:5]([H:11])[c:6]([H:12])[c:7]1[H:13])([H:8])[H:9]>>[N:1]([C:2]1(/[C:3]([O:4][H:10])=[N:5]/[H:11])[C:6]([H:12])=[C:7]1[H:13])([H:8])[H:9]"
N       -1.47854461       0.58635766      -0.35714035
C       -0.18869638       0.38325421       0.05415585
C        0.23970782      -1.04613384      -0.02437294
O       -0.72992876      -1.89559254       0.41859966
N        1.34312366      -1.46901314      -0.45448544
C        1.74477388       1.49190881      -0.01937887
C        0.55120710       1.42989324       0.61793886
H       -1.83434339       0.04553386      -1.12920901
H       -1.81989189       1.53184332      -0.32075525
H       -1.45535082      -1.39695524       0.80848684
H        1.39995293      -2.47832935      -0.33175402
H        2.17738573       0.54525787      -0.36031197
H        0.05060471       2.27197509       1.09822659
13
Frame=1 idx=008811 GeodesicLength=0.10615868776390346 rxn_smarts="[N:1]([c:2]1[c:3]([O:4][H:10])[n:5]([H:11])[c:6]([H:12])[c:7]1[H:13])([H:8])[H:9]>>[N:1]([C:2]1(/[C:3]([O:4][H:10])=[N:5]/[H:11])[C:6]([H:12])=[C:7]1[H:13])([H:8])[H:9]"
N       -1.48104069       0.58632159      -0.36253891
C       -0.19116653       0.37969129       0.05787715
C        0.23505428      -1.04702179       0.01194095
O       -0.74981645      -1.90704814       0.39132019
N        1.37031671      -1.45127233      -0.35664939
C        1.73490138       1.44500482      -0.02053066
C        0.55766190       1.41391652       0.63827232
H       -1.80089700       0.09982798      -1.18477122
H       -1.84290065       1.51982903      -0.26490768
H       -1.49068622      -1.41121394       0.75640420
H        1.43252560      -2.46277447      -0.26375329
H        2.14667559       0.57840395      -0.54058602
H        0.07937207       2.25633550       1.13792235
13
Frame=2 idx=008811 GeodesicLength=0.21554969069973118 rxn_smarts="[N:1]([c:2]1[c:3]([O:4][H:10])[n:5]([H:11])[c:6]([H:12])[c:7]1[H:13])([H:8])[H:9]>>[N:1]([C:2]1(/[C:3]([O:4][H:10])=[N:5]/[H:11])[C:6]([H:12])=[C:7]1[H:13])([H:8])[H:9]"
N       -1.48446909       0.58386935      -0.36404033
C       -0.19553851       0.37582929       0.06963833
C        0.23056450      -1.04721027       0.05224963
O       -0.76309191      -1.92045193       0.36660468
N        1.39300427      -1.42841802      -0.26219852
C        1.73006341       1.38435743      -0.02122853
C        0.56462917       1.40494376       0.65034203
H       -1.76629269       0.15412348      -1.23056645
H       -1.86795076       1.50137428      -0.21160604
H       -1.52204670      -1.43021312       0.70246272
H        1.46082539      -2.44243410      -0.22289595
H        2.10809934       0.60572848      -0.68146567
H        0.11220358       2.25850136       1.15270410
13
Frame=3 idx=008811 GeodesicLength=0.32729475697406385 rxn_smarts="[N:1]([c:2]1[c:3]([O:4][H:10])[n:5]([H:11])[c:6]([H:12])[c:7]1[H:13])([H:8])[H:9]>>[N:1]([C:2]1(/[C:3]([O:4][H:10])=[N:5]/[H:11])[C:6]([H:12])=[C:7]1[H:13])([H:8])[H:9]"
N       -1.48994953       0.58052352      -0.36286555
C       -0.20123277       0.37189695       0.08248199
C        0.22479851      -1.04713989       0.09167538
O       -0.77191181      -1.93430949       0.34337299
N        1.40817985      -1.40418018      -0.18290348
C        1.72354071       1.32033711      -0.02840522
C        0.57238620       1.39838282       0.65651639
H       -1.73552926       0.20935401      -1.26668607
H       -1.89336152       1.48004508      -0.16154247
H       -1.54906112      -1.45071743       0.64738493
H        1.49058612      -2.41726704      -0.18709437
H        2.07334729       0.62652396      -0.78796654
H        0.14820733       2.26655057       1.15603202
13
Frame=4 idx=008811 GeodesicLength=0.43999294328174976 rxn_smarts="[N:1]([c:2]1[c:3]([O:4][H:10])[n:5]([H:11])[c:6]([H:12])[c:7]1[H:13])([H:8])[H:9]>>[N:1]([C:2]1(/[C:3]([O:4][H:10])=[N:5]/[H:11])[C:6]([H:12])=[C:7]1[H:13])([H:8])[H:9]"
N       -1.49687049       0.57644012      -0.36096912
C       -0.20737854       0.36803551       0.09379622
C        0.21798939      -1.04686860       0.13054465
O       -0.77754274      -1.94754072       0.32275704
N        1.41766985      -1.38009858      -0.11655300
C        1.71377404       1.25774553      -0.04065567
C        0.58035688       1.39262454       0.65892921
H       -1.70862309       0.26490083      -1.29538181
H       -1.91834320       1.45675513      -0.11560586
H       -1.57170927      -1.47057197       0.59317079
H        1.51959526      -2.39013537      -0.15359541
H        2.04570053       0.64335844      -0.87088130
H        0.18538137       2.27535515       1.15444426
13
Frame=5 idx=008811 GeodesicLength=0.553197831382622 rxn_smarts="[N:1]([c:2]1[c:3]([O:4][H:10])[n:5]([H:11])[c:6]([H:12])[c:7]1[H:13])([H:8])[H:9]>>[N:1]([C:2]1(/[C:3]([O:4][H:10])=[N:5]/[H:11])[C:6]([H:12])=[C:7]1[H:13])([H:8])[H:9]"
N       -1.50475653       0.57178748      -0.35918283
C       -0.21367902       0.36414067       0.10320368
C        0.21019532      -1.04648608       0.16879069
O       -0.78087168      -1.95998663       0.30421031
N        1.42334731      -1.35664326      -0.05870936
C        1.70085953       1.19770600      -0.05670714
C        0.58845529       1.38699847       0.65860435
H       -1.68504545       0.32135134      -1.31830349
H       -1.94276334       1.43171720      -0.07296137
H       -1.59050448      -1.48942040       0.53967622
H        1.54720457      -2.36240904      -0.12058326
H        2.02430265       0.65817970      -0.93869374
H        0.22325583       2.28306456       1.15065595
13
Frame=6 idx=008811 GeodesicLength=0.666757047058986 rxn_smarts="[N:1]([c:2]1[c:3]([O:4][H:10])[n:5]([H:11])[c:6]([H:12])[c:7]1[H:13])([H:8])[H:9]>>[N:1]([C:2]1(/[C:3]([O:4][H:10])=[N:5]/[H:11])[C:6]([H:12])=[C:7]1[H:13])([H:8])[H:9]"
N       -1.51342341       0.56666138      -0.35805691
C       -0.22000823       0.36020371       0.11029806
C        0.20142028      -1.04595227       0.20595508
O       -0.78237418      -1.97154012       0.28789081
N        1.42638750      -1.33394191      -0.00577162
C        1.68528194       1.14021893      -0.07541709
C        0.59652068       1.38129423       0.65583751
H       -1.66486681       0.37879831      -1.33635236
H       -1.96684280       1.40480770      -0.03295845
H       -1.60572836      -1.50702083       0.48721677
H        1.57296125      -2.33452532      -0.08877522
H        2.00911936       0.67187175      -0.99538058
H        0.26155275       2.28912444       1.14551401
13
Frame=7 idx=008811 GeodesicLength=0.780595520084875 rxn_smarts="[N:1]([c:2]1[c:3]([O:4][H:10])[n:5]([H:11])[c:6]([H:12])[c:7]1[H:13])([H:8])[H:9]>>[N:1]([C:2]1(/[C:3]([O:4][H:10])=[N:5]/[H:11])[C:6]([H:12])=[C:7]1[H:13])([H:8])[H:9]"
N       -1.52294047       0.56129783      -0.35760378
C       -0.22637429       0.35620238       0.11475860
C        0.19163343      -1.04524224       0.24102735
O       -0.78242920      -1.98230987       0.27307845
N        1.42737504      -1.31195650       0.04353164
C        1.66741659       1.08500940      -0.09647254
C        0.60459864       1.37525358       0.65063186
H       -1.64865931       0.43780684      -1.34977758
H       -1.99073061       1.37595931       0.00548395
H       -1.61769305      -1.52354000       0.43524845
H        1.59733745      -2.30674138      -0.05572897
H        1.99997254       0.68520864      -1.04374801
H        0.30049324       2.29305202       1.13957059
13
Frame=8 idx=008811 GeodesicLength=0.894639581750013 rxn_smarts="[N:1]([c:2]1[c:3]([O:4][H:10])[n:5]([H:11])[c:6]([H:12])[c:7]1[H:13])([H:8])[H:9]>>[N:1]([C:2]1(/[C:3]([O:4][H:10])=[N:5]/[H:11])[C:6]([H:12])=[C:7]1[H:13])([H:8])[H:9]"
N       -1.53329139       0.55567236      -0.35800915
C       -0.23281296       0.35214156       0.11662465
C        0.18088208      -1.04425741       0.27416882
O       -0.78135873      -1.99232622       0.26035769
N        1.42666247      -1.29059750       0.09089397
C        1.64764267       1.03167569      -0.11932115
C        0.61256234       1.36899236       0.64293756
H       -1.63641723       0.49811809      -1.35887602
H       -2.01459366       1.34491496       0.04249044
H       -1.62671621      -1.53900285       0.38406511
H        1.61999470      -2.27888280      -0.02334034
H        1.99746391       0.69846074      -1.08455719
H        0.33998201       2.29509100       1.13256563
13
Frame=9 idx=008811 GeodesicLength=1.0088900445314488 rxn_smarts="[N:1]([c:2]1[c:3]([O:4][H:10])[n:5]([H:11])[c:6]([H:12])[c:7]1[H:13])([H:8])[H:9]>>[N:1]([C:2]1(/[C:3]([O:4][H:10])=[N:5]/[H:11])[C:6]([H:12])=[C:7]1[H:13])([H:8])[H:9]"
N       -1.54458456       0.54995637      -0.35899140
C       -0.23944428       0.34797653       0.11606410
C        0.16916551      -1.04298958       0.30501844
O       -0.77940375      -2.00179543       0.24900882
N        1.42439552      -1.26970479       0.13625486
C        1.62605826       0.97981717      -0.14424896
C        0.62058779       1.36237753       0.63260731
H       -1.62849401       0.56015137      -1.36337404
H       -2.03836498       1.31167069       0.07873786
H       -1.63305723      -1.55379568       0.33260917
H        1.64140389      -2.25108854       0.01094016
H        2.00123282       0.71234677      -1.11912039
H        0.38050501       2.29507760       1.12449407
13
Frame=10 idx=008811 GeodesicLength=1.123316465286113 rxn_smarts="[N:1]([c:2]1[c:3]([O:4][H:10])[n:5]([H:11])[c:6]([H:12])[c:7]1[H:13])([H:8])[H:9]>>[N:1]([C:2]1(/[C:3]([O:4][H:10])=[N:5]/[H:11])[C:6]([H:12])=[C:7]1[H:13])([H:8])[H:9]"
N       -1.55694208       0.54411629      -0.36047511
C       -0.24642925       0.34368469       0.11329997
C        0.15649081      -1.04138315       0.33380097
O       -0.77680902      -2.01080477       0.23910864
N        1.42065155      -1.24908720       0.18019729
C        1.60268408       0.92901586      -0.17146336
C        0.62866404       1.35548166       0.61934490
H       -1.62486909       0.62394091      -1.36309268
H       -2.06211006       1.27601398       0.11440049
H       -1.63685112      -1.56810209       0.28070407
H        1.66145779      -2.22318868       0.04660997
H        2.01177346       0.72716034      -1.14732406
H        0.42228889       2.29315218       1.11488891
13
Frame=11 idx=008811 GeodesicLength=1.2379432025877197 rxn_smarts="[N:1]([c:2]1[c:3]([O:4][H:10])[n:5]([H:11])[c:6]([H:12])[c:7]1[H:13])([H:8])[H:9]>>[N:1]([C:2]1(/[C:3]([O:4][H:10])=[N:5]/[H:11])[C:6]([H:12])=[C:7]1[H:13])([H:8])[H:9]"
N       -1.57054136       0.53824823      -0.36218923
C       -0.25393897       0.33926077       0.10848326
C        0.14283488      -1.03939050       0.36048671
O       -0.77375664      -2.01944994       0.23049047
N        1.41545373      -1.22850916       0.22251378
C        1.57738922       0.87884390      -0.20156620
C        0.63695934       1.34824801       0.60271759
H       -1.62594806       0.68944641      -1.35750478
H       -2.08574544       1.23797470       0.14980348
H       -1.63812312      -1.58216627       0.22737337
H        1.68028339      -2.19518366       0.08499035
H        2.02924346       0.74353686      -1.16903136
H        0.46588958       2.28914065       1.10343256
13
Frame=12 idx=008811 GeodesicLength=1.352745542412872 rxn_smarts="[N:1]([c:2]1[c:3]([O:4][H:10])[n:5]([H:11])[c:6]([H:12])[c:7]1[H:13])([H:8])[H:9]>>[N:1]([C:2]1(/[C:3]([O:4][H:10])=[N:5]/[H:11])[C:6]([H:12])=[C:7]1[H:13])([H:8])[H:9]"
N       -1.58564228       0.53234407      -0.36394629
C       -0.26222344       0.33474114       0.10175670
C        0.12814510      -1.03689898       0.38530102
O       -0.77048055      -2.02771306       0.22325471
N        1.40874393      -1.20764468       0.26334226
C        1.54988916       0.82884560      -0.23534398
C        0.64552173       1.34075561       0.58202891
H       -1.63195644       0.75645356      -1.34610413
H       -2.10943402       1.19729504       0.18519391
H       -1.63676723      -1.59611245       0.17240385
H        1.69770000      -2.16671259       0.12544668
H        2.05475485       0.76158284      -1.18264157
H        0.51174919       2.28306388       1.08930793
13
Frame=13 idx=008811 GeodesicLength=1.467694115001732 rxn_smarts="[N:1]([c:2]1[c:3]([O:4][H:10])[n:5]([H:11])[c:6]([H:12])[c:7]1[H:13])([H:8])[H:9]>>[N:1]([C:2]1(/[C:3]([O:4][H:10])=[N:5]/[H:11])[C:6]([H:12])=[C:7]1[H:13])([H:8])[H:9]"
N       -1.60251558       0.52644754      -0.36541741
C       -0.27154942       0.33016413       0.09335638
C        0.11239197      -1.03379297       0.40838802
O       -0.76713453      -2.03557135       0.21740434
N        1.40052041      -1.18609041       0.30229193
C        1.51970390       0.77852045      -0.27404321
C        0.65460015       1.33291303       0.55638940
H       -1.64323918       0.82481094      -1.32813938
H       -2.13306658       1.15404909       0.22081844
H       -1.63241235      -1.61010195       0.11463454
H        1.71374453      -2.13754043       0.16895981
H        2.08821199       0.78168600      -1.18648378
H        0.56074469       2.27450593       1.07184092
13
Frame=14 idx=008811 GeodesicLength=1.582564076704416 rxn_smarts="[N:1]([c:2]1[c:3]([O:4][H:10])[n:5]([H:11])[c:6]([H:12])[c:7]1[H:13])([H:8])[H:9]>>[N:1]([C:2]1(/[C:3]([O:4][H:10])=[N:5]/[H:11])[C:6]([H:12])=[C:7]1[H:13])([H:8])[H:9]"
N       -1.62148485       0.52070584      -0.36634191
C       -0.28213425       0.32573025       0.08326898
C        0.09556999      -1.02980145       0.42993191
O       -0.76383247      -2.04279893       0.21265529
N        1.39084886      -1.16320656       0.33941262
C        1.48643102       0.72739312      -0.31902564
C        0.66444312       1.32475409       0.52456856
H       -1.66030629       0.89424912      -1.30289468
H       -2.15679213       1.10798571       0.25708298
H       -1.62447610      -1.62410600       0.05355236
H        1.72851702      -2.10688496       0.21507661
H        2.12950167       0.80287969      -1.17719850
H        0.61371440       2.26310008       1.04991142
13
Frame=15 idx=008811 GeodesicLength=1.6971947216401568 rxn_smarts="[N:1]([c:2]1[c:3]([O:4][H:10])[n:5]([H:11])[c:6]([H:12])[c:7]1[H:13])([H:8])[H:9]>>[N:1]([C:2]1(/[C:3]([O:4][H:10])=[N:5]/[H:11])[C:6]([H:12])=[C:7]1[H:13])([H:8])[H:9]"
N       -1.64177148       0.51526412      -0.36722184
C       -0.29366005       0.32176020       0.07181107
C        0.07807753      -1.02444672       0.45038103
O       -0.76072391      -2.04875789       0.21049189
N        1.37991693      -1.13841265       0.37364571
C        1.45023693       0.67548660      -0.36990749
C        0.67534381       1.31612912       0.48675236
H       -1.68190384       0.96274478      -1.27108353
H       -2.17975866       1.06016024       0.29222561
H       -1.61190977      -1.63760999      -0.01048965
H        1.74179508      -2.07400425       0.26168937
H        2.17321458       0.82385102      -1.15261002
H        0.67114285       2.24783542       1.02431549
13
Frame=16 idx=008811 GeodesicLength=1.8117345122631738 rxn_smarts="[N:1]([c:2]1[c:3]([O:4][H:10])[n:5]([H:11])[c:6]([H:12])[c:7]1[H:13])([H:8])[H:9]>>[N:1]([C:2]1(/[C:3]([O:4][H:10])=[N:5]/[H:11])[C:6]([H:12])=[C:7]1[H:13])([H:8])[H:9]"
N       -1.66219784       0.51051898      -0.36944809
C       -0.30521537       0.31873845       0.05861849
C        0.06061028      -1.01724269       0.46969415
O       -0.75743488      -2.05267688       0.20967034
N        1.36855979      -1.11116749       0.40527155
C        1.41315122       0.62373656      -0.42333253
C        0.68706332       1.30724608       0.44465446
H       -1.70603668       1.03031704      -1.23399055
H       -2.20162144       1.01041469       0.32448038
H       -1.59434387      -1.64970153      -0.07451146
H        1.75439944      -2.03802178       0.30664181
H        2.21119970       0.83953102      -1.11451479
H        0.73186634       2.22830754       0.99676624
