10
Frame=0 idx=008753 GeodesicLength=0.0 rxn_smarts="[O:1]=[C:2]([c:3]1[n:4][o:5][c:6]([H:9])[c:7]1[H:10])[H:8]>>[O:1]=[C:2]([C:3]1=[N:4][C@:7]1([C:6](=[O:5])[H:9])[H:10])[H:8]"
O       -1.87712195       1.30024684      -1.00553241
C       -1.74991955       0.12336569      -0.89640368
C       -0.45058957      -0.46532102      -0.32731744
N       -0.14234364      -1.65702393      -0.28129291
O        2.21093669      -1.12966132       0.59855774
C        1.75346973      -0.01136369       0.70616108
C        0.40809637       0.38469273       0.47401781
H       -2.51777318      -0.61215907      -1.17981165
H        2.41745564       0.85179494       0.91481174
H       -0.05221054       1.21542884       0.99680972
10
Frame=1 idx=008753 GeodesicLength=0.07604758358268285 rxn_smarts="[O:1]=[C:2]([c:3]1[n:4][o:5][c:6]([H:9])[c:7]1[H:10])[H:8]>>[O:1]=[C:2]([C:3]1=[N:4][C@:7]1([C:6](=[O:5])[H:9])[H:10])[H:8]"
O       -1.89349321       1.29559419      -1.01474616
C       -1.74472540       0.12004412      -0.91258224
C       -0.44446440      -0.44843680      -0.33558080
N       -0.14140895      -1.63950670      -0.22495719
O        2.18898653      -1.13557311       0.55310827
C        1.75570400      -0.00675876       0.68627082
C        0.40487186       0.38740906       0.48763679
H       -2.50357927      -0.62661933      -1.19192152
H        2.42758155       0.83725294       0.93580560
H       -0.04947270       1.21659439       1.01696643
10
Frame=2 idx=008753 GeodesicLength=0.15219552729651337 rxn_smarts="[O:1]=[C:2]([c:3]1[n:4][o:5][c:6]([H:9])[c:7]1[H:10])[H:8]>>[O:1]=[C:2]([C:3]1=[N:4][C@:7]1([C:6](=[O:5])[H:9])[H:10])[H:8]"
O       -1.90906809       1.28998050      -1.02548566
C       -1.73992009       0.11624752      -0.92742770
C       -0.44059182      -0.43267205      -0.33954509
N       -0.13903868      -1.62013157      -0.17414714
O        2.16595331      -1.14039459       0.51025356
C        1.75801939      -0.00108047       0.66426328
C        0.40197435       0.39034718       0.50094993
H       -2.48952194      -0.64136336      -1.20317030
H        2.43758382       0.82052744       0.95757166
H       -0.04539024       1.21853941       1.03673747
10
Frame=3 idx=008753 GeodesicLength=0.22849417614727546 rxn_smarts="[O:1]=[C:2]([c:3]1[n:4][o:5][c:6]([H:9])[c:7]1[H:10])[H:8]>>[O:1]=[C:2]([C:3]1=[N:4][C@:7]1([C:6](=[O:5])[H:9])[H:10])[H:8]"
O       -1.92449241       1.28352598      -1.03720929
C       -1.73548913       0.11208546      -0.94114840
C       -0.43788040      -0.41723060      -0.34131475
N       -0.13551075      -1.59918776      -0.12788816
O        2.14185075      -1.14417742       0.47042424
C        1.76025499       0.00564800       0.64114208
C        0.39965341       0.39385224       0.51344475
H       -2.47553611      -0.65647707      -1.21328998
H        2.44749875       0.80132484       0.97934934
H       -0.04034909       1.22063633       1.05649017
10
Frame=4 idx=008753 GeodesicLength=0.3048722342522087 rxn_smarts="[O:1]=[C:2]([c:3]1[n:4][o:5][c:6]([H:9])[c:7]1[H:10])[H:8]>>[O:1]=[C:2]([C:3]1=[N:4][C@:7]1([C:6](=[O:5])[H:9])[H:10])[H:8]"
O       -1.93958972       1.27650497      -1.04965384
C       -1.73112182       0.10773475      -0.95405438
C       -0.43626744      -0.40200550      -0.34085695
N       -0.13121485      -1.57728244      -0.08504322
O        2.11705850      -1.14692570       0.43270381
C        1.76199452       0.01293827       0.61852351
C        0.39756899       0.39761140       0.52610971
H       -2.46103316      -0.67176477      -1.22342748
H        2.45731608       0.78037245       0.99885278
H       -0.03471110       1.22281656       1.07684605
10
Frame=5 idx=008753 GeodesicLength=0.38138439955799874 rxn_smarts="[O:1]=[C:2]([c:3]1[n:4][o:5][c:6]([H:9])[c:7]1[H:10])[H:8]>>[O:1]=[C:2]([C:3]1=[N:4][C@:7]1([C:6](=[O:5])[H:9])[H:10])[H:8]"
O       -1.95414745       1.26889103      -1.06322133
C       -1.72669579       0.10318414      -0.96630992
C       -0.43565644      -0.38685976      -0.33832606
N       -0.12649134      -1.55464743      -0.04463844
O        2.09192519      -1.14833438       0.39532240
C        1.76300882       0.02042286       0.59742701
C        0.39565498       0.40163116       0.53911866
H       -2.44597531      -0.68723768      -1.23344558
H        2.46690401       0.75772093       1.01638784
H       -0.02852668       1.22522913       1.09768541
10
Frame=6 idx=008753 GeodesicLength=0.45809743047704493 rxn_smarts="[O:1]=[C:2]([c:3]1[n:4][o:5][c:6]([H:9])[c:7]1[H:10])[H:8]>>[O:1]=[C:2]([C:3]1=[N:4][C@:7]1([C:6](=[O:5])[H:9])[H:10])[H:8]"
O       -1.96885961       1.26076682      -1.07675653
C       -1.72226044       0.09854276      -0.97772507
C       -0.43588486      -0.37154871      -0.33396860
N       -0.12196900      -1.53129280      -0.00556311
O        2.06598504      -1.14893821       0.35909360
C        1.76319311       0.02774503       0.57846684
C        0.39395446       0.40618736       0.55241945
H       -2.42923881      -0.70300897      -1.24553448
H        2.47707854       0.73418237       1.02965631
H       -0.02199844       1.22736437       1.11991158
10
Frame=7 idx=008753 GeodesicLength=0.534913350998339 rxn_smarts="[O:1]=[C:2]([c:3]1[n:4][o:5][c:6]([H:9])[c:7]1[H:10])[H:8]>>[O:1]=[C:2]([C:3]1=[N:4][C@:7]1([C:6](=[O:5])[H:9])[H:10])[H:8]"
O       -1.98301329       1.25218711      -1.09136704
C       -1.71755628       0.09383586      -0.98888346
C       -0.43676902      -0.35606255      -0.32834616
N       -0.11714295      -1.50752884       0.03116208
O        2.03954903      -1.14859617       0.32374945
C        1.76261646       0.03490157       0.56139655
C        0.39229450       0.41088063       0.56616654
H       -2.41201003      -0.71878555      -1.25709872
H        2.48728499       0.70999708       1.04008689
H       -0.01525342       1.22917087       1.14313387
10
Frame=8 idx=008753 GeodesicLength=0.6118808091345685 rxn_smarts="[O:1]=[C:2]([c:3]1[n:4][o:5][c:6]([H:9])[c:7]1[H:10])[H:8]>>[O:1]=[C:2]([C:3]1=[N:4][C@:7]1([C:6](=[O:5])[H:9])[H:10])[H:8]"
O       -1.99721380       1.24311740      -1.10623674
C       -1.71272791       0.08907647      -0.99953873
C       -0.43839653      -0.34028361      -0.32137064
N       -0.11249376      -1.48332635       0.06652187
O        2.01233208      -1.14759462       0.28950875
C        1.76139754       0.04183977       0.54581672
C        0.39080255       0.41596710       0.58015921
H       -2.39345664      -0.73475538      -1.26973887
H        2.49783193       0.68532186       1.04732636
H       -0.00807546       1.23063734       1.16755207
10
Frame=9 idx=008753 GeodesicLength=0.6890055568509112 rxn_smarts="[O:1]=[C:2]([c:3]1[n:4][o:5][c:6]([H:9])[c:7]1[H:10])[H:8]>>[O:1]=[C:2]([C:3]1=[N:4][C@:7]1([C:6](=[O:5])[H:9])[H:10])[H:8]"
O       -2.01154915       1.23349537      -1.12135059
C       -1.70775132       0.08425131      -1.00977693
C       -0.44076967      -0.32414380      -0.31315320
N       -0.10806927      -1.45871223       0.10069676
O        1.98430289      -1.14593742       0.25619766
C        1.75962735       0.04858524       0.53139597
C        0.38951000       0.42148794       0.59429828
H       -2.37355484      -0.75093661      -1.28328400
H        2.50858748       0.66008685       1.05195598
H       -0.00033348       1.23182336       1.19302006
10
Frame=10 idx=008753 GeodesicLength=0.7662854688861896 rxn_smarts="[O:1]=[C:2]([c:3]1[n:4][o:5][c:6]([H:9])[c:7]1[H:10])[H:8]>>[O:1]=[C:2]([C:3]1=[N:4][C@:7]1([C:6](=[O:5])[H:9])[H:10])[H:8]"
O       -2.02605215       1.22330594      -1.13666011
C       -1.70258127       0.07938307      -1.01965083
C       -0.44391702      -0.30759395      -0.30372638
N       -0.10392047      -1.43375372       0.13378871
O        1.95538369      -1.14370837       0.22390106
C        1.75733211       0.05513867       0.51790583
C        0.38838953       0.42740433       0.60864300
H       -2.35216844      -0.76729532      -1.29776453
H        2.51949649       0.63442197       1.05399580
H        0.00803751       1.23269739       1.21956744
10
Frame=11 idx=008753 GeodesicLength=0.8437689521610692 rxn_smarts="[O:1]=[C:2]([c:3]1[n:4][o:5][c:6]([H:9])[c:7]1[H:10])[H:8]>>[O:1]=[C:2]([C:3]1=[N:4][C@:7]1([C:6](=[O:5])[H:9])[H:10])[H:8]"
O       -2.04171032       1.21229972      -1.15106774
C       -1.69737435       0.07443140      -1.02888566
C       -0.44807740      -0.29049581      -0.29274068
N       -0.10040887      -1.40825745       0.16669699
O        1.92525944      -1.14105854       0.19236742
C        1.75460007       0.06140604       0.50496760
C        0.38761629       0.43402352       0.62301528
H       -2.32810090      -0.78412641      -1.31484386
H        2.53055468       0.60783226       1.05381018
H        0.01764137       1.23394528       1.24668047
10
Frame=12 idx=008753 GeodesicLength=0.9214386697588792 rxn_smarts="[O:1]=[C:2]([c:3]1[n:4][o:5][c:6]([H:9])[c:7]1[H:10])[H:8]>>[O:1]=[C:2]([C:3]1=[N:4][C@:7]1([C:6](=[O:5])[H:9])[H:10])[H:8]"
O       -2.05684399       1.20076589      -1.16649881
C       -1.69167245       0.06949316      -1.03812171
C       -0.45298743      -0.27295916      -0.28073755
N       -0.09702218      -1.38263240       0.19821357
O        1.89424854      -1.13774701       0.16182702
C        1.75126940       0.06756554       0.49274302
C        0.38682859       0.44075064       0.63786021
H       -2.30297909      -0.80082978      -1.33152572
H        2.54150475       0.58123760       1.05101243
H        0.02765386       1.23435553       1.27522754
10
Frame=13 idx=008753 GeodesicLength=0.9993310859617812 rxn_smarts="[O:1]=[C:2]([c:3]1[n:4][o:5][c:6]([H:9])[c:7]1[H:10])[H:8]>>[O:1]=[C:2]([C:3]1=[N:4][C@:7]1([C:6](=[O:5])[H:9])[H:10])[H:8]"
O       -2.07291842       1.18833219      -1.18128468
C       -1.68573871       0.06451844      -1.04686638
C       -0.45897528      -0.25481190      -0.26721053
N       -0.09427375      -1.35658697       0.22952730
O        1.86188155      -1.13403353       0.13208192
C        1.74742248       0.07344604       0.48085498
C        0.38627719       0.44803343       0.65290920
H       -2.27497708      -0.81777748      -1.35035513
H        2.55239404       0.55394085       1.04588683
H        0.03890798       1.23493893       1.30445649
10
Frame=14 idx=008753 GeodesicLength=1.0774216819171403 rxn_smarts="[O:1]=[C:2]([c:3]1[n:4][o:5][c:6]([H:9])[c:7]1[H:10])[H:8]>>[O:1]=[C:2]([C:3]1=[N:4][C@:7]1([C:6](=[O:5])[H:9])[H:10])[H:8]"
O       -2.08888479       1.17518668      -1.19656829
C       -1.67930982       0.05956704      -1.05539422
C       -0.46594534      -0.23614212      -0.25239948
N       -0.09189286      -1.33042290       0.26001184
O        1.82833274      -1.12977314       0.10317356
C        1.74293676       0.07916030       0.46934113
C        0.38573755       0.45549210       0.66844909
H       -2.24496069      -0.83461624      -1.36964581
H        2.56301098       0.52652674       1.03820764
H        0.05097547       1.23502155       1.33482454
10
Frame=15 idx=008753 GeodesicLength=1.1557286853781097 rxn_smarts="[O:1]=[C:2]([c:3]1[n:4][o:5][c:6]([H:9])[c:7]1[H:10])[H:8]>>[O:1]=[C:2]([C:3]1=[N:4][C@:7]1([C:6](=[O:5])[H:9])[H:10])[H:8]"
O       -2.10349138       1.16154211      -1.21361996
C       -1.67214092       0.05467158      -1.06389338
C       -0.47387406      -0.21708134      -0.23640167
N       -0.08962675      -1.30444894       0.28918139
O        1.79380308      -1.12467745       0.07491377
C        1.73767548       0.08487459       0.45821612
C        0.38498819       0.46272884       0.68478689
H       -2.21394736      -0.85105568      -1.38777720
H        2.57315124       0.49955759       1.02781117
H        0.06346249       1.23388869       1.36678287
10
Frame=16 idx=008753 GeodesicLength=1.234329144647016 rxn_smarts="[O:1]=[C:2]([c:3]1[n:4][o:5][c:6]([H:9])[c:7]1[H:10])[H:8]>>[O:1]=[C:2]([C:3]1=[N:4][C@:7]1([C:6](=[O:5])[H:9])[H:10])[H:8]"
O       -2.11726707       1.14719695      -1.23177964
C       -1.66430111       0.04978155      -1.07207190
C       -0.48305123      -0.19755592      -0.21879072
N       -0.08774670      -1.27853990       0.31774205
O        1.75792999      -1.11877741       0.04699313
C        1.73159977       0.09056196       0.44721295
C        0.38412194       0.46996889       0.70184874
H       -2.18085949      -0.86727270      -1.40597679
H        2.58276038       0.47262396       1.01479031
H        0.07681354       1.23201262       1.40003187
