11
Frame=0 idx=005935 GeodesicLength=0.0 rxn_smarts="[N:1]([C@@:2]1([H:9])[C:3]([H:10])([H:11])[O:4][C:5]1=[O:6])([H:7])[H:8]>>[C:3](=[O:4])([H:10])[H:11].[N:1]([C:2](=[C:5]=[O:6])[H:9])([H:7])[H:8]"
N        1.87618777      -0.26669296      -0.08298006
C        0.51326211      -0.08458193      -0.34408892
C       -1.68160736      -0.56185935       0.20150231
O       -1.84510405       0.50652938      -0.42574450
C       -0.11919934       1.05908491       0.11980951
O       -0.12443060       1.95697657       0.86203285
H        2.21453616       0.20863498       0.73790672
H        2.49409743      -0.12923571      -0.86849287
H        0.11433793      -0.58331914      -1.20956449
H       -1.86700258      -1.52875707      -0.28295275
H       -1.57507748      -0.57677970       1.29257219
11
Frame=1 idx=005935 GeodesicLength=0.06244355259625027 rxn_smarts="[N:1]([C@@:2]1([H:9])[C:3]([H:10])([H:11])[O:4][C:5]1=[O:6])([H:7])[H:8]>>[C:3](=[O:4])([H:10])[H:11].[N:1]([C:2](=[C:5]=[O:6])[H:9])([H:7])[H:8]"
N        1.86866971      -0.27804393      -0.07575361
C        0.51073398      -0.07525660      -0.35691237
C       -1.66893363      -0.57821648       0.21346788
O       -1.86079218       0.51522868      -0.36726126
C       -0.11923848       1.07167991       0.10452817
O       -0.10876745       2.00896943       0.79656778
H        2.19652575       0.17505771       0.76199977
H        2.49897578      -0.11632513      -0.84677238
H        0.11974153      -0.57235770      -1.22730662
H       -1.87554528      -1.52229656      -0.30591517
H       -1.56136973      -0.62843933       1.30335781
11
Frame=2 idx=005935 GeodesicLength=0.12502529796062667 rxn_smarts="[N:1]([C@@:2]1([H:9])[C:3]([H:10])([H:11])[O:4][C:5]1=[O:6])([H:7])[H:8]>>[C:3](=[O:4])([H:10])[H:11].[N:1]([C:2](=[C:5]=[O:6])[H:9])([H:7])[H:8]"
N        1.86057989      -0.28889314      -0.06759963
C        0.50826606      -0.06589419      -0.36929226
C       -1.65555352      -0.59484899       0.22519017
O       -1.87437735       0.52394547      -0.30231496
C       -0.11927812       1.08415977       0.09014635
O       -0.09280713       2.06149510       0.72425624
H        2.17691325       0.14324885       0.78572380
H        2.50356536      -0.10447905      -0.82300495
H        0.12549972      -0.56103115      -1.24480287
H       -1.88691907      -1.51203081      -0.33053505
H       -1.54588908      -0.68567186       1.31223315
11
Frame=3 idx=005935 GeodesicLength=0.1872690707771791 rxn_smarts="[N:1]([C@@:2]1([H:9])[C:3]([H:10])([H:11])[O:4][C:5]1=[O:6])([H:7])[H:8]>>[C:3](=[O:4])([H:10])[H:11].[N:1]([C:2](=[C:5]=[O:6])[H:9])([H:7])[H:8]"
N        1.85243799      -0.29900334      -0.05862808
C        0.50597965      -0.05699864      -0.38036731
C       -1.64200774      -0.61144206       0.23641767
O       -1.88501277       0.53262948      -0.23068767
C       -0.11904610       1.09637567       0.07703975
O       -0.07738494       2.11327216       0.64514531
H        2.15674419       0.11409383       0.80861192
H        2.50765891      -0.09356398      -0.79804189
H        0.13192710      -0.54986437      -1.26128339
H       -1.90118260      -1.49723773      -0.35663599
H       -1.53011369      -0.74826103       1.31842967
11
Frame=4 idx=005935 GeodesicLength=0.24904422319077651 rxn_smarts="[N:1]([C@@:2]1([H:9])[C:3]([H:10])([H:11])[O:4][C:5]1=[O:6])([H:7])[H:8]>>[C:3](=[O:4])([H:10])[H:11].[N:1]([C:2](=[C:5]=[O:6])[H:9])([H:7])[H:8]"
N        1.84456839      -0.30802043      -0.04832555
C        0.50396774      -0.04883027      -0.38944463
C       -1.62866241      -0.62794273       0.24687477
O       -1.89196151       0.54119335      -0.15105999
C       -0.11845033       1.10835812       0.06523381
O       -0.06322659       2.16333420       0.55848504
H        2.13709351       0.08932616       0.83047128
H        2.51110461      -0.08436464      -0.77230426
H        0.13933857      -0.53932990      -1.27600701
H       -1.91963515      -1.47649380      -0.38464913
H       -1.51413683      -0.81723005       1.32072567
11
Frame=5 idx=005935 GeodesicLength=0.3095134284315868 rxn_smarts="[N:1]([C@@:2]1([H:9])[C:3]([H:10])([H:11])[O:4][C:5]1=[O:6])([H:7])[H:8]>>[C:3](=[O:4])([H:10])[H:11].[N:1]([C:2](=[C:5]=[O:6])[H:9])([H:7])[H:8]"
N        1.83747401      -0.31600985      -0.03788800
C        0.50232799      -0.04180696      -0.39684818
C       -1.61582954      -0.64358188       0.25699329
O       -1.89386286       0.54915874      -0.06427633
C       -0.11703836       1.12013583       0.05381682
O       -0.05171050       2.20953427       0.46522155
H        2.11753189       0.06624499       0.85181748
H        2.51436524      -0.07351529      -0.74613339
H        0.14776879      -0.53025815      -1.28902006
H       -1.94086803      -1.44943051      -0.41272579
H       -1.50015864      -0.89047121       1.31904263
11
Frame=6 idx=005935 GeodesicLength=0.3688614326272497 rxn_smarts="[N:1]([C@@:2]1([H:9])[C:3]([H:10])([H:11])[O:4][C:5]1=[O:6])([H:7])[H:8]>>[C:3](=[O:4])([H:10])[H:11].[N:1]([C:2](=[C:5]=[O:6])[H:9])([H:7])[H:8]"
N        1.83161308      -0.32243891      -0.02649552
C        0.50122853      -0.03628346      -0.40197993
C       -1.60394912      -0.65833101       0.26648457
O       -1.88959366       0.55624507       0.03167701
C       -0.11489075       1.13170679       0.04213406
O       -0.04388835       2.25080511       0.36486580
H        2.09926744       0.04736201       0.87247017
H        2.51748762      -0.06224496      -0.71977628
H        0.15767917      -0.52357836      -1.29953317
H       -1.96689126      -1.41379917      -0.44147422
H       -1.48806270      -0.96944311       1.31162752
11
Frame=7 idx=005935 GeodesicLength=0.4271585812945372 rxn_smarts="[N:1]([C@@:2]1([H:9])[C:3]([H:10])([H:11])[O:4][C:5]1=[O:6])([H:7])[H:8]>>[C:3](=[O:4])([H:10])[H:11].[N:1]([C:2](=[C:5]=[O:6])[H:9])([H:7])[H:8]"
N        1.82718643      -0.32699320      -0.01375455
C        0.50087395      -0.03243833      -0.40528223
C       -1.59316257      -0.67182586       0.27539007
O       -1.87713176       0.56174130       0.13894354
C       -0.11217602       1.14323147       0.02807563
O       -0.04155255       2.28574290       0.25780560
H        2.08216654       0.03353680       0.89285466
H        2.52087984      -0.05060334      -0.69295942
H        0.16941511      -0.52074340      -1.30732072
H       -1.99864174      -1.36693489      -0.47040752
H       -1.47785723      -1.05471346       1.29665494
11
Frame=8 idx=005935 GeodesicLength=0.4844320957288301 rxn_smarts="[N:1]([C@@:2]1([H:9])[C:3]([H:10])([H:11])[O:4][C:5]1=[O:6])([H:7])[H:8]>>[C:3](=[O:4])([H:10])[H:11].[N:1]([C:2](=[C:5]=[O:6])[H:9])([H:7])[H:8]"
N        1.82705891      -0.32772894       0.00024205
C        0.50188554      -0.03338826      -0.40380586
C       -1.58591527      -0.68371362       0.28297067
O       -1.85340155       0.56459153       0.25899049
C       -0.10885391       1.15261972       0.01066752
O       -0.04515363       2.31136976       0.14499659
H        2.07031208       0.02896966       0.91180636
H        2.52482176      -0.03512051      -0.66807631
H        0.18443726      -0.52629759      -1.30898225
H       -2.04007089      -1.30415931      -0.49983806
H       -1.47512029      -1.14714244       1.27102878
11
Frame=9 idx=005935 GeodesicLength=0.5399987321349475 rxn_smarts="[N:1]([C@@:2]1([H:9])[C:3]([H:10])([H:11])[O:4][C:5]1=[O:6])([H:7])[H:8]>>[C:3](=[O:4])([H:10])[H:11].[N:1]([C:2](=[C:5]=[O:6])[H:9])([H:7])[H:8]"
N        1.82899155      -0.32573257       0.01622978
C        0.50446574      -0.03636195      -0.40184439
C       -1.58061519      -0.69291168       0.28991306
O       -1.81449469       0.56214318       0.39156667
C       -0.10622037       1.16078718      -0.01327770
O       -0.06009810       2.32796790       0.03032355
H        2.06000538       0.03257348       0.93055659
H        2.52998626      -0.02097840      -0.64324922
H        0.20225682      -0.53944547      -1.30729500
H       -2.08671352      -1.22417578      -0.52601391
H       -1.47756387      -1.24386590       1.23309057
11
Frame=10 idx=005935 GeodesicLength=0.5964608438595013 rxn_smarts="[N:1]([C@@:2]1([H:9])[C:3]([H:10])([H:11])[O:4][C:5]1=[O:6])([H:7])[H:8]>>[C:3](=[O:4])([H:10])[H:11].[N:1]([C:2](=[C:5]=[O:6])[H:9])([H:7])[H:8]"
N        1.83939824      -0.31721503       0.03212340
C        0.50991946      -0.04781950      -0.39238109
C       -1.58243214      -0.69939172       0.29465125
O       -1.75672685       0.55109822       0.53290301
C       -0.10385375       1.16178809      -0.04065394
O       -0.08422315       2.33021686      -0.08495242
H        2.05997734       0.04887855       0.94614543
H        2.53642499       0.00354180      -0.62400804
H        0.22522944      -0.56678792      -1.29532029
H       -2.14414237      -1.12150538      -0.54825529
H       -1.49957121      -1.34280396       1.17974798
11
Frame=11 idx=005935 GeodesicLength=0.6567531628141995 rxn_smarts="[N:1]([C@@:2]1([H:9])[C:3]([H:10])([H:11])[O:4][C:5]1=[O:6])([H:7])[H:8]>>[C:3](=[O:4])([H:10])[H:11].[N:1]([C:2](=[C:5]=[O:6])[H:9])([H:7])[H:8]"
N        1.85657335      -0.30430566       0.04621359
C        0.51852584      -0.06416683      -0.37847436
C       -1.58975826      -0.70277651       0.29776957
O       -1.68311635       0.52863754       0.66908605
C       -0.10179133       1.15614586      -0.06658956
O       -0.12062161       2.31894289      -0.19403696
H        2.06847561       0.07225780       0.95824468
H        2.54430627       0.03499255      -0.61053879
H        0.25200378      -0.60263926      -1.27642586
H       -2.20250013      -1.00427031      -0.56125146
H       -1.54209718      -1.43281807       1.11600311
11
Frame=12 idx=005935 GeodesicLength=0.7201303810585641 rxn_smarts="[N:1]([C@@:2]1([H:9])[C:3]([H:10])([H:11])[O:4][C:5]1=[O:6])([H:7])[H:8]>>[C:3](=[O:4])([H:10])[H:11].[N:1]([C:2](=[C:5]=[O:6])[H:9])([H:7])[H:8]"
N        1.87624973      -0.29058921       0.05740289
C        0.52933439      -0.08028765      -0.36460533
C       -1.59851806      -0.70346956       0.30018086
O       -1.60319351       0.49659072       0.78550710
C       -0.09944095       1.14714488      -0.08659547
O       -0.16884724       2.29743504      -0.29042027
H        2.08085149       0.09467998       0.96762672
H        2.55263623       0.06716645      -0.60126496
H        0.28018328      -0.63799876      -1.25664688
H       -2.25117009      -0.88692448      -0.56278599
H       -1.59808528      -1.50374740       1.05160134
11
Frame=13 idx=005935 GeodesicLength=0.7875305514015587 rxn_smarts="[N:1]([C@@:2]1([H:9])[C:3]([H:10])([H:11])[O:4][C:5]1=[O:6])([H:7])[H:8]>>[C:3](=[O:4])([H:10])[H:11].[N:1]([C:2](=[C:5]=[O:6])[H:9])([H:7])[H:8]"
N        1.89841430      -0.27632178       0.06456280
C        0.54176693      -0.09647899      -0.35025005
C       -1.60844291      -0.70315440       0.30182711
O       -1.52378422       0.45763826       0.88052433
C       -0.09621883       1.13587967      -0.10000424
O       -0.22188397       2.26698049      -0.37460807
H        2.09697361       0.11330795       0.97448078
H        2.56057272       0.10435206      -0.59573031
H        0.30913061      -0.67151166      -1.23666722
H       -2.28991044      -0.77512507      -0.55546707
H       -1.66661779      -1.55556654       0.99133195
11
Frame=14 idx=005935 GeodesicLength=0.8576104188634145 rxn_smarts="[N:1]([C@@:2]1([H:9])[C:3]([H:10])([H:11])[O:4][C:5]1=[O:6])([H:7])[H:8]>>[C:3](=[O:4])([H:10])[H:11].[N:1]([C:2](=[C:5]=[O:6])[H:9])([H:7])[H:8]"
N        1.92026878      -0.26277753       0.06888851
C        0.55512633      -0.11069565      -0.33929028
C       -1.61729718      -0.70239137       0.30287326
O       -1.44577829       0.41380163       0.95757950
C       -0.09272449       1.12463316      -0.11051830
O       -0.27804128       2.23037152      -0.44940366
H        2.11131736       0.12456990       0.98156077
H        2.56829634       0.14497401      -0.58922223
H        0.33815146      -0.70134692      -1.22023514
H       -2.32067532      -0.67054043      -0.53920558
H       -1.73864371      -1.59059830       0.93697316
11
Frame=15 idx=005935 GeodesicLength=0.9288138386703807 rxn_smarts="[N:1]([C@@:2]1([H:9])[C:3]([H:10])([H:11])[O:4][C:5]1=[O:6])([H:7])[H:8]>>[C:3](=[O:4])([H:10])[H:11].[N:1]([C:2](=[C:5]=[O:6])[H:9])([H:7])[H:8]"
N        1.94094516      -0.25032502       0.07092775
C        0.56865197      -0.12245862      -0.33173216
C       -1.62480309      -0.70171777       0.30373386
O       -1.37202466       0.36778521       1.01866600
C       -0.08918964       1.11457965      -0.11879628
O       -0.33509078       2.18972633      -0.51507984
H        2.12376075       0.12902882       0.98881649
H        2.57531136       0.18683880      -0.58158280
H        0.36682431      -0.72661799      -1.20792626
H       -2.34265282      -0.57566340      -0.51730773
H       -1.81173257      -1.61117600       0.89028096
11
Frame=16 idx=005935 GeodesicLength=1.000831616414764 rxn_smarts="[N:1]([C@@:2]1([H:9])[C:3]([H:10])([H:11])[O:4][C:5]1=[O:6])([H:7])[H:8]>>[C:3](=[O:4])([H:10])[H:11].[N:1]([C:2](=[C:5]=[O:6])[H:9])([H:7])[H:8]"
N        1.96042447      -0.23852085       0.07134814
C        0.58210590      -0.13228607      -0.32722976
C       -1.63132248      -0.70156386       0.30424783
O       -1.30239892       0.32030314       1.06696864
C       -0.08621017       1.10549782      -0.12637640
O       -0.39097356       2.14637992      -0.57254225
H        2.13440027       0.12856950       0.99610135
H        2.58138744       0.22962055      -0.57249977
H        0.39534043      -0.74840638      -1.19922456
H       -2.35779869      -0.48954380      -0.49147730
H       -1.88495470      -1.62004998       0.85068409
