18
Frame=0 idx=006807 GeodesicLength=0.0 rxn_smarts="[C:1]([C:2]([C:3]([C@@:4]([C:5]([H:16])([H:17])[H:18])([C:6]#[N:7])[H:15])([H:13])[H:14])([H:11])[H:12])([H:8])([H:9])[H:10]>>[C:1](=[C:2]([C:3]([C@@:4]([C:5]([H:16])([H:17])[H:18])(/[C:6](=[N:7]/[H:8])[H:11])[H:15])([H:13])[H:14])[H:12])([H:9])[H:10]"
C       -2.10472471       0.38720028      -0.73424028
C       -1.35074355      -0.69965482      -0.25896630
C        0.13989556      -0.87421864      -0.56951358
C        0.98482160      -0.32380685       0.64739457
C        2.33185213       0.26165993       0.28214094
C       -0.08584646       0.64463680       1.06169566
N       -0.45547294       1.75334912       0.72934970
H       -1.58457393       1.41802139       0.20245438
H       -1.71036742       0.95176001      -1.57681521
H       -3.18592774       0.30575072      -0.71129709
H       -1.00111895      -0.17385029       1.07436643
H       -1.87366388      -1.57832866       0.11000085
H        0.38943409      -1.91688875      -0.77506114
H        0.40064209      -0.27518949      -1.44542390
H        1.08633860      -1.11540190       1.39437214
H        2.97139969      -0.49800460      -0.17137844
H        2.20855925       1.08352555      -0.42476685
H        2.83949665       0.64944028       1.16568804
18
Frame=1 idx=006807 GeodesicLength=0.11282286512521233 rxn_smarts="[C:1]([C:2]([C:3]([C@@:4]([C:5]([H:16])([H:17])[H:18])([C:6]#[N:7])[H:15])([H:13])[H:14])([H:11])[H:12])([H:8])([H:9])[H:10]>>[C:1](=[C:2]([C:3]([C@@:4]([C:5]([H:16])([H:17])[H:18])(/[C:6](=[N:7]/[H:8])[H:11])[H:15])([H:13])[H:14])[H:12])([H:9])[H:10]"
C       -2.10876276       0.38322281      -0.73622260
C       -1.35114173      -0.70023689      -0.25546640
C        0.13833738      -0.86767196      -0.57020040
C        0.98384052      -0.32255829       0.64605506
C        2.33405138       0.25535166       0.28022778
C       -0.07209853       0.65476787       1.07664874
N       -0.44154516       1.76399229       0.74654015
H       -1.59666780       1.43941766       0.20791092
H       -1.71775942       0.94276757      -1.58392287
H       -3.18852497       0.27795544      -0.73685549
H       -1.00866681      -0.16751552       1.08581276
H       -1.86586384      -1.58385272       0.11318049
H        0.39482615      -1.90689981      -0.78309267
H        0.39484659      -0.26291343      -1.44362429
H        1.08070837      -1.11668756       1.39115931
H        2.96729999      -0.51040229      -0.17186007
H        2.21667378       1.07558920      -0.42958343
H        2.84044687       0.64567398       1.16329303
18
Frame=2 idx=006807 GeodesicLength=0.22559759388978115 rxn_smarts="[C:1]([C:2]([C:3]([C@@:4]([C:5]([H:16])([H:17])[H:18])([C:6]#[N:7])[H:15])([H:13])[H:14])([H:11])[H:12])([H:8])([H:9])[H:10]>>[C:1](=[C:2]([C:3]([C@@:4]([C:5]([H:16])([H:17])[H:18])(/[C:6](=[N:7]/[H:8])[H:11])[H:15])([H:13])[H:14])[H:12])([H:9])[H:10]"
C       -2.11308699       0.37904709      -0.73822233
C       -1.35158998      -0.70083556      -0.25197892
C        0.13671308      -0.86095403      -0.57089084
C        0.98277202      -0.32119811       0.64474929
C        2.33621610       0.24893825       0.27832027
C       -0.05793177       0.66489622       1.09182683
N       -0.42727182       1.77466766       0.76419840
H       -1.60900713       1.46135672       0.21301573
H       -1.72545749       0.93332038      -1.59117584
H       -3.19035246       0.24965910      -0.76259043
H       -1.01646297      -0.16103384       1.09725813
H       -1.85791700      -1.58937289       0.11643630
H        0.40014399      -1.89660528      -0.79127589
H        0.38893383      -0.25032725      -1.44168028
H        1.07494627      -1.11789659       1.38791286
H        2.96297845      -0.52287958      -0.17247145
H        2.22479229       1.06759483      -0.43428436
H        2.84158159       0.64162286       1.16085253
18
Frame=3 idx=006807 GeodesicLength=0.33833154765203366 rxn_smarts="[C:1]([C:2]([C:3]([C@@:4]([C:5]([H:16])([H:17])[H:18])([C:6]#[N:7])[H:15])([H:13])[H:14])([H:11])[H:12])([H:8])([H:9])[H:10]>>[C:1](=[C:2]([C:3]([C@@:4]([C:5]([H:16])([H:17])[H:18])(/[C:6](=[N:7]/[H:8])[H:11])[H:15])([H:13])[H:14])[H:12])([H:9])[H:10]"
C       -2.11769925       0.37464761      -0.74027367
C       -1.35208669      -0.70145702      -0.24851523
C        0.13502408      -0.85406401      -0.57158273
C        0.98161483      -0.31972306       0.64347888
C        2.33834103       0.24242099       0.27641665
C       -0.04333208       0.67500757       1.10723803
N       -0.41264283       1.78536284       0.78234955
H       -1.62162092       1.48385614       0.21773298
H       -1.73344478       0.92340486      -1.59858303
H       -3.19138971       0.22089802      -0.78842553
H       -1.02452632      -0.15440421       1.10868908
H       -1.84981897      -1.59489128       0.11975600
H        0.40538811      -1.88599923      -0.79960538
H        0.38290608      -0.23743023      -1.43958491
H        1.06905235      -1.11902617       1.38463190
H        2.95842929      -0.53543115      -0.17321369
H        2.23290701       1.05954186      -0.43887355
H        2.84289877       0.63728645       1.15836465
18
Frame=4 idx=006807 GeodesicLength=0.45104282654258493 rxn_smarts="[C:1]([C:2]([C:3]([C@@:4]([C:5]([H:16])([H:17])[H:18])([C:6]#[N:7])[H:15])([H:13])[H:14])([H:11])[H:12])([H:8])([H:9])[H:10]>>[C:1](=[C:2]([C:3]([C@@:4]([C:5]([H:16])([H:17])[H:18])(/[C:6](=[N:7]/[H:8])[H:11])[H:15])([H:13])[H:14])[H:12])([H:9])[H:10]"
C       -2.12259978       0.36999758      -0.74241316
C       -1.35262939      -0.70210736      -0.24508676
C        0.13327235      -0.84700017      -0.57227385
C        0.98036829      -0.31812893       0.64224520
C        2.34042208       0.23580036       0.27451461
C       -0.02828286       0.68508769       1.12289146
N       -0.39764576       1.79606518       0.80101999
H       -1.63455089       1.50692998       0.22202688
H       -1.74170256       0.91301126      -1.60615411
H       -3.19162257       0.19170910      -0.81428322
H       -1.03287683      -0.14762359       1.12009033
H       -1.84156387      -1.60040942       0.12312860
H        0.41056001      -1.87507562      -0.80807524
H        0.37676601      -0.22422199      -1.43733123
H        1.06302710      -1.12007174       1.38131618
H        2.95364741      -0.54805417      -0.17408844
H        2.24101267       1.05142945      -0.44335437
H        2.84439857       0.63266240       1.15582710
18
Frame=5 idx=006807 GeodesicLength=0.5637370961475391 rxn_smarts="[C:1]([C:2]([C:3]([C@@:4]([C:5]([H:16])([H:17])[H:18])([C:6]#[N:7])[H:15])([H:13])[H:14])([H:11])[H:12])([H:8])([H:9])[H:10]>>[C:1](=[C:2]([C:3]([C@@:4]([C:5]([H:16])([H:17])[H:18])(/[C:6](=[N:7]/[H:8])[H:11])[H:15])([H:13])[H:14])[H:12])([H:9])[H:10]"
C       -2.12778799       0.36506827      -0.74467935
C       -1.35321505      -0.70279455      -0.24170598
C        0.13146240      -0.83976052      -0.57296395
C        0.97903224      -0.31641109       0.64104970
C        2.34245692       0.22907686       0.27261459
C       -0.01276707       0.69512204       1.13879377
N       -0.38226732       1.80676097       0.82023130
H       -1.64783855       1.53059330       0.22585898
H       -1.75021541       0.90212699      -1.61390329
H       -3.19105600       0.16213815      -0.84007246
H       -1.04153307      -0.14068813       1.13144552
H       -1.83314641      -1.60593197       0.12654227
H        0.41566592      -1.86382945      -0.81668222
H        0.37051889      -0.21070076      -1.43491389
H        1.05687045      -1.12102936       1.37796497
H        2.94863061      -0.56074505      -0.17509375
H        2.24910664       1.04325716      -0.44772782
H        2.84608280       0.62774714       1.15324163
18
Frame=6 idx=006807 GeodesicLength=0.6764296261743703 rxn_smarts="[C:1]([C:2]([C:3]([C@@:4]([C:5]([H:16])([H:17])[H:18])([C:6]#[N:7])[H:15])([H:13])[H:14])([H:11])[H:12])([H:8])([H:9])[H:10]>>[C:1](=[C:2]([C:3]([C@@:4]([C:5]([H:16])([H:17])[H:18])(/[C:6](=[N:7]/[H:8])[H:11])[H:15])([H:13])[H:14])[H:12])([H:9])[H:10]"
C       -2.13326065       0.35982730      -0.74711264
C       -1.35383989      -0.70352442      -0.23838398
C        0.12959694      -0.83234041      -0.57365074
C        0.97760791      -0.31456475       0.63989473
C        2.34444350       0.22224943       0.27071537
C        0.00323611       0.70509513       1.15495608
N       -0.36649325       1.81743514       0.84001229
H       -1.66153347       1.55486428       0.22918514
H       -1.75896351       0.89073897      -1.62184578
H       -3.18969728       0.13221963      -0.86570882
H       -1.05051558      -0.13359080       1.14273704
H       -1.82455658      -1.61145841       0.12998897
H        0.42070747      -1.85224851      -0.82542289
H        0.36416714      -0.19686005      -1.43232337
H        1.05058344      -1.12189593       1.37457706
H        2.94337395      -0.57350236      -0.17623183
H        2.25718764       1.03502434      -0.45199423
H        2.84795611       0.62253141       1.15060759
18
Frame=7 idx=006807 GeodesicLength=0.7891328466156351 rxn_smarts="[C:1]([C:2]([C:3]([C@@:4]([C:5]([H:16])([H:17])[H:18])([C:6]#[N:7])[H:15])([H:13])[H:14])([H:11])[H:12])([H:8])([H:9])[H:10]>>[C:1](=[C:2]([C:3]([C@@:4]([C:5]([H:16])([H:17])[H:18])(/[C:6](=[N:7]/[H:8])[H:11])[H:15])([H:13])[H:14])[H:12])([H:9])[H:10]"
C       -2.13901430       0.35424397      -0.74975230
C       -1.35450002      -0.70430245      -0.23513020
C        0.12768047      -0.82473487      -0.57433223
C        0.97609800      -0.31258426       0.63878257
C        2.34638234       0.21531559       0.26881629
C        0.01974970       0.71499181       1.17138865
N       -0.35030249       1.82807369       0.86039014
H       -1.67569628       1.57975727       0.23196991
H       -1.76792949       0.87883981      -1.62999720
H       -3.18756707       0.10198550      -0.89111782
H       -1.05984327      -0.12632008       1.15394586
H       -1.81578676      -1.61698985       0.13346389
H        0.42569080      -1.84032400      -0.83429522
H        0.35771489      -0.18269361      -1.42955155
H        1.04416811      -1.12266688       1.37115195
H        2.93787390      -0.58632590      -0.17750364
H        2.26525688       1.02672928      -0.45615409
H        2.85002458       0.61700496       1.14792499
18
Frame=8 idx=006807 GeodesicLength=0.901866648143504 rxn_smarts="[C:1]([C:2]([C:3]([C@@:4]([C:5]([H:16])([H:17])[H:18])([C:6]#[N:7])[H:15])([H:13])[H:14])([H:11])[H:12])([H:8])([H:9])[H:10]>>[C:1](=[C:2]([C:3]([C@@:4]([C:5]([H:16])([H:17])[H:18])(/[C:6](=[N:7]/[H:8])[H:11])[H:15])([H:13])[H:14])[H:12])([H:9])[H:10]"
C       -2.14504511       0.34828490      -0.75263964
C       -1.35519168      -0.70513189      -0.23195277
C        0.12571753      -0.81693362      -0.57500551
C        0.97450576      -0.31046253       0.63771623
C        2.34827562       0.20827085       0.26691658
C        0.03680218       0.72479498       1.18810842
N       -0.33367455       1.83865868       0.88140088
H       -1.69039216       1.60529584       0.23416592
H       -1.77709796       0.86641286      -1.63838015
H       -3.18469529       0.07145898      -0.91622464
H       -1.06953683      -0.11886102       1.16505250
H       -1.80682520      -1.62252525       0.13696522
H        0.43062230      -1.82803752      -0.84329853
H        0.35116454      -0.16818735      -1.42658674
H        1.03762607      -1.12333713       1.36768761
H        2.93212689      -0.59921872      -0.17891470
H        2.27331821       1.01836873      -0.46020535
H        2.85229966       0.61114922       1.14519467
18
Frame=9 idx=006807 GeodesicLength=1.0147813768764973 rxn_smarts="[C:1]([C:2]([C:3]([C@@:4]([C:5]([H:16])([H:17])[H:18])([C:6]#[N:7])[H:15])([H:13])[H:14])([H:11])[H:12])([H:8])([H:9])[H:10]>>[C:1](=[C:2]([C:3]([C@@:4]([C:5]([H:16])([H:17])[H:18])(/[C:6](=[N:7]/[H:8])[H:11])[H:15])([H:13])[H:14])[H:12])([H:9])[H:10]"
C       -2.15136295       0.34188397      -0.75581496
C       -1.35590579      -0.70600992      -0.22884398
C        0.12370989      -0.80889680      -0.57566933
C        0.97284907      -0.30819933       0.63670705
C        2.35014908       0.20109634       0.26502988
C        0.05445321       0.73448215       1.20515021
N       -0.31655611       1.84915981       0.90309810
H       -1.70575725       1.63154094       0.23563668
H       -1.78650264       0.85340429      -1.64703365
H       -3.18118151       0.04062819      -0.94096826
H       -1.07960593      -0.11115523       1.17603550
H       -1.79764247      -1.62805095       0.14051863
H        0.43550186      -1.81533931      -0.85247093
H        0.34450679      -0.15327230      -1.42339764
H        1.03096554      -1.12392683       1.36417600
H        2.92614054      -0.61219481      -0.18046756
H        2.28141078       1.00994884      -0.46411519
H        2.85482790       0.60490096       1.14242945
18
Frame=10 idx=006807 GeodesicLength=1.127733748166511 rxn_smarts="[C:1]([C:2]([C:3]([C@@:4]([C:5]([H:16])([H:17])[H:18])([C:6]#[N:7])[H:15])([H:13])[H:14])([H:11])[H:12])([H:8])([H:9])[H:10]>>[C:1](=[C:2]([C:3]([C@@:4]([C:5]([H:16])([H:17])[H:18])(/[C:6](=[N:7]/[H:8])[H:11])[H:15])([H:13])[H:14])[H:12])([H:9])[H:10]"
C       -2.15794553       0.33504995      -0.75930481
C       -1.35664277      -0.70693879      -0.22581875
C        0.12166085      -0.80064045      -0.57631524
C        0.97112063      -0.30578117       0.63575231
C        2.35198318       0.19379887       0.26313703
C        0.07271051       0.74403902       1.22251513
N       -0.29894073       1.85957066       0.92550913
H       -1.72181693       1.65847807       0.23643635
H       -1.79607877       0.83984248      -1.65595180
H       -3.17699228       0.00951098      -0.96533045
H       -1.09007487      -0.10321671       1.18688124
H       -1.78824604      -1.63356719       0.14410661
H        0.44033075      -1.80224192      -0.86177283
H        0.33774954      -0.13798550      -1.41998592
H        1.02418641      -1.12440948       1.36062089
H        2.91989721      -0.62524716      -0.18217608
H        2.28950596       1.00145894      -0.46791362
H        2.85759288       0.59827939       1.13961080
18
Frame=11 idx=006807 GeodesicLength=1.2407268158313711 rxn_smarts="[C:1]([C:2]([C:3]([C@@:4]([C:5]([H:16])([H:17])[H:18])([C:6]#[N:7])[H:15])([H:13])[H:14])([H:11])[H:12])([H:8])([H:9])[H:10]>>[C:1](=[C:2]([C:3]([C@@:4]([C:5]([H:16])([H:17])[H:18])(/[C:6](=[N:7]/[H:8])[H:11])[H:15])([H:13])[H:14])[H:12])([H:9])[H:10]"
C       -2.16478775       0.32774983      -0.76314172
C       -1.35739893      -0.70791515      -0.22287841
C        0.11957077      -0.79214806      -0.57693911
C        0.96932598      -0.30320089       0.63485705
C        2.35378468       0.18637057       0.26123713
C        0.09161082       0.75345047       1.24021801
N       -0.28078426       1.86987878       0.94867308
H       -1.73866563       1.68612917       0.23653825
H       -1.80581350       0.82571301      -1.66515129
H       -3.17216415      -0.02191054      -0.98929015
H       -1.10096215      -0.09501444       1.19757315
H       -1.77862399      -1.63906092       0.14773766
H        0.44510478      -1.78872401      -0.87120925
H        0.33088984      -0.12230353      -1.41633607
H        1.01729208      -1.12478465       1.35701997
H        2.91339124      -0.63838323      -0.18404757
H        2.29761409       0.99289654      -0.47159761
H        2.86061608       0.59125706       1.13673688
18
Frame=12 idx=006807 GeodesicLength=1.3537468633268743 rxn_smarts="[C:1]([C:2]([C:3]([C@@:4]([C:5]([H:16])([H:17])[H:18])([C:6]#[N:7])[H:15])([H:13])[H:14])([H:11])[H:12])([H:8])([H:9])[H:10]>>[C:1](=[C:2]([C:3]([C@@:4]([C:5]([H:16])([H:17])[H:18])(/[C:6](=[N:7]/[H:8])[H:11])[H:15])([H:13])[H:14])[H:12])([H:9])[H:10]"
C       -2.17188370       0.31995820      -0.76735328
C       -1.35817098      -0.70893328      -0.22002135
C        0.11743974      -0.78340175      -0.57753327
C        0.96747207      -0.30045067       0.63402709
C        2.35555708       0.17880232       0.25932486
C        0.11119736       0.76269539       1.25828276
N       -0.26204939       1.88006187       0.97264187
H       -1.75639397       1.71452825       0.23589681
H       -1.81569382       0.81099597      -1.67465140
H       -3.16672870      -0.05366197      -1.01283543
H       -1.11228615      -0.08651788       1.20809489
H       -1.76876308      -1.64451893       0.15142292
H        0.44981862      -1.77475865      -0.88078165
H        0.32392228      -0.10620189      -1.41242725
H        1.01028844      -1.12505061       1.35337003
H        2.90661361      -0.65160940      -0.18609731
H        2.30574140       0.98426078      -0.47516386
H        2.86391917       0.58380224       1.13380357
18
Frame=13 idx=006807 GeodesicLength=1.4667713298930842 rxn_smarts="[C:1]([C:2]([C:3]([C@@:4]([C:5]([H:16])([H:17])[H:18])([C:6]#[N:7])[H:15])([H:13])[H:14])([H:11])[H:12])([H:8])([H:9])[H:10]>>[C:1](=[C:2]([C:3]([C@@:4]([C:5]([H:16])([H:17])[H:18])(/[C:6](=[N:7]/[H:8])[H:11])[H:15])([H:13])[H:14])[H:12])([H:9])[H:10]"
C       -2.17923064       0.31164684      -0.77196588
C       -1.35895568      -0.70998713      -0.21724491
C        0.11526879      -0.77438051      -0.57809187
C        0.96556628      -0.29752253       0.63326888
C        2.35730711       0.17108473       0.25739845
C        0.13151515       0.77175100       1.27673169
N       -0.24269203       1.89009695       0.99746764
H       -1.77510053       1.74371243       0.23446268
H       -1.82571261       0.79566276      -1.68447401
H       -3.16072293      -0.08576855      -1.03595209
H       -1.12406389      -0.07769041       1.21842925
H       -1.75865173      -1.64992862       0.15517567
H        0.45447015      -1.76031740      -0.89049792
H        0.31684162      -0.08964957      -1.40823898
H        1.00318021      -1.12520676       1.34966714
H        2.89955723      -0.66493146      -0.18833833
H        2.31389706       0.97554991      -0.47860705
H        2.86752643       0.57587831       1.13080963
18
Frame=14 idx=006807 GeodesicLength=1.5797979836256286 rxn_smarts="[C:1]([C:2]([C:3]([C@@:4]([C:5]([H:16])([H:17])[H:18])([C:6]#[N:7])[H:15])([H:13])[H:14])([H:11])[H:12])([H:8])([H:9])[H:10]>>[C:1](=[C:2]([C:3]([C@@:4]([C:5]([H:16])([H:17])[H:18])(/[C:6](=[N:7]/[H:8])[H:11])[H:15])([H:13])[H:14])[H:12])([H:9])[H:10]"
C       -2.18682561       0.30278336      -0.77700639
C       -1.35975059      -0.71106439      -0.21454039
C        0.11305485      -0.76505732      -0.57860450
C        0.96361749      -0.29440609       0.63259002
C        2.35904136       0.16320325       0.25545029
C        0.15261799       0.78059131       1.29559481
N       -0.22265524       1.89995933       1.02321742
H       -1.79491950       1.77371693       0.23218853
H       -1.83585731       0.77969181      -1.69463673
H       -3.15416298      -0.11828464      -1.05866139
H       -1.13631286      -0.06847952       1.22855662
H       -1.74827474      -1.65526834       0.15902104
H        0.45904881      -1.74536212      -0.90036292
H        0.30963581      -0.07260858      -1.40374269
H        0.99597322      -1.12525057       1.34590668
H        2.89220926      -0.67836216      -0.19079250
H        2.32209279       0.96675856      -0.48192422
H        2.87146726       0.56743920       1.12774632
18
Frame=15 idx=006807 GeodesicLength=1.6928034448368676 rxn_smarts="[C:1]([C:2]([C:3]([C@@:4]([C:5]([H:16])([H:17])[H:18])([C:6]#[N:7])[H:15])([H:13])[H:14])([H:11])[H:12])([H:8])([H:9])[H:10]>>[C:1](=[C:2]([C:3]([C@@:4]([C:5]([H:16])([H:17])[H:18])(/[C:6](=[N:7]/[H:8])[H:11])[H:15])([H:13])[H:14])[H:12])([H:9])[H:10]"
C       -2.19466862       0.29333249      -0.78250001
C       -1.36055383      -0.71215441      -0.21189828
C        0.11079529      -0.75540393      -0.57906222
C        0.96163448      -0.29109104       0.63199826
C        2.36076624       0.15514376       0.25347422
C        0.17456063       0.78918634       1.31490101
N       -0.20187848       1.90962052       1.04995939
H       -1.81598350       1.80458478       0.22901988
H       -1.84611951       0.76305347      -1.70515892
H       -3.14706488      -0.15126043      -1.08097932
H       -1.14905058      -0.05882897       1.23845617
H       -1.73761799      -1.66051770       0.16298572
H        0.46354589      -1.72985459      -0.91038678
H        0.30229208      -0.05503793      -1.39891008
H        0.98867319      -1.12518129       1.34208311
H        2.88455786      -0.69191201      -0.19348013
H        2.33034015       0.95788342      -0.48511043
H        2.87577160       0.55843752       1.12460842
18
Frame=16 idx=006807 GeodesicLength=1.8057670464726487 rxn_smarts="[C:1]([C:2]([C:3]([C@@:4]([C:5]([H:16])([H:17])[H:18])([C:6]#[N:7])[H:15])([H:13])[H:14])([H:11])[H:12])([H:8])([H:9])[H:10]>>[C:1](=[C:2]([C:3]([C@@:4]([C:5]([H:16])([H:17])[H:18])(/[C:6](=[N:7]/[H:8])[H:11])[H:15])([H:13])[H:14])[H:12])([H:9])[H:10]"
C       -2.20276098       0.28325697      -0.78847173
C       -1.36136418      -0.71324107      -0.20930536
C        0.10848531      -0.74538675      -0.57945312
C        0.95962715      -0.28756590       0.63150299
C        2.36248953       0.14688942       0.25146220
C        0.19740576       0.79750216       1.33468329
N       -0.18029459       1.91904708       1.07777215
H       -1.83844906       1.83635963       0.22489269
H       -1.85648742       0.74571420      -1.71605926
H       -3.13942983      -0.18476044      -1.10293358
H       -1.16229588      -0.04867239       1.24810599
H       -1.72666553      -1.66565009       0.16710168
H        0.46794789      -1.71374818      -0.92058064
H        0.29479343      -0.03688865      -1.39370556
H        0.98128590      -1.12499758       1.33819078
H        2.87658676      -0.70559469      -0.19642707
H        2.33865211       0.94891960      -0.48816163
H        2.88047363       0.54881667       1.12138618
