9
Frame=0 idx=006321 GeodesicLength=0.0 rxn_smarts="[O:1]=[c:2]1[n:3]([H:7])[c:4]([H:8])[c:5]([H:9])[o:6]1>>[O:1]=[C:2]1[N:3]([H:7])[C:4]([H:8])([H:9])[C-:5]=[O+:6]1"
O        2.24149579      -0.83433916       0.37468865
C        1.09122956      -0.54764169       0.28422683
N        0.51457392       0.65868460      -0.05718356
C       -0.85607542       0.50494627      -0.05658567
C       -1.19409689      -0.79241988       0.38479120
O        0.03549834      -1.40783246       0.49586063
H        1.05332204       1.43539453      -0.39238929
H       -1.54058627       1.33665896      -0.13737767
H       -1.34536103      -0.35345120      -0.89603108
9
Frame=1 idx=006321 GeodesicLength=0.03501349829717935 rxn_smarts="[O:1]=[c:2]1[n:3]([H:7])[c:4]([H:8])[c:5]([H:9])[o:6]1>>[O:1]=[C:2]1[N:3]([H:7])[C:4]([H:8])([H:9])[C-:5]=[O+:6]1"
O        2.24298253      -0.83485105       0.37592129
C        1.09328113      -0.54434281       0.28964426
N        0.51674200       0.65756334      -0.06140298
C       -0.85580910       0.50463282      -0.06666729
C       -1.18981230      -0.79139807       0.38127045
O        0.03607034      -1.40639800       0.49990601
H        1.05688067       1.43641855      -0.38904287
H       -1.53890521       1.33933242      -0.12602235
H       -1.36143006      -0.36095719      -0.90360652
9
Frame=2 idx=006321 GeodesicLength=0.0700492886803134 rxn_smarts="[O:1]=[c:2]1[n:3]([H:7])[c:4]([H:8])[c:5]([H:9])[o:6]1>>[O:1]=[C:2]1[N:3]([H:7])[C:4]([H:8])([H:9])[C-:5]=[O+:6]1"
O        2.24446644      -0.83506215       0.37810273
C        1.09536382      -0.54107798       0.29467012
N        0.51898512       0.65632636      -0.06607923
C       -0.85548642       0.50431810      -0.07691994
C       -1.18545580      -0.79036789       0.37756216
O        0.03667074      -1.40499931       0.50356205
H        1.06042003       1.43745605      -0.38579542
H       -1.53677055       1.34183646      -0.11421840
H       -1.37819338      -0.36842965      -0.91088407
9
Frame=3 idx=006321 GeodesicLength=0.10512202195788625 rxn_smarts="[O:1]=[c:2]1[n:3]([H:7])[c:4]([H:8])[c:5]([H:9])[o:6]1>>[O:1]=[C:2]1[N:3]([H:7])[C:4]([H:8])([H:9])[C-:5]=[O+:6]1"
O        2.24599664      -0.83466979       0.38220881
C        1.09751019      -0.53799322       0.29881898
N        0.52132463       0.65487687      -0.07151011
C       -0.85510694       0.50400869      -0.08724409
C       -1.18098069      -0.78937573       0.37364515
O        0.03734562      -1.40378028       0.50640063
H        1.06395088       1.43841231      -0.38298224
H       -1.53409310       1.34420944      -0.10161533
H       -1.39594723      -0.37568829      -0.91772180
9
Frame=4 idx=006321 GeodesicLength=0.1402240495869283 rxn_smarts="[O:1]=[c:2]1[n:3]([H:7])[c:4]([H:8])[c:5]([H:9])[o:6]1>>[O:1]=[C:2]1[N:3]([H:7])[C:4]([H:8])([H:9])[C-:5]=[O+:6]1"
O        2.24759661      -0.83356481       0.38849185
C        1.09972626      -0.53511449       0.30202427
N        0.52376397       0.65315650      -0.07785063
C       -0.85468692       0.50370506      -0.09760664
C       -1.17637910      -0.78844341       0.36949520
O        0.03810987      -1.40279932       0.50827779
H        1.06747423       1.43927367      -0.38064930
H       -1.53080024       1.34645198      -0.08815088
H       -1.41480467      -0.38266519      -0.92403167
9
Frame=5 idx=006321 GeodesicLength=0.17535825733782845 rxn_smarts="[O:1]=[c:2]1[n:3]([H:7])[c:4]([H:8])[c:5]([H:9])[o:6]1>>[O:1]=[C:2]1[N:3]([H:7])[C:4]([H:8])([H:9])[C-:5]=[O+:6]1"
O        2.24930286      -0.83135326       0.39814949
C        1.10205626      -0.53261572       0.30369541
N        0.52636722       0.65100028      -0.08564035
C       -0.85420206       0.50341371      -0.10794131
C       -1.17157675      -0.78760276       0.36512682
O        0.03903922      -1.40223228       0.50865521
H        1.07094501       1.43993359      -0.37902117
H       -1.52673668       1.34858257      -0.07344705
H       -1.43519508      -0.38912612      -0.92957704
9
Frame=6 idx=006321 GeodesicLength=0.2105720570556004 rxn_smarts="[O:1]=[c:2]1[n:3]([H:7])[c:4]([H:8])[c:5]([H:9])[o:6]1>>[O:1]=[C:2]1[N:3]([H:7])[C:4]([H:8])([H:9])[C-:5]=[O+:6]1"
O        2.25091014      -0.82939408       0.40662015
C        1.10433916      -0.52980233       0.30618909
N        0.52900342       0.64882733      -0.09351090
C       -0.85370619       0.50312969      -0.11856431
C       -1.16680404      -0.78671711       0.36053717
O        0.03992345      -1.40146143       0.50947656
H        1.07435914       1.44086909      -0.37656115
H       -1.52219701       1.35035214      -0.05931097
H       -1.45582807      -0.39580330      -0.93487564
9
Frame=7 idx=006321 GeodesicLength=0.24576518357285956 rxn_smarts="[O:1]=[c:2]1[n:3]([H:7])[c:4]([H:8])[c:5]([H:9])[o:6]1>>[O:1]=[C:2]1[N:3]([H:7])[C:4]([H:8])([H:9])[C-:5]=[O+:6]1"
O        2.25248742      -0.82728890       0.41530373
C        1.10662901      -0.52686226       0.30882794
N        0.53171512       0.64647925      -0.10191699
C       -0.85319332       0.50281979      -0.12935577
C       -1.16197562      -0.78585605       0.35568385
O        0.04084941      -1.40067998       0.51013081
H        1.07771367       1.44196143      -0.37371876
H       -1.51708802       1.35183278      -0.04525971
H       -1.47713766      -0.40240606      -0.93969511
9
Frame=8 idx=006321 GeodesicLength=0.28113183187505936 rxn_smarts="[O:1]=[c:2]1[n:3]([H:7])[c:4]([H:8])[c:5]([H:9])[o:6]1>>[O:1]=[C:2]1[N:3]([H:7])[C:4]([H:8])([H:9])[C-:5]=[O+:6]1"
O        2.25406049      -0.82479647       0.42486405
C        1.10893766      -0.52389649       0.31129116
N        0.53455186       0.64385997      -0.11115392
C       -0.85262339       0.50251293      -0.14025712
C       -1.15706001      -0.78504622       0.35057261
O        0.04184127      -1.40000002       0.51031461
H        1.08096962       1.44314752      -0.37063046
H       -1.51132594       1.35306779      -0.03106511
H       -1.49935157      -0.40884902      -0.94393582
9
Frame=9 idx=006321 GeodesicLength=0.3163580617073186 rxn_smarts="[O:1]=[c:2]1[n:3]([H:7])[c:4]([H:8])[c:5]([H:9])[o:6]1>>[O:1]=[C:2]1[N:3]([H:7])[C:4]([H:8])([H:9])[C-:5]=[O+:6]1"
O        2.25562645      -0.82177638       0.43561364
C        1.11131309      -0.52093699       0.31345545
N        0.53748825       0.64089488      -0.12146416
C       -0.85207158       0.50220510      -0.15123120
C       -1.15205093      -0.78431421       0.34517054
O        0.04294786      -1.39948826       0.50983360
H        1.08411424       1.44438501      -0.36725002
H       -1.50477972       1.35402973      -0.01675274
H       -1.52258766      -0.41499888      -0.94737511
9
Frame=10 idx=006321 GeodesicLength=0.3516391229585318 rxn_smarts="[O:1]=[c:2]1[n:3]([H:7])[c:4]([H:8])[c:5]([H:9])[o:6]1>>[O:1]=[C:2]1[N:3]([H:7])[C:4]([H:8])([H:9])[C-:5]=[O+:6]1"
O        2.25711859      -0.81758595       0.44935580
C        1.11378210      -0.51821346       0.31455088
N        0.54067016       0.63743254      -0.13317107
C       -0.85140184       0.50191080      -0.16211714
C       -1.14678750      -0.78378506       0.33938792
O        0.04429698      -1.39944817       0.50782483
H        1.08699437       1.44530890      -0.36443706
H       -1.49733653       1.35475760      -0.00160353
H       -1.54733633      -0.42037721      -0.94979063
9
Frame=11 idx=006321 GeodesicLength=0.38697396125365785 rxn_smarts="[O:1]=[c:2]1[n:3]([H:7])[c:4]([H:8])[c:5]([H:9])[o:6]1>>[O:1]=[C:2]1[N:3]([H:7])[C:4]([H:8])([H:9])[C-:5]=[O+:6]1"
O        2.25846656      -0.81267812       0.46463188
C        1.11630057      -0.51548413       0.31539142
N        0.54397771       0.63372952      -0.14545099
C       -0.85069168       0.50163585      -0.17286498
C       -1.14139196      -0.78349678       0.33305947
O        0.04580335      -1.39967933       0.50492332
H        1.08969484       1.44596676      -0.36217038
H       -1.48914664       1.35517104       0.01392870
H       -1.57301276      -0.42516482      -0.95144845
9
Frame=12 idx=006321 GeodesicLength=0.42234497520345143 rxn_smarts="[O:1]=[c:2]1[n:3]([H:7])[c:4]([H:8])[c:5]([H:9])[o:6]1>>[O:1]=[C:2]1[N:3]([H:7])[C:4]([H:8])([H:9])[C-:5]=[O+:6]1"
O        2.25962847      -0.80734807       0.48058190
C        1.11881023      -0.51258896       0.31650269
N        0.54737120       0.63000563      -0.15759348
C       -0.84993506       0.50139964      -0.18341589
C       -1.13590445      -0.78348516       0.32606568
O        0.04742754      -1.40007181       0.50146042
H        1.09224258       1.44629093      -0.36065512
H       -1.48041136       1.35517841       0.02958476
H       -1.59922914      -0.42938062      -0.95253094
9
Frame=13 idx=006321 GeodesicLength=0.4577422997812696 rxn_smarts="[O:1]=[c:2]1[n:3]([H:7])[c:4]([H:8])[c:5]([H:9])[o:6]1>>[O:1]=[C:2]1[N:3]([H:7])[C:4]([H:8])([H:9])[C-:5]=[O+:6]1"
O        2.26058319      -0.80162330       0.49715164
C        1.12132072      -0.50954688       0.31789678
N        0.55082313       0.62635001      -0.16934151
C       -0.84915990       0.50123863      -0.19371866
C       -1.13032769      -0.78378267       0.31834692
O        0.04918910      -1.40063425       0.49747056
H        1.09472328       1.44623729      -0.36008367
H       -1.47124665       1.35474555       0.04533989
H       -1.62590519      -0.43298437      -0.95306196
9
Frame=14 idx=006321 GeodesicLength=0.4931702830938882 rxn_smarts="[O:1]=[c:2]1[n:3]([H:7])[c:4]([H:8])[c:5]([H:9])[o:6]1>>[O:1]=[C:2]1[N:3]([H:7])[C:4]([H:8])([H:9])[C-:5]=[O+:6]1"
O        2.26139129      -0.79590811       0.51327627
C        1.12375792      -0.50619973       0.32006963
N        0.55432031       0.62287403      -0.18036293
C       -0.84835053       0.50114786      -0.20386736
C       -1.12470737      -0.78434217       0.30992876
O        0.05102112      -1.40120165       0.49344676
H        1.09716621       1.44595942      -0.36006966
H       -1.46183560       1.35384225       0.06074614
H       -1.65276334      -0.43617189      -0.95316762
9
Frame=15 idx=006321 GeodesicLength=0.5286152412877876 rxn_smarts="[O:1]=[c:2]1[n:3]([H:7])[c:4]([H:8])[c:5]([H:9])[o:6]1>>[O:1]=[C:2]1[N:3]([H:7])[C:4]([H:8])([H:9])[C-:5]=[O+:6]1"
O        2.26206216      -0.79016957       0.52912174
C        1.12613478      -0.50260961       0.32283584
N        0.55786902       0.61956578      -0.19071222
C       -0.84750707       0.50113025      -0.21387037
C       -1.11902786      -0.78516266       0.30081021
O        0.05293596      -1.40178185       0.48937083
H        1.09961692       1.44548996      -0.36057810
H       -1.45222066       1.35247065       0.07580230
H       -1.67986327      -0.43893294      -0.95278024
9
Frame=16 idx=006321 GeodesicLength=0.5640704360766718 rxn_smarts="[O:1]=[c:2]1[n:3]([H:7])[c:4]([H:8])[c:5]([H:9])[o:6]1>>[O:1]=[C:2]1[N:3]([H:7])[C:4]([H:8])([H:9])[C-:5]=[O+:6]1"
O        2.26263688      -0.78452388       0.54444315
C        1.12843057      -0.49876067       0.32623918
N        0.56147681       0.61643724      -0.20037230
C       -0.84661359       0.50117940      -0.22378083
C       -1.11329134      -0.78621931       0.29100545
O        0.05491062      -1.40231824       0.48539935
H        1.10209218       1.44490933      -0.36140445
H       -1.44247794       1.35063294       0.09035757
H       -1.70716418      -0.44133680      -0.95188712
