14
Frame=0 idx=008369 GeodesicLength=0.0 rxn_smarts="[O:1]([C@@:2]1([H:9])[C:3]([H:10])([H:11])[N:4]([H:12])[C@:5]1([C:6](=[O:7])[H:14])[H:13])[H:8]>>[O:1]=[C:2]([C:5]([N:4]([C:3]([H:8])([H:10])[H:11])[H:12])([C:6](=[O:7])[H:14])[H:13])[H:9]"
O       -0.63395369      -1.70031710       0.85861062
C       -0.60625561      -0.95440028      -0.23466686
C       -1.20785548       0.77203097       0.08921421
N       -0.03144606       1.11037679      -0.70362007
C        0.65377926      -0.16698698      -0.64727242
C        1.72315802      -0.26835093       0.42331782
O        2.05659503       0.67063310       1.09244501
H       -1.14324490      -0.45196289       0.82388614
H       -1.24171531      -1.24041198      -1.08451653
H       -1.20121743       1.16827021       1.11735025
H       -2.16785628       0.96979864      -0.38335342
H        0.52175986       1.85214748      -0.29273894
H        1.08573939      -0.49991445      -1.59889914
H        2.19251316      -1.26091259       0.54024329
14
Frame=1 idx=008369 GeodesicLength=0.09070003865757575 rxn_smarts="[O:1]([C@@:2]1([H:9])[C:3]([H:10])([H:11])[N:4]([H:12])[C@:5]1([C:6](=[O:7])[H:14])[H:13])[H:8]>>[O:1]=[C:2]([C:5]([N:4]([C:3]([H:8])([H:10])[H:11])[H:12])([C:6](=[O:7])[H:14])[H:13])[H:9]"
O       -0.63063241      -1.71525374       0.84190650
C       -0.60168356      -0.96414347      -0.24579736
C       -1.20466892       0.77196724       0.09793352
N       -0.03745366       1.10541562      -0.71216134
C        0.65472737      -0.16785351      -0.64795234
C        1.71977820      -0.26303460       0.42763906
O        2.05107652       0.68021931       1.09180170
H       -1.16187241      -0.46367695       0.83662305
H       -1.24032394      -1.24164888      -1.09596839
H       -1.17507072       1.17263482       1.12359860
H       -2.16663283       0.98812063      -0.36282106
H        0.51734456       1.85485132      -0.31815586
H        1.09379989      -0.50029003      -1.59639854
H        2.18161191      -1.25730775       0.55975246
14
Frame=2 idx=008369 GeodesicLength=0.18134707002697822 rxn_smarts="[O:1]([C@@:2]1([H:9])[C:3]([H:10])([H:11])[N:4]([H:12])[C@:5]1([C:6](=[O:7])[H:14])[H:13])[H:8]>>[O:1]=[C:2]([C:5]([N:4]([C:3]([H:8])([H:10])[H:11])[H:12])([C:6](=[O:7])[H:14])[H:13])[H:9]"
O       -0.62750492      -1.72931154       0.82562070
C       -0.59677829      -0.97402391      -0.25715904
C       -1.20144447       0.77172723       0.10657298
N       -0.04350401       1.10044404      -0.72040068
C        0.65573386      -0.16861829      -0.64872560
C        1.71643856      -0.25784398       0.43179589
O        2.04583771       0.68959038       1.09093657
H       -1.18078609      -0.47517765       0.84985101
H       -1.23877150      -1.24313271      -1.10737606
H       -1.14924996       1.17669840       1.12931213
H       -2.16484729       1.00639261      -0.34237549
H        0.51256839       1.85720924      -0.34305150
H        1.10189038      -0.50025790      -1.59404853
H        2.17041761      -1.25369592       0.57904764
14
Frame=3 idx=008369 GeodesicLength=0.2719554378732661 rxn_smarts="[O:1]([C@@:2]1([H:9])[C:3]([H:10])([H:11])[N:4]([H:12])[C@:5]1([C:6](=[O:7])[H:14])[H:13])[H:8]>>[O:1]=[C:2]([C:5]([N:4]([C:3]([H:8])([H:10])[H:11])[H:12])([C:6](=[O:7])[H:14])[H:13])[H:9]"
O       -0.62460135      -1.74250196       0.80974147
C       -0.59152114      -0.98405797      -0.26878686
C       -1.19818911       0.77129491       0.11513636
N       -0.04960172       1.09545384      -0.72834928
C        0.65680490      -0.16928533      -0.64960034
C        1.71314399      -0.25278188       0.43578601
O        2.04086234       0.69873639       1.08986988
H       -1.19995548      -0.48644034       0.86364842
H       -1.23705593      -1.24485551      -1.11877076
H       -1.12376197       1.18050002       1.13449444
H       -2.16250918       1.02459010      -0.32200986
H        0.50743201       1.85923870      -0.36743602
H        1.11002554      -0.49981239      -1.59185640
H        2.15892712      -1.25007859       0.59813293
14
Frame=4 idx=008369 GeodesicLength=0.36256486805073435 rxn_smarts="[O:1]([C@@:2]1([H:9])[C:3]([H:10])([H:11])[N:4]([H:12])[C@:5]1([C:6](=[O:7])[H:14])[H:13])[H:8]>>[O:1]=[C:2]([C:5]([N:4]([C:3]([H:8])([H:10])[H:11])[H:12])([C:6](=[O:7])[H:14])[H:13])[H:9]"
O       -0.62195988      -1.75482823       0.79425125
C       -0.58588877      -0.99426444      -0.28072411
C       -1.19490779       0.77065048       0.12362998
N       -0.05575225       1.09043629      -0.73601836
C        0.65794735      -0.16985798      -0.65058593
C        1.70989795      -0.24785192       0.43960769
O        2.03613157       0.70764634       1.08862209
H       -1.21934568      -0.49742998       0.87811412
H       -1.23517404      -1.24680693      -1.13018981
H       -1.09861218       1.18408123       1.13914520
H       -2.15962609       1.04267434      -0.30171477
H        0.50193412       1.86095438      -0.39132166
H        1.11822286      -0.49894309      -1.58982997
H        2.14713283      -1.24646049       0.61701430
14
Frame=5 idx=008369 GeodesicLength=0.4531843916492534 rxn_smarts="[O:1]([C@@:2]1([H:9])[C:3]([H:10])([H:11])[N:4]([H:12])[C@:5]1([C:6](=[O:7])[H:14])[H:13])[H:8]>>[O:1]=[C:2]([C:5]([N:4]([C:3]([H:8])([H:10])[H:11])[H:12])([C:6](=[O:7])[H:14])[H:13])[H:9]"
O       -0.61961953      -1.76629750       0.77912479
C       -0.57985981      -1.00466072      -0.29301282
C       -1.19160563       0.76977593       0.13205898
N       -0.06196047       1.08538171      -0.74341762
C        0.65916785      -0.17034004      -0.65169034
C        1.70670245      -0.24305902       0.44326130
O        2.03162865       0.71631369       1.08721116
H       -1.23891853      -0.50812357       0.89335024
H       -1.23312141      -1.24897231      -1.14166809
H       -1.07379917       1.18748283       1.14326264
H       -2.15620727       1.06061130      -0.28148136
H        0.49607247       1.86236857      -0.41472617
H        1.12650067      -0.49763871      -1.58797658
H        2.13501973      -1.24284218       0.63570387
14
Frame=6 idx=008369 GeodesicLength=0.5438237175292521 rxn_smarts="[O:1]([C@@:2]1([H:9])[C:3]([H:10])([H:11])[N:4]([H:12])[C@:5]1([C:6](=[O:7])[H:14])[H:13])[H:8]>>[O:1]=[C:2]([C:5]([N:4]([C:3]([H:8])([H:10])[H:11])[H:12])([C:6](=[O:7])[H:14])[H:13])[H:9]"
O       -0.61762543      -1.77690458       0.76433796
C       -0.57340818      -1.01526507      -0.30569696
C       -1.18828629       0.76865172       0.14042937
N       -0.06823158       1.08028031      -0.75055960
C        0.66047327      -0.17073481      -0.65292277
C        1.70355854      -0.23840729       0.44674705
O        2.02733339       0.72472849       1.08565544
H       -1.25863494      -0.51848483       0.90947083
H       -1.23089104      -1.25133771      -1.15324288
H       -1.04932916       1.19073694       1.14684574
H       -2.15225801       1.07835956      -0.26130540
H        0.48984552       1.86349292      -0.43766324
H        1.13487768      -0.49588739      -1.58630213
H        2.12257623      -1.23922828       0.65420658
14
Frame=7 idx=008369 GeodesicLength=0.6344883297220647 rxn_smarts="[O:1]([C@@:2]1([H:9])[C:3]([H:10])([H:11])[N:4]([H:12])[C@:5]1([C:6](=[O:7])[H:14])[H:13])[H:8]>>[O:1]=[C:2]([C:5]([N:4]([C:3]([H:8])([H:10])[H:11])[H:12])([C:6](=[O:7])[H:14])[H:13])[H:9]"
O       -0.61603616      -1.78663500       0.74985708
C       -0.56650471      -1.02609826      -0.31883056
C       -1.18495082       0.76725284       0.14874955
N       -0.07457188       1.07512058      -0.75745409
C        0.66187166      -0.17104522      -0.65429397
C        1.70046674      -0.23390438       0.45006456
O        2.02322677       0.73288247       1.08397203
H       -1.27843547      -0.52847657       0.92660964
H       -1.22847194      -1.25388419      -1.16495863
H       -1.02519893       1.19388258       1.14988821
H       -2.14778941       1.09586632      -0.24117895
H        0.48324321       1.86433375      -0.46014992
H        1.14337747      -0.49367178      -1.58481493
H        2.10977349      -1.23562314       0.67253999
14
Frame=8 idx=008369 GeodesicLength=0.7251859863533506 rxn_smarts="[O:1]([C@@:2]1([H:9])[C:3]([H:10])([H:11])[N:4]([H:12])[C@:5]1([C:6](=[O:7])[H:14])[H:13])[H:8]>>[O:1]=[C:2]([C:5]([N:4]([C:3]([H:8])([H:10])[H:11])[H:12])([C:6](=[O:7])[H:14])[H:13])[H:9]"
O       -0.61490698      -1.79547854       0.73564142
C       -0.55911860      -1.03718081      -0.33246354
C       -1.18160062       0.76555783       0.15702424
N       -0.08098872       1.06988892      -0.76411472
C        0.66337027      -0.17127509      -0.65581387
C        1.69742538      -0.22955710       0.45321557
O        2.01928837       0.74076563       1.08217713
H       -1.29827017      -0.53805235       0.94490744
H       -1.22585082      -1.25659372      -1.17685598
H       -1.00140963       1.19695480       1.15238713
H       -2.14280899       1.11307605      -0.22110018
H        0.47626185       1.86489980      -0.48220017
H        1.15202087      -0.49097451      -1.58351967
H        2.09658779      -1.23203091       0.69071520
14
Frame=9 idx=008369 GeodesicLength=0.8158863212972685 rxn_smarts="[O:1]([C@@:2]1([H:9])[C:3]([H:10])([H:11])[N:4]([H:12])[C@:5]1([C:6](=[O:7])[H:14])[H:13])[H:8]>>[O:1]=[C:2]([C:5]([N:4]([C:3]([H:8])([H:10])[H:11])[H:12])([C:6](=[O:7])[H:14])[H:13])[H:9]"
O       -0.61430651      -1.80341780       0.72164128
C       -0.55121883      -1.04853419      -0.34664989
C       -1.17823760       0.76354307       0.16526293
N       -0.08748913       1.06457136      -0.77055063
C        0.66497555      -0.17142837      -0.65749201
C        1.69443255      -0.22537539       0.45620105
O        2.01549499       0.74836890       1.08028892
H       -1.31805485      -0.54716994       0.96451778
H       -1.22300703      -1.25944192      -1.18898286
H       -0.97796111       1.19999567       1.15432649
H       -2.13732825       1.12992452      -0.20106019
H        0.46889454       1.86519518      -0.50383315
H        1.16082867      -0.48777713      -1.58242201
H        2.08297702      -1.22845399       0.70875230
14
Frame=10 idx=008369 GeodesicLength=0.9065801986166708 rxn_smarts="[O:1]([C@@:2]1([H:9])[C:3]([H:10])([H:11])[N:4]([H:12])[C@:5]1([C:6](=[O:7])[H:14])[H:13])[H:8]>>[O:1]=[C:2]([C:5]([N:4]([C:3]([H:8])([H:10])[H:11])[H:12])([C:6](=[O:7])[H:14])[H:13])[H:9]"
O       -0.61430956      -1.81041834       0.70780798
C       -0.54276860      -1.06017870      -0.36144439
C       -1.17486202       0.76118568       0.17347046
N       -0.09408007       1.05915443      -0.77677434
C        0.66669509      -0.17150743      -0.65933927
C        1.69148516      -0.22136904       0.45902252
O        2.01182709       0.75568033       1.07832165
H       -1.33771045      -0.55577412       0.98561645
H       -1.21991743      -1.26240610      -1.20138542
H       -0.95485769       1.20301757       1.15570185
H       -2.13136025       1.14634951      -0.18107182
H        0.46113114       1.86522242      -0.52506493
H        1.16982494      -0.48405645      -1.58152751
H        2.06890264      -1.22489978       0.72666676
14
Frame=11 idx=008369 GeodesicLength=0.9972548690665399 rxn_smarts="[O:1]([C@@:2]1([H:9])[C:3]([H:10])([H:11])[N:4]([H:12])[C@:5]1([C:6](=[O:7])[H:14])[H:13])[H:8]>>[O:1]=[C:2]([C:5]([N:4]([C:3]([H:8])([H:10])[H:11])[H:12])([C:6](=[O:7])[H:14])[H:13])[H:9]"
O       -0.61499632      -1.81644956       0.69407467
C       -0.53373144      -1.07213374      -0.37690410
C       -1.17147330       0.75846420       0.18165139
N       -0.10076695       1.05362374      -0.78279741
C        0.66853572      -0.17151583      -0.66136636
C        1.68857830      -0.21755077       0.46168179
O        2.00826443       0.76268893       1.07629108
H       -1.35713461      -0.56381503       1.00839897
H       -1.21655404      -1.26545682      -1.21411455
H       -0.93209986       1.20604981       1.15650284
H       -2.12492712       1.16227853      -0.16114721
H        0.45295987       1.86498042      -0.54591409
H        1.17903341      -0.47978967      -1.58084013
H        2.05431192      -1.22137422       0.74448312
14
Frame=12 idx=008369 GeodesicLength=1.0878975109136229 rxn_smarts="[O:1]([C@@:2]1([H:9])[C:3]([H:10])([H:11])[N:4]([H:12])[C@:5]1([C:6](=[O:7])[H:14])[H:13])[H:8]>>[O:1]=[C:2]([C:5]([N:4]([C:3]([H:8])([H:10])[H:11])[H:12])([C:6](=[O:7])[H:14])[H:13])[H:9]"
O       -0.61644854      -1.82148269       0.68036400
C       -0.52406958      -1.08441926      -0.39308086
C       -1.16807156       0.75535973       0.18981037
N       -0.10755743       1.04796231      -0.78863276
C        0.67050216      -0.17145818      -0.66358180
C        1.68570498      -0.21393470       0.46418333
O        2.00478465       0.76938197       1.07421194
H       -1.37622128      -0.57123111       1.03306778
H       -1.21287980      -1.26856546      -1.22722334
H       -0.90969165       1.20911739       1.15671812
H       -2.11804685       1.17763591      -0.14129914
H        0.44437238       1.86446806      -0.56639876
H        1.18847480      -0.47495502      -1.58036087
H        2.03914773      -1.21787894       0.76222200
14
Frame=13 idx=008369 GeodesicLength=1.1784918954206745 rxn_smarts="[O:1]([C@@:2]1([H:9])[C:3]([H:10])([H:11])[N:4]([H:12])[C@:5]1([C:6](=[O:7])[H:14])[H:13])[H:8]>>[O:1]=[C:2]([C:5]([N:4]([C:3]([H:8])([H:10])[H:11])[H:12])([C:6](=[O:7])[H:14])[H:13])[H:9]"
O       -0.61877333      -1.82546677       0.66658498
C       -0.51374009      -1.09706040      -0.41003749
C       -1.16465791       0.75184617       0.19795236
N       -0.11446089       1.04215061      -0.79429172
C        0.67259907      -0.17134001      -0.66599663
C        1.68285661      -0.21054054       0.46653003
O        2.00136549       0.77574363       1.07209768
H       -1.39481053      -0.57795793       1.05985827
H       -1.20884439      -1.27170098      -1.24077647
H       -0.88763453       1.21224947       1.15633406
H       -2.11075327       1.19233724      -0.12154528
H        0.43535444       1.86367962      -0.58653648
H        1.19817275      -0.46952384      -1.58009268
H        2.02332657      -1.21441629       0.77991936
14
Frame=14 idx=008369 GeodesicLength=1.2690311717720817 rxn_smarts="[O:1]([C@@:2]1([H:9])[C:3]([H:10])([H:11])[N:4]([H:12])[C@:5]1([C:6](=[O:7])[H:14])[H:13])[H:8]>>[O:1]=[C:2]([C:5]([N:4]([C:3]([H:8])([H:10])[H:11])[H:12])([C:6](=[O:7])[H:14])[H:13])[H:9]"
O       -0.62207413      -1.82835550       0.65263736
C       -0.50270164      -1.11007685      -0.42782487
C       -1.16123325       0.74790868       0.20608124
N       -0.12148692       1.03616936      -0.79978738
C        0.67482869      -0.17116663      -0.66861942
C        1.68002202      -0.20738530       0.46872654
O        1.99797857       0.78175439       1.06996734
H       -1.41273424      -0.58391625       1.08901484
H       -1.20438923      -1.27483251      -1.25484137
H       -0.86594120       1.21546314       1.15533791
H       -2.10307884       1.20629756      -0.10191482
H        0.42589203       1.86260866      -0.60634575
H        1.20814447      -0.46347309      -1.58003142
H        2.00677367      -1.21099567       0.79759980
14
Frame=15 idx=008369 GeodesicLength=1.3595277368622494 rxn_smarts="[O:1]([C@@:2]1([H:9])[C:3]([H:10])([H:11])[N:4]([H:12])[C@:5]1([C:6](=[O:7])[H:14])[H:13])[H:8]>>[O:1]=[C:2]([C:5]([N:4]([C:3]([H:8])([H:10])[H:11])[H:12])([C:6](=[O:7])[H:14])[H:13])[H:9]"
O       -0.62646518      -1.83009888       0.63839974
C       -0.49091306      -1.12348988      -0.44649511
C       -1.15780044       0.74353061       0.21420058
N       -0.12864573       1.02999675      -0.80513172
C        0.67719060      -0.17094570      -0.67145712
C        1.67718659      -0.20449219       0.47077986
O        1.99460009       0.78739540       1.06783448
H       -1.42979149      -0.58903297       1.12080223
H       -1.19944116      -1.27792750      -1.26949394
H       -0.84461779       1.21878368       1.15371833
H       -2.09506879       1.21943255      -0.08244018
H        0.41597053       1.86124489      -0.62584660
H        1.21840660      -0.45677872      -1.58017244
H        1.98938922      -1.20761804       0.81530188
14
Frame=16 idx=008369 GeodesicLength=1.4500150666338782 rxn_smarts="[O:1]([C@@:2]1([H:9])[C:3]([H:10])([H:11])[N:4]([H:12])[C@:5]1([C:6](=[O:7])[H:14])[H:13])[H:8]>>[O:1]=[C:2]([C:5]([N:4]([C:3]([H:8])([H:10])[H:11])[H:12])([C:6](=[O:7])[H:14])[H:13])[H:9]"
O       -0.63206535      -1.83064632       0.62373495
C       -0.47833490      -1.13731896      -0.46609137
C       -1.15436504       0.73870228       0.22231346
N       -0.13594824       1.02361041      -0.81033758
C        0.67968065      -0.17068658      -0.67451441
C        1.67433139      -0.20188636       0.47269945
O        1.99120262       0.79264503       1.06571388
H       -1.44575165      -0.59323028       1.15549563
H       -1.19391199      -1.28095545      -1.28481793
H       -0.82367508       1.22223270       1.15146379
H       -2.08677318       1.23166150      -0.06315781
H        0.40557581       1.85957520      -0.64506041
H        1.22897071      -0.44942033      -1.58050570
H        1.97106426      -1.20428284       0.83306405
