15
Frame=0 idx=010853 GeodesicLength=0.0 rxn_smarts="[C:1]([C@@:2]12[C:3]([H:11])([H:12])[C@:4]1([O:5][H:13])[C:6]([H:14])([H:15])[O:7]2)([H:8])([H:9])[H:10]>>[C:1]([C@:4]1([O:5][H:13])[C:3]([H:11])([H:12])[C-:2]=[O+:7][C:6]1([H:14])[H:15])([H:8])([H:9])[H:10]"
C        1.26612215      -0.05429180       0.86634950
C        0.97775944       0.42689971      -0.95806244
C       -0.07490418      -0.66551922      -1.24486668
C       -0.53612823      -0.24843792       0.07108495
O       -1.18060415      -1.01413384       0.97847810
C       -0.89600418       1.20752135      -0.05233298
O        0.21581312       1.59618401      -0.84308446
H        1.83377374      -0.97129389       0.72274364
H        0.70674880      -0.13232245       1.80424946
H        1.94539495       0.78632406       0.97376158
H       -0.72184517      -0.44715757      -2.09269719
H        0.36379357      -1.65997429      -1.29086216
H       -1.15727846      -1.93392350       0.70423238
H       -1.86835735       1.36282540      -0.53512778
H       -0.87428405       1.74729994       0.89613408
15
Frame=1 idx=010853 GeodesicLength=0.08049980919295716 rxn_smarts="[C:1]([C@@:2]12[C:3]([H:11])([H:12])[C@:4]1([O:5][H:13])[C:6]([H:14])([H:15])[O:7]2)([H:8])([H:9])[H:10]>>[C:1]([C@:4]1([O:5][H:13])[C:3]([H:11])([H:12])[C-:2]=[O+:7][C:6]1([H:14])[H:15])([H:8])([H:9])[H:10]"
C        1.27861007      -0.05388047       0.86547101
C        0.96824401       0.42705714      -0.96404741
C       -0.07287570      -0.67441164      -1.23803532
C       -0.52734889      -0.24468363       0.08050696
O       -1.18834450      -1.00538388       0.98395846
C       -0.89704320       1.20928519      -0.05466759
O        0.20886191       1.59560550      -0.85854074
H        1.90407813      -0.92836088       0.69543203
H        0.74665797      -0.20577323       1.80995947
H        1.91866655       0.81156469       1.01406370
H       -0.72596285      -0.47038153      -2.08487918
H        0.37184488      -1.66652258      -1.27617263
H       -1.24321265      -1.91270106       0.67506373
H       -1.87060411       1.35945528      -0.53609532
H       -0.87157161       1.75913108       0.88798282
15
Frame=2 idx=010853 GeodesicLength=0.15882189810909378 rxn_smarts="[C:1]([C@@:2]12[C:3]([H:11])([H:12])[C@:4]1([O:5][H:13])[C:6]([H:14])([H:15])[O:7]2)([H:8])([H:9])[H:10]>>[C:1]([C@:4]1([O:5][H:13])[C:3]([H:11])([H:12])[C-:2]=[O+:7][C:6]1([H:14])[H:15])([H:8])([H:9])[H:10]"
C        1.29075193      -0.05455078       0.86483685
C        0.95864614       0.42657390      -0.96989238
C       -0.07103439      -0.68361752      -1.23109676
C       -0.51903244      -0.24082028       0.08980525
O       -1.19562172      -0.99711460       0.98937185
C       -0.89826559       1.21112680      -0.05745396
O        0.20232193       1.59466542      -0.87364894
H        1.97339432      -0.87990332       0.66760367
H        0.78901222      -0.28407198       1.81005084
H        1.88810453       0.83303900       1.05825619
H       -0.72987972      -0.49382807      -2.07700124
H        0.37948444      -1.67345455      -1.26113630
H       -1.32553753      -1.88539018       0.64898686
H       -1.87275772       1.35630538      -0.53799505
H       -0.86958640       1.77104079       0.87931310
15
Frame=3 idx=010853 GeodesicLength=0.23374809978071848 rxn_smarts="[C:1]([C@@:2]12[C:3]([H:11])([H:12])[C@:4]1([O:5][H:13])[C:6]([H:14])([H:15])[O:7]2)([H:8])([H:9])[H:10]>>[C:1]([C@:4]1([O:5][H:13])[C:3]([H:11])([H:12])[C-:2]=[O+:7][C:6]1([H:14])[H:15])([H:8])([H:9])[H:10]"
C        1.30239634      -0.05639587       0.86418409
C        0.94900967       0.42518833      -0.97510290
C       -0.06942428      -0.69274651      -1.22356315
C       -0.51126848      -0.23662966       0.09883133
O       -1.20248041      -0.98867228       0.99426652
C       -0.89965898       1.21266002      -0.06078867
O        0.19635596       1.59270241      -0.88795704
H        2.04061353      -0.82558029       0.63985250
H        0.83355354      -0.36604158       1.80289373
H        1.85383236       0.84919654       1.10600940
H       -0.73363303      -0.51710682      -2.06821969
H        0.38670989      -1.67994436      -1.24534518
H       -1.40286414      -1.85204628       0.62614343
H       -1.87476999       1.35300933      -0.54080841
H       -0.86837197       1.78240701       0.86960404
15
Frame=4 idx=010853 GeodesicLength=0.3072340842721583 rxn_smarts="[C:1]([C@@:2]12[C:3]([H:11])([H:12])[C@:4]1([O:5][H:13])[C:6]([H:14])([H:15])[O:7]2)([H:8])([H:9])[H:10]>>[C:1]([C@:4]1([O:5][H:13])[C:3]([H:11])([H:12])[C-:2]=[O+:7][C:6]1([H:14])[H:15])([H:8])([H:9])[H:10]"
C        1.31369437      -0.05922017       0.86379390
C        0.93934569       0.42312883      -0.98024190
C       -0.06807573      -0.70213043      -1.21595828
C       -0.50394268      -0.23225730       0.10767618
O       -1.20856146      -0.98053561       0.99940640
C       -0.90112584       1.21435679      -0.06463482
O        0.19099792       1.59043253      -0.90192519
H        2.10529915      -0.76522424       0.61313577
H        0.88063303      -0.45109069       1.78839884
H        1.81587320       0.85986128       1.15771118
H       -0.73736736      -0.54050852      -2.05935885
H        0.39352913      -1.68671547      -1.22939589
H       -1.47596385      -1.81408655       0.60671002
H       -1.87660172       1.35001612      -0.54460464
H       -0.86773384       1.79397342       0.85928729
15
Frame=5 idx=010853 GeodesicLength=0.37961287770024565 rxn_smarts="[C:1]([C@@:2]12[C:3]([H:11])([H:12])[C@:4]1([O:5][H:13])[C:6]([H:14])([H:15])[O:7]2)([H:8])([H:9])[H:10]>>[C:1]([C@:4]1([O:5][H:13])[C:3]([H:11])([H:12])[C-:2]=[O+:7][C:6]1([H:14])[H:15])([H:8])([H:9])[H:10]"
C        1.32458822      -0.06289750       0.86367803
C        0.92974341       0.42041865      -0.98545983
C       -0.06703589      -0.71177867      -1.20846646
C       -0.49705414      -0.22771064       0.11627105
O       -1.21381071      -0.97272378       1.00495298
C       -0.90252398       1.21631009      -0.06898133
O        0.18646081       1.58798458      -0.91562459
H        2.16641396      -0.69887900       0.58826243
H        0.93012002      -0.53788199       1.76607437
H        1.77438736       0.86426541       1.21329367
H       -0.74114683      -0.56398652      -2.05059970
H        0.39985955      -1.69381735      -1.21361660
H       -1.54440996      -1.77257712       0.59111165
H       -1.87810672       1.34741604      -0.54935305
H       -0.86748510       1.80585779       0.84845738
15
Frame=6 idx=010853 GeodesicLength=0.4507057709263474 rxn_smarts="[C:1]([C@@:2]12[C:3]([H:11])([H:12])[C@:4]1([O:5][H:13])[C:6]([H:14])([H:15])[O:7]2)([H:8])([H:9])[H:10]>>[C:1]([C@:4]1([O:5][H:13])[C:3]([H:11])([H:12])[C-:2]=[O+:7][C:6]1([H:14])[H:15])([H:8])([H:9])[H:10]"
C        1.33497316      -0.06733804       0.86383323
C        0.92022811       0.41697713      -0.99065177
C       -0.06631980      -0.72154649      -1.20099942
C       -0.49061051      -0.22292949       0.12454414
O       -1.21821853      -0.96507923       1.01076840
C       -0.90382304       1.21847587      -0.07382789
O        0.18275677       1.58520967      -0.92899800
H        2.22287763      -0.62691273       0.56621144
H        0.98172434      -0.62466602       1.73546914
H        1.73001260       0.86128586       1.27205764
H       -0.74506076      -0.58735180      -2.04172451
H        0.40574777      -1.70100972      -1.19800672
H       -1.60748429      -1.72828246       0.57929065
H       -1.87928697       1.34522063      -0.55495729
H       -0.86751650       1.81794681       0.83699097
15
Frame=7 idx=010853 GeodesicLength=0.5207787000318789 rxn_smarts="[C:1]([C@@:2]12[C:3]([H:11])([H:12])[C@:4]1([O:5][H:13])[C:6]([H:14])([H:15])[O:7]2)([H:8])([H:9])[H:10]>>[C:1]([C@:4]1([O:5][H:13])[C:3]([H:11])([H:12])[C-:2]=[O+:7][C:6]1([H:14])[H:15])([H:8])([H:9])[H:10]"
C        1.34482393      -0.07234834       0.86430698
C        0.91085183       0.41282094      -0.99589295
C       -0.06593141      -0.73141806      -1.19366916
C       -0.48455694      -0.21795459       0.13244457
O       -1.22174305      -0.95765054       1.01686009
C       -0.90491414       1.22086665      -0.07911728
O        0.17992254       1.58213284      -0.94213263
H        2.27373792      -0.54987574       0.54777441
H        1.03527931      -0.70962842       1.69672452
H        1.68335095       0.85030566       1.33343092
H       -0.74917926      -0.61055699      -2.03281070
H        0.41119516      -1.70829089      -1.18277921
H       -1.66517369      -1.68210274       0.57115918
H       -1.88007957       1.34345517      -0.56127624
H       -0.86758359       1.83024504       0.82497749
15
Frame=8 idx=010853 GeodesicLength=0.5900319093740357 rxn_smarts="[C:1]([C@@:2]12[C:3]([H:11])([H:12])[C@:4]1([O:5][H:13])[C:6]([H:14])([H:15])[O:7]2)([H:8])([H:9])[H:10]>>[C:1]([C@:4]1([O:5][H:13])[C:3]([H:11])([H:12])[C-:2]=[O+:7][C:6]1([H:14])[H:15])([H:8])([H:9])[H:10]"
C        1.35410024      -0.07768126       0.86519415
C        0.90166541       0.40799634      -1.00119004
C       -0.06587048      -0.74139122      -1.18651627
C       -0.47883880      -0.21287313       0.13995780
O       -1.22443318      -0.95060048       1.02313188
C       -0.90566431       1.22342279      -0.08474731
O        0.17795781       1.57873782      -0.95510599
H        2.31823432      -0.46830163       0.53373261
H        1.09067137      -0.79110178       1.65028394
H        1.63521604       0.83101196       1.39643168
H       -0.75357088      -0.63360864      -2.02387311
H        0.41618985      -1.71564552      -1.16803465
H       -1.71788970      -1.63467872       0.56629292
H       -1.88041066       1.34205276      -0.56809554
H       -0.86735703       1.84266072       0.81253793
15
Frame=9 idx=010853 GeodesicLength=0.6584726684035405 rxn_smarts="[C:1]([C@@:2]12[C:3]([H:11])([H:12])[C@:4]1([O:5][H:13])[C:6]([H:14])([H:15])[O:7]2)([H:8])([H:9])[H:10]>>[C:1]([C@:4]1([O:5][H:13])[C:3]([H:11])([H:12])[C-:2]=[O+:7][C:6]1([H:14])[H:15])([H:8])([H:9])[H:10]"
C        1.36278936      -0.08326520       0.86642393
C        0.89269157       0.40241366      -1.00647277
C       -0.06599206      -0.75138018      -1.17947669
C       -0.47336211      -0.20770648       0.14702883
O       -1.22626721      -0.94381733       1.02934929
C       -0.90609538       1.22603981      -0.09063893
O        0.17668536       1.57481626      -0.96793179
H        2.35567650      -0.38329047       0.52439089
H        1.14784631      -0.86731887       1.59683777
H        1.58617006       0.80301902       1.46010468
H       -0.75811296      -0.65635200      -2.01472656
H        0.42097271      -1.72292756      -1.15374778
H       -1.76587172      -1.58620761       0.56435644
H       -1.88035385       1.34100088      -0.57517620
H       -0.86677658       1.85497607       0.79967891
15
Frame=10 idx=010853 GeodesicLength=0.7264540260754252 rxn_smarts="[C:1]([C@@:2]12[C:3]([H:11])([H:12])[C@:4]1([O:5][H:13])[C:6]([H:14])([H:15])[O:7]2)([H:8])([H:9])[H:10]>>[C:1]([C@:4]1([O:5][H:13])[C:3]([H:11])([H:12])[C-:2]=[O+:7][C:6]1([H:14])[H:15])([H:8])([H:9])[H:10]"
C        1.37084990      -0.08886679       0.86820315
C        0.88398597       0.39623389      -1.01178792
C       -0.06637403      -0.76146218      -1.17266591
C       -0.46812953      -0.20259899       0.15369735
O       -1.22760622      -0.93761007       1.03540619
C       -0.90600139       1.22870314      -0.09666032
O        0.17617749       1.57048781      -0.98075366
H        2.38561204      -0.29535700       0.52021440
H        1.20672231      -0.93705154       1.53746341
H        1.53720912       0.76666546       1.52336941
H       -0.76292977      -0.67893166      -2.00557447
H        0.42535873      -1.73025684      -1.14004267
H       -1.80975968      -1.53739031       0.56480897
H       -1.87976267       1.34024675      -0.58233079
H       -0.86535227       1.86718833       0.78665285
15
Frame=11 idx=010853 GeodesicLength=0.7940937756113878 rxn_smarts="[C:1]([C@@:2]12[C:3]([H:11])([H:12])[C@:4]1([O:5][H:13])[C:6]([H:14])([H:15])[O:7]2)([H:8])([H:9])[H:10]>>[C:1]([C@:4]1([O:5][H:13])[C:3]([H:11])([H:12])[C-:2]=[O+:7][C:6]1([H:14])[H:15])([H:8])([H:9])[H:10]"
C        1.37819857      -0.09458372       0.87057302
C        0.87550638       0.38943119      -1.01711532
C       -0.06691877      -0.77164664      -1.16605998
C       -0.46311382      -0.19755977       0.15998990
O       -1.22871531      -0.93185278       1.04114034
C       -0.90540757       1.23150165      -0.10271713
O        0.17623025       1.56573662      -0.99365183
H        2.40758640      -0.20557411       0.52128665
H        1.26718458      -0.99922505       1.47331842
H        1.48909024       0.72212400       1.58510446
H       -0.76791414      -0.70131350      -1.99638048
H        0.42950361      -1.73770754      -1.12687268
H       -1.84954651      -1.48869566       0.56719207
H       -1.87868272       1.34000697      -0.58937074
H       -0.86300119       1.87935835       0.77356330
15
Frame=12 idx=010853 GeodesicLength=0.861529404865081 rxn_smarts="[C:1]([C@@:2]12[C:3]([H:11])([H:12])[C@:4]1([O:5][H:13])[C:6]([H:14])([H:15])[O:7]2)([H:8])([H:9])[H:10]>>[C:1]([C@:4]1([O:5][H:13])[C:3]([H:11])([H:12])[C-:2]=[O+:7][C:6]1([H:14])[H:15])([H:8])([H:9])[H:10]"
C        1.38484581      -0.10042089       0.87353219
C        0.86726141       0.38202478      -1.02238108
C       -0.06758184      -0.78197322      -1.15957119
C       -0.45826386      -0.19267456       0.16594921
O       -1.22978627      -0.92662283       1.04636529
C       -0.90421832       1.23434103      -0.10871777
O        0.17679851       1.56048367      -1.00664078
H        2.42135962      -0.11441423       0.52760881
H        1.32943869      -1.05327664       1.40521108
H        1.44229582       0.66983213       1.64441068
H       -0.77301168      -0.72357266      -1.98704343
H        0.43341700      -1.74529739      -1.11409930
H       -1.88602246      -1.43998056       0.57101248
H       -1.87703119       1.34020666      -0.59613346
H       -0.85950123       1.89134470       0.76049726
15
Frame=13 idx=010853 GeodesicLength=0.9290484205166255 rxn_smarts="[C:1]([C@@:2]12[C:3]([H:11])([H:12])[C@:4]1([O:5][H:13])[C:6]([H:14])([H:15])[O:7]2)([H:8])([H:9])[H:10]>>[C:1]([C@:4]1([O:5][H:13])[C:3]([H:11])([H:12])[C-:2]=[O+:7][C:6]1([H:14])[H:15])([H:8])([H:9])[H:10]"
C        1.39095931      -0.10648191       0.87708369
C        0.85930905       0.37404856      -1.02767347
C       -0.06833230      -0.79244616      -1.15324661
C       -0.45360647      -0.18795882       0.17161306
O       -1.23118473      -0.92179885       1.05106687
C       -0.90247904       1.23723455      -0.11464458
O        0.17784895       1.55473099      -1.01985783
H        2.42688599      -0.02264907       0.53896993
H        1.39362539      -1.09860101       1.33430840
H        1.39744944       0.61006366       1.70077505
H       -0.77822327      -0.74569783      -1.97768922
H        0.43716971      -1.75303760      -1.10168110
H       -1.91965943      -1.39143770       0.57603407
H       -1.87494326       1.34091706      -0.60261085
H       -0.85481935       1.90311413       0.74755261
15
Frame=14 idx=010853 GeodesicLength=0.9964943376891104 rxn_smarts="[C:1]([C@@:2]12[C:3]([H:11])([H:12])[C@:4]1([O:5][H:13])[C:6]([H:14])([H:15])[O:7]2)([H:8])([H:9])[H:10]>>[C:1]([C@:4]1([O:5][H:13])[C:3]([H:11])([H:12])[C-:2]=[O+:7][C:6]1([H:14])[H:15])([H:8])([H:9])[H:10]"
C        1.39642938      -0.11290321       0.88116518
C        0.85156716       0.36548267      -1.03281171
C       -0.06917325      -0.80313751      -1.14689662
C       -0.44908918      -0.18344508       0.17703690
O       -1.23303592      -0.91732290       1.05504979
C       -0.90001311       1.24014032      -0.12040653
O        0.17938319       1.54840144      -1.03316099
H        2.42367154       0.06941379       0.55546539
H        1.45984599      -1.13501829       1.26089624
H        1.35485345       0.54343713       1.75322128
H       -0.78348159      -0.76782586      -1.96807600
H        0.44064724      -1.76099420      -1.08937530
H       -1.95075976      -1.34296326       0.58179633
H       -1.87214844       1.34210306      -0.60866186
H       -0.84869669       1.91463189       0.73475790
15
Frame=15 idx=010853 GeodesicLength=1.0642462075064993 rxn_smarts="[C:1]([C@@:2]12[C:3]([H:11])([H:12])[C@:4]1([O:5][H:13])[C:6]([H:14])([H:15])[O:7]2)([H:8])([H:9])[H:10]>>[C:1]([C@:4]1([O:5][H:13])[C:3]([H:11])([H:12])[C-:2]=[O+:7][C:6]1([H:14])[H:15])([H:8])([H:9])[H:10]"
C        1.40149326      -0.11990631       0.88571761
C        0.84408111       0.35632852      -1.03794673
C       -0.07007130      -0.81407451      -1.14053356
C       -0.44473517      -0.17909616       0.18228335
O       -1.23561660      -0.91296737       1.05846539
C       -0.89689139       1.24314726      -0.12605248
O        0.18137663       1.54152734      -1.04674141
H        2.41157684       0.16123046       0.57700095
H        1.52833226      -1.16222002       1.18568041
H        1.31492431       0.46996767       1.80149150
H       -0.78880927      -0.78997458      -1.95829341
H        0.44395097      -1.76922702      -1.07704437
H       -1.97963677      -1.29464211       0.58823149
H       -1.86880574       1.34392458      -0.61437191
H       -0.84116914       1.92598226       0.72211316
15
Frame=16 idx=010853 GeodesicLength=1.132278289773203 rxn_smarts="[C:1]([C@@:2]12[C:3]([H:11])([H:12])[C@:4]1([O:5][H:13])[C:6]([H:14])([H:15])[O:7]2)([H:8])([H:9])[H:10]>>[C:1]([C@:4]1([O:5][H:13])[C:3]([H:11])([H:12])[C-:2]=[O+:7][C:6]1([H:14])[H:15])([H:8])([H:9])[H:10]"
C        1.40613948      -0.12766792       0.89059588
C        0.83678602       0.34656683      -1.04296886
C       -0.07101131      -0.82532642      -1.13398627
C       -0.44048767      -0.17490442       0.18739721
O       -1.23893201      -0.90861227       1.06124532
C       -0.89297048       1.24623854      -0.13154302
O        0.18385164       1.53405124      -1.06049396
H        2.38994551       0.25229785       0.60373975
H        1.59918306      -1.17986988       1.10866854
H        1.27783944       0.39003801       1.84485591
H       -0.79414004      -0.81228940      -1.94811237
H        0.44702482      -1.77778762      -1.06443038
H       -2.00648168      -1.24626500       0.59511628
H       -1.86468929       1.34635459      -0.61967248
H       -0.83205749       1.93717587       0.70958843
