14
Frame=0 idx=005311 GeodesicLength=0.0 rxn_smarts="[C:1]([N:2]([C:3](=[O:4])[N:5]([C:6]([H:12])([H:13])[H:14])[H:11])[H:10])([H:7])([H:8])[H:9]>>[C:1]([N:2](/[C:3]([O:4][C:6]([H:12])([H:13])[H:14])=[N:5]\[H:11])[H:10])([H:7])([H:8])[H:9]"
C       -2.30488386       0.24715917       0.00712578
N       -1.15693874      -0.24171435       0.73771488
C        0.10436830      -0.14770675       0.22617128
O        0.26991897       0.18026572      -0.98680907
N        1.20343362      -0.38783207       0.88176815
C        2.26429502       0.03048930      -0.87337582
H       -2.38434433       1.33899460       0.02040809
H       -3.21063313      -0.17772826       0.44045821
H       -2.23103584      -0.07490191      -1.02972145
H       -1.23217456      -0.28655710       1.73673995
H        1.17388922      -0.72010207       1.83659420
H        2.97792008      -0.62859241      -0.40431786
H        2.09060051      -0.20970187      -1.91361112
H        2.43558469       1.07792798      -0.67914524
14
Frame=1 idx=005311 GeodesicLength=0.02842572214705936 rxn_smarts="[C:1]([N:2]([C:3](=[O:4])[N:5]([C:6]([H:12])([H:13])[H:14])[H:11])[H:10])([H:7])([H:8])[H:9]>>[C:1]([N:2](/[C:3]([O:4][C:6]([H:12])([H:13])[H:14])=[N:5]\[H:11])[H:10])([H:7])([H:8])[H:9]"
C       -2.30566048       0.24348848       0.00724621
N       -1.15482175      -0.23896229       0.73778534
C        0.10671237      -0.11460578       0.23274199
O        0.26977488       0.19766762      -0.98542722
N        1.20706618      -0.36802343       0.88363993
C        2.25680297       0.02373849      -0.86844646
H       -2.39167495       1.33483708       0.01925794
H       -3.20870726      -0.18597787       0.44161218
H       -2.23066715      -0.07885492      -1.02943855
H       -1.23051148      -0.28992846       1.73654284
H        1.16897418      -0.74056626       1.82292284
H        2.97648462      -0.63321831      -0.40401091
H        2.09663419      -0.22121031      -1.91043888
H        2.43959366       1.07161596      -0.68398725
14
Frame=2 idx=005311 GeodesicLength=0.056958423921782575 rxn_smarts="[C:1]([N:2]([C:3](=[O:4])[N:5]([C:6]([H:12])([H:13])[H:14])[H:11])[H:10])([H:7])([H:8])[H:9]>>[C:1]([N:2](/[C:3]([O:4][C:6]([H:12])([H:13])[H:14])=[N:5]\[H:11])[H:10])([H:7])([H:8])[H:9]"
C       -2.30605005       0.24022132       0.00742589
N       -1.15250480      -0.23648998       0.73768873
C        0.10871918      -0.08412975       0.23875272
O        0.26941416       0.21310957      -0.98426693
N        1.21033194      -0.34998630       0.88519437
C        2.24896458       0.01747044      -0.86321921
H       -2.39761331       1.33112814       0.01780967
H       -3.20660526      -0.19285082       0.44328900
H       -2.23052489      -0.08285688      -1.02899863
H       -1.22841922      -0.29319852       1.73618074
H        1.16413108      -0.75939559       1.80838343
H        2.97526224      -0.63664623      -0.40337068
H        2.10297205      -0.23210679      -1.90689897
H        2.44192230       1.06573139      -0.68797012
14
Frame=3 idx=005311 GeodesicLength=0.08558156834432007 rxn_smarts="[C:1]([N:2]([C:3](=[O:4])[N:5]([C:6]([H:12])([H:13])[H:14])[H:11])[H:10])([H:7])([H:8])[H:9]>>[C:1]([N:2](/[C:3]([O:4][C:6]([H:12])([H:13])[H:14])=[N:5]\[H:11])[H:10])([H:7])([H:8])[H:9]"
C       -2.30612617       0.23737697       0.00767140
N       -1.15009011      -0.23432800       0.73748301
C        0.11039176      -0.05659886       0.24410196
O        0.26883371       0.22654527      -0.98339426
N        1.21326814      -0.33357820       0.88646278
C        2.24087160       0.01172331      -0.85775258
H       -2.40213862       1.32791676       0.01597831
H       -3.20444354      -0.19821459       0.44554097
H       -2.23072431      -0.08698126      -1.02837055
H       -1.22594002      -0.29616400       1.73573557
H        1.15937063      -0.77701698       1.79317503
H        2.97439374      -0.63869856      -0.40239059
H        2.10976436      -0.24237428      -1.90303562
H        2.44256883       1.06039242      -0.69120544
14
Frame=4 idx=005311 GeodesicLength=0.11436521428713789 rxn_smarts="[C:1]([N:2]([C:3](=[O:4])[N:5]([C:6]([H:12])([H:13])[H:14])[H:11])[H:10])([H:7])([H:8])[H:9]>>[C:1]([N:2](/[C:3]([O:4][C:6]([H:12])([H:13])[H:14])=[N:5]\[H:11])[H:10])([H:7])([H:8])[H:9]"
C       -2.30598962       0.23471610       0.00794189
N       -1.14757594      -0.23225349       0.73723101
C        0.11182856      -0.03111733       0.24897686
O        0.26813959       0.23915121      -0.98255297
N        1.21595096      -0.31849938       0.88749702
C        2.23258433       0.00623441      -0.85214161
H       -2.40587285       1.32490996       0.01384064
H       -3.20218926      -0.20277330       0.44815090
H       -2.23104619      -0.09131708      -1.02761386
H       -1.22316084      -0.29867891       1.73527019
H        1.15467664      -0.79343687       1.77737265
H        2.97359045      -0.64015409      -0.40134918
H        2.11674061      -0.25199809      -1.89893101
H        2.44232357       1.05521687      -0.69369253
14
Frame=5 idx=005311 GeodesicLength=0.14327330850658254 rxn_smarts="[C:1]([N:2]([C:3](=[O:4])[N:5]([C:6]([H:12])([H:13])[H:14])[H:11])[H:10])([H:7])([H:8])[H:9]>>[C:1]([N:2](/[C:3]([O:4][C:6]([H:12])([H:13])[H:14])=[N:5]\[H:11])[H:10])([H:7])([H:8])[H:9]"
C       -2.30568885       0.23205540       0.00817212
N       -1.14493130      -0.23007074       0.73701438
C        0.11313194      -0.00691460       0.25364644
O        0.26742111       0.25185417      -0.98149701
N        1.21845458      -0.30442565       0.88840428
C        2.22410279       0.00082270      -0.84648657
H       -2.40928997       1.32190427       0.01139874
H       -3.19978815      -0.20711128       0.45087815
H       -2.23127125      -0.09593283      -1.02680724
H       -1.22014337      -0.30064646       1.73485518
H        1.15004321      -0.80884650       1.76109924
H        2.97257164      -0.64158142      -0.40048580
H        2.12360940      -0.26104474      -1.89469165
H        2.44177823       1.04993768      -0.69550027
14
Frame=6 idx=005311 GeodesicLength=0.1722915552527598 rxn_smarts="[C:1]([N:2]([C:3](=[O:4])[N:5]([C:6]([H:12])([H:13])[H:14])[H:11])[H:10])([H:7])([H:8])[H:9]>>[C:1]([N:2](/[C:3]([O:4][C:6]([H:12])([H:13])[H:14])=[N:5]\[H:11])[H:10])([H:7])([H:8])[H:9]"
C       -2.30524046       0.22929462       0.00832782
N       -1.14213940      -0.22766182       0.73688100
C        0.11436462       0.01647137       0.25827453
O        0.26673263       0.26516918      -0.98011071
N        1.22083342      -0.29118296       0.88923942
C        2.21542176      -0.00460717      -0.84084993
H       -2.41264734       1.31877546       0.00867114
H       -3.19719958      -0.21154877       0.45358892
H       -2.23125123      -0.10086414      -1.02600425
H       -1.21693340      -0.30203319       1.73453828
H        1.14541980      -0.82337066       1.74445458
H        2.97119663      -0.64329396      -0.39992068
H        2.13020588      -0.26956870      -1.89038223
H        2.44123666       1.04442075      -0.69670788
14
Frame=7 idx=005311 GeodesicLength=0.201430177776523 rxn_smarts="[C:1]([N:2]([C:3](=[O:4])[N:5]([C:6]([H:12])([H:13])[H:14])[H:11])[H:10])([H:7])([H:8])[H:9]>>[C:1]([N:2](/[C:3]([O:4][C:6]([H:12])([H:13])[H:14])=[N:5]\[H:11])[H:10])([H:7])([H:8])[H:9]"
C       -2.30463972       0.22659564       0.00846063
N       -1.13928998      -0.22538885       0.73669491
C        0.11549123       0.03859557       0.26268426
O        0.26601954       0.27842543      -0.97858845
N        1.22310412      -0.27880154       0.88993774
C        2.20657300      -0.01000500      -0.83524151
H       -2.41559098       1.31570612       0.00589699
H       -3.19453486      -0.21567860       0.45632519
H       -2.23116661      -0.10580250      -1.02519094
H       -1.21360353      -0.30337066       1.73417111
H        1.14086163      -0.83652118       1.72780685
H        2.96967077      -0.64492986      -0.39953410
H        2.13674326      -0.27761920      -1.88598453
H        2.44036213       1.03879462      -0.69743815
14
Frame=8 idx=005311 GeodesicLength=0.2306370474866763 rxn_smarts="[C:1]([N:2]([C:3](=[O:4])[N:5]([C:6]([H:12])([H:13])[H:14])[H:11])[H:10])([H:7])([H:8])[H:9]>>[C:1]([N:2](/[C:3]([O:4][C:6]([H:12])([H:13])[H:14])=[N:5]\[H:11])[H:10])([H:7])([H:8])[H:9]"
C       -2.30389155       0.22391259       0.00854477
N       -1.13637156      -0.22316877       0.73650418
C        0.11654314       0.05972983       0.26700568
O        0.26531015       0.29185896      -0.97689956
N        1.22528621      -0.26715029       0.89055674
C        2.19754825      -0.01540144      -0.82970728
H       -2.41824262       1.31265423       0.00304527
H       -3.19176851      -0.21966648       0.45901972
H       -2.23094319      -0.11078346      -1.02441078
H       -1.21016956      -0.30462088       1.73379797
H        1.13634751      -0.84854085       1.71124721
H        2.96792195      -0.64660126      -0.39936462
H        2.14313738      -0.28526406      -1.88155748
H        2.43929240       1.03304188      -0.69778183
14
Frame=9 idx=005311 GeodesicLength=0.2599830967960929 rxn_smarts="[C:1]([N:2]([C:3](=[O:4])[N:5]([C:6]([H:12])([H:13])[H:14])[H:11])[H:10])([H:7])([H:8])[H:9]>>[C:1]([N:2](/[C:3]([O:4][C:6]([H:12])([H:13])[H:14])=[N:5]\[H:11])[H:10])([H:7])([H:8])[H:9]"
C       -2.30298700       0.22113072       0.00854514
N       -1.13333693      -0.22084444       0.73634414
C        0.11757965       0.08034227       0.27135344
O        0.26465491       0.30599500      -0.97488734
N        1.22742054      -0.25604691       0.89113786
C        2.18830101      -0.02088435      -0.82425932
H       -2.42084989       1.30946853       0.00007943
H       -3.18882455      -0.22384003       0.46156810
H       -2.23040421      -0.11589815      -1.02368378
H       -1.20664374      -0.30566496       1.73345665
H        1.13186081      -0.85957325       1.69469297
H        2.96574776      -0.64864307      -0.39951128
H        2.14917429      -0.29252116      -1.87710967
H        2.43830734       1.02697981      -0.69772633
14
Frame=10 idx=005311 GeodesicLength=0.2894429407758565 rxn_smarts="[C:1]([N:2]([C:3](=[O:4])[N:5]([C:6]([H:12])([H:13])[H:14])[H:11])[H:10])([H:7])([H:8])[H:9]>>[C:1]([N:2](/[C:3]([O:4][C:6]([H:12])([H:13])[H:14])=[N:5]\[H:11])[H:10])([H:7])([H:8])[H:9]"
C       -2.30190860       0.21818405       0.00841691
N       -1.13014986      -0.21834469       0.73624521
C        0.11864783       0.10072956       0.27592002
O        0.26409679       0.32120053      -0.97240993
N        1.22954725      -0.24535586       0.89174709
C        2.17878430      -0.02650844      -0.81894187
H       -2.42356758       1.30606480      -0.00297767
H       -3.18564507      -0.22843847       0.46381368
H       -2.22940907      -0.12113506      -1.02307142
H       -1.20304024      -0.30652243       1.73314874
H        1.12738810      -0.86963613       1.67822368
H        2.96300117      -0.65127857      -0.40008180
H        2.15466865      -0.29947312      -1.87269199
H        2.43758633       1.02051382      -0.69734066
14
Frame=11 idx=005311 GeodesicLength=0.3190165405329889 rxn_smarts="[C:1]([N:2]([C:3](=[O:4])[N:5]([C:6]([H:12])([H:13])[H:14])[H:11])[H:10])([H:7])([H:8])[H:9]>>[C:1]([N:2](/[C:3]([O:4][C:6]([H:12])([H:13])[H:14])=[N:5]\[H:11])[H:10])([H:7])([H:8])[H:9]"
C       -2.30065002       0.21513307       0.00817791
N       -1.12684470      -0.21573658       0.73620542
C        0.11973535       0.12074036       0.28063022
O        0.26360993       0.33713054      -0.96958044
N        1.23166556      -0.23513269       0.89236282
C        2.16901103      -0.03220741      -0.81374814
H       -2.42625377       1.30252608      -0.00615013
H       -3.18226917      -0.23327554       0.46582984
H       -2.22801979      -0.12648432      -1.02255499
H       -1.19937628      -0.30720315       1.73289889
H        1.12292902      -0.87885020       1.66188465
H        2.95979255      -0.65429174      -0.40099609
H        2.15973154      -0.30611076      -1.86830347
H        2.43693875       1.01376234      -0.69665648
14
Frame=12 idx=005311 GeodesicLength=0.3487087199543061 rxn_smarts="[C:1]([N:2]([C:3](=[O:4])[N:5]([C:6]([H:12])([H:13])[H:14])[H:11])[H:10])([H:7])([H:8])[H:9]>>[C:1]([N:2](/[C:3]([O:4][C:6]([H:12])([H:13])[H:14])=[N:5]\[H:11])[H:10])([H:7])([H:8])[H:9]"
C       -2.29921136       0.21202386       0.00784698
N       -1.12345152      -0.21304257       0.73623275
C        0.12083445       0.14026171       0.28543288
O        0.26317099       0.35346850      -0.96646726
N        1.23377182      -0.22543730       0.89295473
C        2.15900085      -0.03792021      -0.80866537
H       -2.42879727       1.29889704      -0.00949796
H       -3.17873317      -0.23817367       0.46768891
H       -2.22629676      -0.13197931      -1.02208198
H       -1.19566312      -0.30764853       1.73272187
H        1.11846957      -0.88739213       1.64564020
H        2.95622331      -0.65747961      -0.40219510
H        2.16447216      -0.31239731      -1.86392013
H        2.43621004       1.00681953      -0.69569052
14
Frame=13 idx=005311 GeodesicLength=0.3785209073006822 rxn_smarts="[C:1]([N:2]([C:3](=[O:4])[N:5]([C:6]([H:12])([H:13])[H:14])[H:11])[H:10])([H:7])([H:8])[H:9]>>[C:1]([N:2](/[C:3]([O:4][C:6]([H:12])([H:13])[H:14])=[N:5]\[H:11])[H:10])([H:7])([H:8])[H:9]"
C       -2.29757379       0.20882910       0.00739973
N       -1.11994455      -0.21031156       0.73628077
C        0.12196872       0.15945448       0.29043356
O        0.26281463       0.37047275      -0.96298289
N        1.23589860      -0.21609370       0.89356111
C        2.14870900      -0.04370974      -0.80372351
H       -2.43126740       1.29513367      -0.01285940
H       -3.17499772      -0.24331307       0.46924140
H       -2.22415309      -0.13745366      -1.02172614
H       -1.19191485      -0.30809590       1.73252644
H        1.11403949      -0.89501760       1.62967568
H        2.95217541      -0.66100338      -0.40372308
H        2.16873177      -0.31847694      -1.85955631
H        2.43551377       0.99958554      -0.69454738
14
Frame=14 idx=005311 GeodesicLength=0.4084249259434477 rxn_smarts="[C:1]([N:2]([C:3](=[O:4])[N:5]([C:6]([H:12])([H:13])[H:14])[H:11])[H:10])([H:7])([H:8])[H:9]>>[C:1]([N:2](/[C:3]([O:4][C:6]([H:12])([H:13])[H:14])=[N:5]\[H:11])[H:10])([H:7])([H:8])[H:9]"
C       -2.29575007       0.20561506       0.00685798
N       -1.11636326      -0.20760523       0.73635629
C        0.12311767       0.17815560       0.29554204
O        0.26250789       0.38775001      -0.95925957
N        1.23803472      -0.20718079       0.89416415
C        2.13817503      -0.04950618      -0.79891597
H       -2.43352873       1.29133943      -0.01628674
H       -3.17111926      -0.24847753       0.47059409
H       -2.22169525      -0.14292871      -1.02146548
H       -1.18813975      -0.30852904       1.73235914
H        1.10963528      -0.90190035       1.61401568
H        2.94779087      -0.66462839      -0.40549287
H        2.17267072      -0.32431006      -1.85521894
H        2.43466413       0.99220618      -0.69324980
14
Frame=15 idx=005311 GeodesicLength=0.43840362756368695 rxn_smarts="[C:1]([N:2]([C:3](=[O:4])[N:5]([C:6]([H:12])([H:13])[H:14])[H:11])[H:10])([H:7])([H:8])[H:9]>>[C:1]([N:2](/[C:3]([O:4][C:6]([H:12])([H:13])[H:14])=[N:5]\[H:11])[H:10])([H:7])([H:8])[H:9]"
C       -2.29376870       0.20246384       0.00626256
N       -1.11275352      -0.20501898       0.73642592
C        0.12425453       0.19617506       0.30066231
O        0.26221314       0.40485602      -0.95543361
N        1.24016497      -0.19874802       0.89471905
C        2.12746132      -0.05525161      -0.79422666
H       -2.43544182       1.28760928      -0.01975077
H       -3.16717207      -0.25343211       0.47184561
H       -2.21907215      -0.14834266      -1.02125098
H       -1.18434711      -0.30901630       1.73218169
H        1.10526081      -0.90812448       1.59867279
H        2.94325040      -0.66806887      -0.40738760
H        2.17647883      -0.32991447      -1.85086221
H        2.43347138       0.98481331      -0.69185812
14
Frame=16 idx=005311 GeodesicLength=0.46843032931608575 rxn_smarts="[C:1]([N:2]([C:3](=[O:4])[N:5]([C:6]([H:12])([H:13])[H:14])[H:11])[H:10])([H:7])([H:8])[H:9]>>[C:1]([N:2](/[C:3]([O:4][C:6]([H:12])([H:13])[H:14])=[N:5]\[H:11])[H:10])([H:7])([H:8])[H:9]"
C       -2.29166560       0.19944043       0.00564914
N       -1.10915511      -0.20263202       0.73646249
C        0.12535553       0.21337642       0.30570391
O        0.26189782       0.42143756      -0.95163277
N        1.24227507      -0.19082728       0.89519266
C        2.11663479      -0.06090686      -0.78964569
H       -2.43691385       1.28402829      -0.02322102
H       -3.16322501      -0.25799796       0.47308526
H       -2.21642299      -0.15364640      -1.02104962
H       -1.18054377      -0.30961234       1.73197346
H        1.10092122      -0.91377012       1.58366658
H        2.93871006      -0.67110852      -0.40930770
H        2.18032709      -0.33529988      -1.84645681
H        2.43180474       0.97751868      -0.69041989
