16
Frame=0 idx=011314 GeodesicLength=0.0 rxn_smarts="[C:1]([C@@:2]1([H:11])[C@:3]([C:4]([H:13])([H:14])[H:15])([H:12])[C@:5]1([C:6]#[N:7])[H:16])([H:8])([H:9])[H:10]>>[C:1](=[C:2]([C@@:3]([C:4]([H:13])([H:14])[H:15])([C@:5]1([H:16])[C:6]([H:9])=[N:7]1)[H:12])[H:11])([H:8])[H:10]"
C        1.48320351      -0.56903457       0.74445116
C        1.14337219       0.16295348      -0.38010111
C       -0.22377044       0.07747499      -1.01791145
C       -1.09944431      -1.12007976      -0.73762067
C       -0.21934081       1.24782749      -0.10787210
C       -0.55687487       1.07366238       1.31214115
N       -1.63371197       1.54825486       1.56392695
H        2.46779224      -0.45478570       1.18044261
H        0.21334725       0.38002377       1.87020305
H        0.93015431      -1.44936474       1.04345954
H        1.90163636       0.76312830      -0.86690694
H       -0.23692056       0.36143328      -2.06698863
H       -2.11150406      -0.92281394      -1.09340092
H       -0.71401494      -2.00067781      -1.25387650
H       -1.17226310      -1.34696321       0.32502685
H       -0.17166086       2.24896114      -0.51497304
16
Frame=1 idx=011314 GeodesicLength=0.1072656220028459 rxn_smarts="[C:1]([C@@:2]1([H:11])[C@:3]([C:4]([H:13])([H:14])[H:15])([H:12])[C@:5]1([C:6]#[N:7])[H:16])([H:8])([H:9])[H:10]>>[C:1](=[C:2]([C@@:3]([C:4]([H:13])([H:14])[H:15])([C@:5]1([H:16])[C:6]([H:9])=[N:7]1)[H:12])[H:11])([H:8])[H:10]"
C        1.49069085      -0.56945493       0.74484431
C        1.14395990       0.15798000      -0.38241750
C       -0.22448707       0.07877731      -1.01547741
C       -1.10472113      -1.11433604      -0.73181388
C       -0.22325507       1.25206939      -0.10601811
C       -0.56487364       1.07839821       1.31148752
N       -1.64588058       1.55531173       1.53584270
H        2.46026516      -0.41770503       1.20309946
H        0.20627333       0.34206793       1.87575648
H        0.97884014      -1.48132206       1.02173002
H        1.90085879       0.75344157      -0.87741626
H       -0.23897298       0.36281309      -2.06458439
H       -2.11687302      -0.91141480      -1.08455485
H       -0.72506689      -1.99766898      -1.24756674
H       -1.18106945      -1.34087660       0.33069565
H       -0.15568834       2.25191920      -0.51360700
16
Frame=2 idx=011314 GeodesicLength=0.2142361084325951 rxn_smarts="[C:1]([C@@:2]1([H:11])[C@:3]([C:4]([H:13])([H:14])[H:15])([H:12])[C@:5]1([C:6]#[N:7])[H:16])([H:8])([H:9])[H:10]>>[C:1](=[C:2]([C@@:3]([C:4]([H:13])([H:14])[H:15])([C@:5]1([H:16])[C:6]([H:9])=[N:7]1)[H:12])[H:11])([H:8])[H:10]"
C        1.49762590      -0.57005794       0.74546556
C        1.14442160       0.15316105      -0.38441696
C       -0.22524622       0.08014099      -1.01286743
C       -1.10981850      -1.10865353      -0.72575631
C       -0.22740671       1.25655663      -0.10422739
C       -0.57339313       1.08365198       1.31075109
N       -1.65773777       1.56308413       1.50791988
H        2.45072364      -0.38276737       1.22523762
H        0.19924141       0.30406238       1.88084537
H        1.02992796      -1.51212999       0.99841918
H        1.90007468       0.74388121      -0.88727462
H       -0.24089641       0.36404691      -2.06206107
H       -2.12192886      -0.90042016      -1.07597539
H       -0.73547570      -1.99479960      -1.24047321
H       -1.19012552      -1.33452454       0.33664619
H       -0.13998638       2.25476787      -0.51223252
16
Frame=3 idx=011314 GeodesicLength=0.3209392373234828 rxn_smarts="[C:1]([C@@:2]1([H:11])[C@:3]([C:4]([H:13])([H:14])[H:15])([H:12])[C@:5]1([C:6]#[N:7])[H:16])([H:8])([H:9])[H:10]>>[C:1](=[C:2]([C@@:3]([C:4]([H:13])([H:14])[H:15])([C@:5]1([H:16])[C:6]([H:9])=[N:7]1)[H:12])[H:11])([H:8])[H:10]"
C        1.50396049      -0.57097107       0.74627842
C        1.14473944       0.14848390      -0.38608630
C       -0.22606079       0.08156651      -1.01008296
C       -1.11477737      -1.10301307      -0.71946240
C       -0.23179649       1.26128786      -0.10250312
C       -0.58246167       1.08944565       1.30990800
N       -1.66938378       1.57148307       1.48010726
H        2.43932231      -0.35015252       1.24683870
H        0.19239683       0.26603484       1.88555676
H        1.08351993      -1.54148886       0.97360111
H        1.89927898       0.73442961      -0.89646239
H       -0.24269166       0.36513300      -2.05942168
H       -2.12668843      -0.88982874      -1.06776808
H       -0.74523736      -1.99208809      -1.23252241
H       -1.19955956      -1.32782806       0.34286298
H       -0.12456087       2.25750597      -0.51084389
16
Frame=4 idx=011314 GeodesicLength=0.42748163197899214 rxn_smarts="[C:1]([C@@:2]1([H:11])[C@:3]([C:4]([H:13])([H:14])[H:15])([H:12])[C@:5]1([C:6]#[N:7])[H:16])([H:8])([H:9])[H:10]>>[C:1](=[C:2]([C@@:3]([C:4]([H:13])([H:14])[H:15])([C@:5]1([H:16])[C:6]([H:9])=[N:7]1)[H:12])[H:11])([H:8])[H:10]"
C        1.50966214      -0.57232821       0.74723826
C        1.14489773       0.14393258      -0.38741439
C       -0.22694583       0.08305549      -1.00712261
C       -1.11964366      -1.09738905      -0.71294257
C       -0.23641851       1.26625800      -0.10085100
C       -0.59210799       1.09580610       1.30892572
N       -1.68090865       1.58044250       1.45232599
H        2.42620900      -0.32001766       1.26789660
H        0.18584795       0.22791397       1.88998998
H        1.13975004      -1.56905506       0.94734884
H        1.89846468       0.72505641      -0.90496599
H       -0.24436693       0.36607091      -2.05666318
H       -2.13118111      -0.87963717      -1.06002400
H       -0.75435557      -1.98953553      -1.22363234
H       -1.20949905      -1.32069967       0.34932938
H       -0.10940424       2.26012640      -0.50943871
16
Frame=5 idx=011314 GeodesicLength=0.5340281832482663 rxn_smarts="[C:1]([C@@:2]1([H:11])[C@:3]([C:4]([H:13])([H:14])[H:15])([H:12])[C@:5]1([C:6]#[N:7])[H:16])([H:8])([H:9])[H:10]>>[C:1](=[C:2]([C@@:3]([C:4]([H:13])([H:14])[H:15])([C@:5]1([H:16])[C:6]([H:9])=[N:7]1)[H:12])[H:11])([H:8])[H:10]"
C        1.51484899      -0.57417316       0.74833873
C        1.14491795       0.13946037      -0.38839396
C       -0.22787730       0.08458294      -1.00396533
C       -1.12446134      -1.09176454      -0.70618663
C       -0.24120666       1.27145079      -0.09924926
C       -0.60233839       1.10277791       1.30779835
N       -1.69239229       1.58990333       1.42450389
H        2.41158711      -0.29208405       1.28844018
H        0.17961456       0.18942506       1.89421571
H        1.19840311      -1.59472675       0.91961769
H        1.89763853       0.71570557      -0.91286982
H       -0.24589889       0.36683805      -2.05376841
H       -2.13541125      -0.86979437      -1.05278038
H       -0.76290741      -1.98716544      -1.21373667
H       -1.22005388      -1.31305991       0.35604020
H       -0.09446283       2.26262417      -0.50800428
16
Frame=6 idx=011314 GeodesicLength=0.6405499989518884 rxn_smarts="[C:1]([C@@:2]1([H:11])[C@:3]([C:4]([H:13])([H:14])[H:15])([H:12])[C@:5]1([C:6]#[N:7])[H:16])([H:8])([H:9])[H:10]>>[C:1](=[C:2]([C@@:3]([C:4]([H:13])([H:14])[H:15])([C@:5]1([H:16])[C:6]([H:9])=[N:7]1)[H:12])[H:11])([H:8])[H:10]"
C        1.51942267      -0.57670624       0.74949468
C        1.14477184       0.13505245      -0.38902489
C       -0.22889126       0.08615979      -1.00062300
C       -1.12928516      -1.08611643      -0.69921259
C       -0.24617867       1.27686878      -0.09771515
C       -0.61317775       1.11037593       1.30649684
N       -1.70388401       1.59984598       1.39658306
H        2.39551059      -0.26668706       1.30845287
H        0.17379666       0.15048716       1.89829029
H        1.25980597      -1.61794787       0.89060450
H        1.89679711       0.70634885      -0.92013065
H       -0.24731369       0.36744741      -2.05074676
H       -2.13943193      -0.86030675      -1.04614305
H       -0.77087098      -1.98497320      -1.20276390
H       -1.23134649      -1.30484572       0.36297634
H       -0.07972488       2.26499693      -0.50653859
16
Frame=7 idx=011314 GeodesicLength=0.7470399668836614 rxn_smarts="[C:1]([C@@:2]1([H:11])[C@:3]([C:4]([H:13])([H:14])[H:15])([H:12])[C@:5]1([C:6]#[N:7])[H:16])([H:8])([H:9])[H:10]>>[C:1](=[C:2]([C@@:3]([C:4]([H:13])([H:14])[H:15])([C@:5]1([H:16])[C:6]([H:9])=[N:7]1)[H:12])[H:11])([H:8])[H:10]"
C        1.52340671      -0.58003710       0.75064349
C        1.14445163       0.13068103      -0.38932192
C       -0.22999305       0.08777835      -0.99709728
C       -1.13415593      -1.08042042      -0.69202772
C       -0.25130295       1.28250401      -0.09624453
C       -0.62461218       1.11863900       1.30501619
N       -1.71540275       1.61025028       1.36852140
H        2.37807474      -0.24384921       1.32794723
H        0.16839799       0.11084071       1.90222101
H        1.32399489      -1.63836817       0.86047472
H        1.89592070       0.69694946      -0.92679479
H       -0.24861884       0.36789475      -2.04760215
H       -2.14325718      -0.85114039      -1.04017145
H       -0.77827909      -1.98297565      -1.19065484
H       -1.24346279      -1.29598404       0.37012444
H       -0.06516191       2.26723738      -0.50503381
16
Frame=8 idx=011314 GeodesicLength=0.8535754239992575 rxn_smarts="[C:1]([C@@:2]1([H:11])[C@:3]([C:4]([H:13])([H:14])[H:15])([H:12])[C@:5]1([C:6]#[N:7])[H:16])([H:8])([H:9])[H:10]>>[C:1](=[C:2]([C@@:3]([C:4]([H:13])([H:14])[H:15])([C@:5]1([H:16])[C:6]([H:9])=[N:7]1)[H:12])[H:11])([H:8])[H:10]"
C        1.52684385      -0.58427979       0.75171219
C        1.14395253       0.12630983      -0.38930233
C       -0.23119054       0.08943149      -0.99338942
C       -1.13912082      -1.07464564      -0.68463756
C       -0.25653922       1.28834208      -0.09483656
C       -0.63661380       1.12759990       1.30334132
N       -1.72694753       1.62109302       1.34025946
H        2.35934440      -0.22355893       1.34693922
H        0.16342243       0.07013945       1.90600705
H        1.39100560      -1.65557306       0.82944748
H        1.89498646       0.68745944      -0.93291434
H       -0.24983264       0.36817746      -2.04433477
H       -2.14691725      -0.84225707      -1.03491031
H       -0.78518604      -1.98116231      -1.17736073
H       -1.25647606      -1.28640052       0.37746299
H       -0.05073138       2.26932464      -0.50348368
16
Frame=9 idx=011314 GeodesicLength=0.9604586994236649 rxn_smarts="[C:1]([C@@:2]1([H:11])[C@:3]([C:4]([H:13])([H:14])[H:15])([H:12])[C@:5]1([C:6]#[N:7])[H:16])([H:8])([H:9])[H:10]>>[C:1](=[C:2]([C@@:3]([C:4]([H:13])([H:14])[H:15])([C@:5]1([H:16])[C:6]([H:9])=[N:7]1)[H:12])[H:11])([H:8])[H:10]"
C        1.52996448      -0.58944941       0.75269389
C        1.14333220       0.12185647      -0.38894992
C       -0.23245190       0.09108201      -0.98945941
C       -1.14423521      -1.06876862      -0.67701761
C       -0.26178821       1.29433937      -0.09348114
C       -0.64916097       1.13727404       1.30140265
N       -1.73853243       1.63234674       1.31164958
H        2.33938712      -0.20528243       1.36551855
H        0.15885657       0.02787077       1.90975227
H        1.46047298      -1.66938450       0.79737571
H        1.89403662       0.67777481      -0.93855047
H       -0.25094766       0.36826522      -2.04088862
H       -2.15047244      -0.83362340      -1.03026116
H       -0.79173627      -1.97944975      -1.16285859
H       -1.27040987      -1.27606748       0.38495827
H       -0.03631502       2.27121618      -0.50188398
16
Frame=10 idx=011314 GeodesicLength=1.0674033970149814 rxn_smarts="[C:1]([C@@:2]1([H:11])[C@:3]([C:4]([H:13])([H:14])[H:15])([H:12])[C@:5]1([C:6]#[N:7])[H:16])([H:8])([H:9])[H:10]>>[C:1](=[C:2]([C@@:3]([C:4]([H:13])([H:14])[H:15])([C@:5]1([H:16])[C:6]([H:9])=[N:7]1)[H:12])[H:11])([H:8])[H:10]"
C        1.53267477      -0.59573201       0.75344578
C        1.14254851       0.11731192      -0.38832372
C       -0.23381973       0.09274393      -0.98534802
C       -1.14954256      -1.06277616      -0.66920305
C       -0.26706460       1.30051038      -0.09218654
C       -0.66223264       1.14768000       1.29923317
N       -1.75011244       1.64404165       1.28273788
H        2.31820859      -0.18951052       1.38361166
H        0.15476596      -0.01616074       1.91330556
H        1.53268427      -1.67908358       0.76487909
H        1.89302283       0.66789934      -0.94374802
H       -0.25200845       0.36818588      -2.03731334
H       -2.15394349      -0.82520998      -1.02634006
H       -0.79792462      -1.97788320      -1.14712020
H       -1.28534220      -1.26494196       0.39258834
H       -0.02191419       2.27292507      -0.50021852
16
Frame=11 idx=011314 GeodesicLength=1.1743456129846734 rxn_smarts="[C:1]([C@@:2]1([H:11])[C@:3]([C:4]([H:13])([H:14])[H:15])([H:12])[C@:5]1([C:6]#[N:7])[H:16])([H:8])([H:9])[H:10]>>[C:1](=[C:2]([C@@:3]([C:4]([H:13])([H:14])[H:15])([C@:5]1([H:16])[C:6]([H:9])=[N:7]1)[H:12])[H:11])([H:8])[H:10]"
C        1.53507024      -0.60319130       0.75387980
C        1.14160661       0.11264092      -0.38746478
C       -0.23528664       0.09440341      -0.98105555
C       -1.15506554      -1.05663885      -0.66118066
C       -0.27231439       1.30683714      -0.09094665
C       -0.67577505       1.15885425       1.29683962
N       -1.76164181       1.65617490       1.25350275
H        2.29582226      -0.17618966       1.40123194
H        0.15111448      -0.06241697       1.91650661
H        1.60751095      -1.68425766       0.73229169
H        1.89190884       0.65779656      -0.94861156
H       -0.25302504       0.36793108      -2.03361043
H       -2.15734482      -0.81694626      -1.02312202
H       -0.80381968      -1.97645022      -1.13012334
H       -1.30127501      -1.25297036       0.40035010
H       -0.00748541       2.27442303      -0.49848750
16
Frame=12 idx=011314 GeodesicLength=1.2812424194454126 rxn_smarts="[C:1]([C@@:2]1([H:11])[C@:3]([C:4]([H:13])([H:14])[H:15])([H:12])[C@:5]1([C:6]#[N:7])[H:16])([H:8])([H:9])[H:10]>>[C:1](=[C:2]([C@@:3]([C:4]([H:13])([H:14])[H:15])([C@:5]1([H:16])[C:6]([H:9])=[N:7]1)[H:12])[H:11])([H:8])[H:10]"
C        1.53728402      -0.61186894       0.75389381
C        1.14052076       0.10780167      -0.38642772
C       -0.23684921       0.09604651      -0.97659007
C       -1.16083143      -1.05033372      -0.65295067
C       -0.27747130       1.31329691      -0.08975646
C       -0.68971304       1.17081709       1.29421660
N       -1.77304024       1.66874440       1.22391333
H        2.27220091      -0.16522395       1.41838967
H        0.14789794      -0.11138712       1.91922049
H        1.68474281      -1.68448743       0.70003340
H        1.89066311       0.64744012      -0.95325102
H       -0.25403221       0.36750310      -2.02978893
H       -2.16070333      -0.80878320      -1.02054684
H       -0.80953054      -1.97511589      -1.11189038
H       -1.31816747      -1.24013243       0.40822245
H        0.00702922       2.27568287      -0.49668767
16
Frame=13 idx=011314 GeodesicLength=1.3884665098598132 rxn_smarts="[C:1]([C@@:2]1([H:11])[C@:3]([C:4]([H:13])([H:14])[H:15])([H:12])[C@:5]1([C:6]#[N:7])[H:16])([H:8])([H:9])[H:10]>>[C:1](=[C:2]([C@@:3]([C:4]([H:13])([H:14])[H:15])([C@:5]1([H:16])[C:6]([H:9])=[N:7]1)[H:12])[H:11])([H:8])[H:10]"
C        1.53958002      -0.62175576       0.75344904
C        1.13936375       0.10271245      -0.38520055
C       -0.23849579       0.09764636      -0.97191229
C       -1.16690304      -1.04383159      -0.64449974
C       -0.28245181       1.31985061      -0.08864053
C       -0.70402033       1.18356784       1.29119229
N       -1.78429807       1.68172294       1.19375171
H        2.24730542      -0.15623780       1.43515367
H        0.14529600      -0.16365429       1.92161876
H        1.76392309      -1.67940851       0.66810627
H        1.88934989       0.63672823      -0.95765939
H       -0.25507377       0.36687174      -2.02576806
H       -2.16412401      -0.80071622      -1.01843591
H       -0.81523630      -1.97370090      -1.09245530
H       -1.33595988      -1.22644882       0.41612479
H        0.02174481       2.27665371      -0.49482477
16
Frame=14 idx=011314 GeodesicLength=1.4955060358628238 rxn_smarts="[C:1]([C@@:2]1([H:11])[C@:3]([C:4]([H:13])([H:14])[H:15])([H:12])[C@:5]1([C:6]#[N:7])[H:16])([H:8])([H:9])[H:10]>>[C:1](=[C:2]([C@@:3]([C:4]([H:13])([H:14])[H:15])([C@:5]1([H:16])[C:6]([H:9])=[N:7]1)[H:12])[H:11])([H:8])[H:10]"
C        1.54195871      -0.63292390       0.75236704
C        1.13810398       0.09738121      -0.38390911
C       -0.24023458       0.09920642      -0.96707308
C       -1.17327170      -1.03712984      -0.63581155
C       -0.28723097       1.32652319      -0.08758108
C       -0.71861661       1.19716788       1.28791600
N       -1.79529637       1.69517932       1.16317923
H        2.22108106      -0.14958902       1.45145255
H        0.14325472      -0.21965655       1.92311901
H        1.84504529      -1.66845353       0.63744531
H        1.88787618       0.62571472      -0.96206449
H       -0.25617421       0.36605953      -2.02163887
H       -2.16757916      -0.79263072      -1.01679480
H       -0.82096427      -1.97232528      -1.07182943
H       -1.35460999      -1.21188719       0.42413155
H        0.03665792       2.27736376      -0.49290830
16
Frame=15 idx=011314 GeodesicLength=1.602309440613301 rxn_smarts="[C:1]([C@@:2]1([H:11])[C@:3]([C:4]([H:13])([H:14])[H:15])([H:12])[C@:5]1([C:6]#[N:7])[H:16])([H:8])([H:9])[H:10]>>[C:1](=[C:2]([C@@:3]([C:4]([H:13])([H:14])[H:15])([C@:5]1([H:16])[C:6]([H:9])=[N:7]1)[H:12])[H:11])([H:8])[H:10]"
C        1.54460163      -0.64534372       0.75055557
C        1.13677855       0.09178204      -0.38259387
C       -0.24204773       0.10071385      -0.96205798
C       -1.17994326      -1.03019591      -0.62684360
C       -0.29174366       1.33329229      -0.08659761
C       -0.73344298       1.21163573       1.28432007
N       -1.80596535       1.70910775       1.13210814
H        2.19344992      -0.14519998       1.46731265
H        0.14187583      -0.27993823       1.92354001
H        1.92766839      -1.65123452       0.60838015
H        1.88623108       0.61437755      -0.96654942
H       -0.25736053       0.36504742      -2.01737268
H       -2.17109923      -0.78448034      -1.01545592
H       -0.82682020      -1.97089226      -1.05002344
H       -1.37400660      -1.19644223       0.43225188
H        0.05182415       2.27777056      -0.49097396
16
Frame=16 idx=011314 GeodesicLength=1.7088191746018901 rxn_smarts="[C:1]([C@@:2]1([H:11])[C@:3]([C:4]([H:13])([H:14])[H:15])([H:12])[C@:5]1([C:6]#[N:7])[H:16])([H:8])([H:9])[H:10]>>[C:1](=[C:2]([C@@:3]([C:4]([H:13])([H:14])[H:15])([C@:5]1([H:16])[C:6]([H:9])=[N:7]1)[H:12])[H:11])([H:8])[H:10]"
C        1.54772180      -0.65897267       0.74789560
C        1.13543302       0.08589568      -0.38131919
C       -0.24392022       0.10215456      -0.95686216
C       -1.18692236      -1.02301604      -0.61755516
C       -0.29591873       1.34015666      -0.08569817
C       -0.74843220       1.22702672       1.28036299
N       -1.81622810       1.72353311       1.10047747
H        2.16426711      -0.14302481       1.48275772
H        0.14129988      -0.34510089       1.92260769
H        2.01132033      -1.62735718       0.58138564
H        1.88441648       0.60271388      -0.97123955
H       -0.25867602       0.36381612      -2.01296171
H       -2.17471599      -0.77621290      -1.01423398
H       -0.83292926      -1.96935039      -1.02707551
H       -1.39401376      -1.18012977       0.44051115
H        0.06729803       2.27786791      -0.48905283
