19
Frame=0 idx=010195 GeodesicLength=0.0 rxn_smarts="[C:1]([C:2]([C@@:3]1([C:4]([H:13])([H:14])[H:15])[C:5]([H:16])([H:17])[C@:6]1([O:7][H:19])[H:18])([H:11])[H:12])([H:8])([H:9])[H:10]>>[C:1]([C:2]([C@@:3]([C:4]([H:13])([H:14])[H:15])([C:6](=[C:5]([H:16])[H:17])[H:18])[O:7][H:19])([H:11])[H:12])([H:8])([H:9])[H:10]"
C        2.12211469       0.35380576      -0.29121566
C        1.03811493      -0.30152877       0.57182483
C       -0.27705925      -0.33273723      -0.12238212
C       -0.35700718      -1.04580868      -1.42425569
C       -1.64970278       0.00944014       1.76590387
C       -1.43521353       0.27684193       0.42551612
O       -0.73549138       1.85305553      -0.05261433
H        1.83036044       1.38006881      -0.51224458
H        2.27769538      -0.17963104      -1.23072064
H        3.06860076       0.35743384       0.24978282
H        0.95340642       0.23702589       1.51193405
H        1.32835461      -1.33686599       0.78796438
H       -0.13170691      -0.32904668      -2.21975484
H        0.37324266      -1.85286503      -1.49675647
H       -1.35944086      -1.43316211      -1.60150176
H       -0.83475237      -0.15569071       2.45411889
H       -2.65176140       0.01266520       2.17206023
H       -2.31539939       0.25215963      -0.21058866
H       -1.24435488       2.23483944      -0.77707047
19
Frame=1 idx=010195 GeodesicLength=0.07159470964088083 rxn_smarts="[C:1]([C:2]([C@@:3]1([C:4]([H:13])([H:14])[H:15])[C:5]([H:16])([H:17])[C@:6]1([O:7][H:19])[H:18])([H:11])[H:12])([H:8])([H:9])[H:10]>>[C:1]([C:2]([C@@:3]([C:4]([H:13])([H:14])[H:15])([C:6](=[C:5]([H:16])[H:17])[H:18])[O:7][H:19])([H:11])[H:12])([H:8])([H:9])[H:10]"
C        2.12515707       0.35339136      -0.29737986
C        1.03597281      -0.28175205       0.57304638
C       -0.28325701      -0.31001976      -0.11706120
C       -0.36652837      -1.03894293      -1.41213018
C       -1.64615586      -0.03535581       1.75306806
C       -1.45029335       0.29535083       0.42474141
O       -0.72092222       1.85343470      -0.04739558
H        1.84368961       1.37889945      -0.53513805
H        2.27893623      -0.19427078      -1.22896770
H        3.07152730       0.35891423       0.24400193
H        0.95763706       0.26835942       1.50733863
H        1.31749321      -1.31615975       0.80382774
H       -0.11134318      -0.34133339      -2.21538972
H        0.34047218      -1.86815008      -1.46419687
H       -1.37452177      -1.40629004      -1.60096837
H       -0.83158108      -0.14588532       2.45255166
H       -2.64730406      -0.07562362       2.16019098
H       -2.33001763       0.27534283      -0.21199122
H       -1.20896093       2.23009073      -0.78814805
19
Frame=2 idx=010195 GeodesicLength=0.14363038682396714 rxn_smarts="[C:1]([C:2]([C@@:3]1([C:4]([H:13])([H:14])[H:15])[C:5]([H:16])([H:17])[C@:6]1([O:7][H:19])[H:18])([H:11])[H:12])([H:8])([H:9])[H:10]>>[C:1]([C:2]([C@@:3]([C:4]([H:13])([H:14])[H:15])([C:6](=[C:5]([H:16])[H:17])[H:18])[O:7][H:19])([H:11])[H:12])([H:8])([H:9])[H:10]"
C        2.12802797       0.35299360      -0.30322097
C        1.03410797      -0.26219223       0.57440440
C       -0.28927072      -0.28725289      -0.11142833
C       -0.37644943      -1.03180750      -1.39953369
C       -1.64055846      -0.07744324       1.73926640
C       -1.46453468       0.31452001       0.42532755
O       -0.70682078       1.85397160      -0.04354970
H        1.85661541       1.37737308      -0.55744370
H        2.27971524      -0.20857925      -1.22683675
H        3.07442063       0.36045364       0.23826554
H        0.96212011       0.29894224       1.50297716
H        1.30712480      -1.29545615       0.81930620
H       -0.09149819      -0.35442521      -2.20984735
H        0.30614572      -1.88240087      -1.43082082
H       -1.38961957      -1.37849522      -1.60016676
H       -0.83094998      -0.13742512       2.45067924
H       -2.63982865      -0.16571165       2.14406586
H       -2.34419238       0.29876632      -0.21148222
H       -1.17455502       2.22416885      -0.79996207
19
Frame=3 idx=010195 GeodesicLength=0.21597315406695505 rxn_smarts="[C:1]([C:2]([C@@:3]1([C:4]([H:13])([H:14])[H:15])[C:5]([H:16])([H:17])[C@:6]1([O:7][H:19])[H:18])([H:11])[H:12])([H:8])([H:9])[H:10]>>[C:1]([C:2]([C@@:3]([C:4]([H:13])([H:14])[H:15])([C:6](=[C:5]([H:16])[H:17])[H:18])[O:7][H:19])([H:11])[H:12])([H:8])([H:9])[H:10]"
C        2.13077687       0.35262935      -0.30867079
C        1.03251022      -0.24297873       0.57588324
C       -0.29509160      -0.26468588      -0.10558288
C       -0.38656193      -1.02447691      -1.38670867
C       -1.63329726      -0.11688010       1.72460699
C       -1.47808170       0.33389405       0.42712146
O       -0.69331484       1.85438249      -0.04105746
H        1.86911320       1.37551744      -0.57907251
H        2.28022220      -0.22249192      -1.22429078
H        3.07728611       0.36211806       0.23276905
H        0.96677492       0.32867355       1.49884883
H        1.29729535      -1.27490096       0.83439036
H       -0.07226601      -0.36817038      -2.20328917
H        0.27073648      -1.89542604      -1.39709722
H       -1.40441604      -1.35018147      -1.59930031
H       -0.83243450      -0.13139062       2.44842300
H       -2.62925775      -0.25470036       2.12433844
H       -2.35803853       0.32194287      -0.20930493
H       -1.14195521       2.21712557      -0.81200665
19
Frame=4 idx=010195 GeodesicLength=0.28850415017240416 rxn_smarts="[C:1]([C:2]([C@@:3]1([C:4]([H:13])([H:14])[H:15])[C:5]([H:16])([H:17])[C@:6]1([O:7][H:19])[H:18])([H:11])[H:12])([H:8])([H:9])[H:10]>>[C:1]([C:2]([C@@:3]([C:4]([H:13])([H:14])[H:15])([C:6](=[C:5]([H:16])[H:17])[H:18])[O:7][H:19])([H:11])[H:12])([H:8])([H:9])[H:10]"
C        2.13337276       0.35227351      -0.31367215
C        1.03113271      -0.22425493       0.57742922
C       -0.30070416      -0.24255670      -0.09961562
C       -0.39663075      -1.01699213      -1.37387260
C       -1.62470042      -0.15388404       1.70911247
C       -1.49103528       0.35304866       0.42994923
O       -0.68054300       1.85440427      -0.03973409
H        1.88107297       1.37331801      -0.59990992
H        2.28056484      -0.23598108      -1.22128395
H        3.08001980       0.36390564       0.22765752
H        0.97148650       0.35743507       1.49488606
H        1.28800903      -1.25465105       0.84900355
H       -0.05377475      -0.38231535      -2.19582745
H        0.23483942      -1.90699798      -1.36355143
H       -1.41854555      -1.32177447      -1.59847476
H       -0.83552443      -0.12826385       2.44564088
H       -2.61578479      -0.34013884       2.10184271
H       -2.37157977       0.34446547      -0.20570612
H       -1.11167511       2.20895979      -0.82387356
19
Frame=5 idx=010195 GeodesicLength=0.36159177439255524 rxn_smarts="[C:1]([C:2]([C@@:3]1([C:4]([H:13])([H:14])[H:15])[C:5]([H:16])([H:17])[C@:6]1([O:7][H:19])[H:18])([H:11])[H:12])([H:8])([H:9])[H:10]>>[C:1]([C:2]([C@@:3]([C:4]([H:13])([H:14])[H:15])([C:6](=[C:5]([H:16])[H:17])[H:18])[O:7][H:19])([H:11])[H:12])([H:8])([H:9])[H:10]"
C        2.13581584       0.35198350      -0.31845451
C        1.03000331      -0.20570093       0.57908216
C       -0.30611689      -0.22058726      -0.09342420
C       -0.40688372      -1.00945691      -1.36069696
C       -1.61510661      -0.18811455       1.69299570
C       -1.50334372       0.37239792       0.43388528
O       -0.66830697       1.85443530      -0.03921715
H        1.89253118       1.37077316      -0.62050989
H        2.28065440      -0.24926509      -1.21790410
H        3.08269905       0.36602585       0.22257406
H        0.97635073       0.38571141       1.49105175
H        1.27925185      -1.23437189       0.86338130
H       -0.03562055      -0.39750373      -2.18731305
H        0.19762454      -1.91765428      -1.32927601
H       -1.43237014      -1.29273293      -1.59762060
H       -0.83995844      -0.12803504       2.44263667
H       -2.59968844      -0.42483116       2.07528933
H       -2.38472477       0.36699677      -0.20069635
H       -1.08281063       2.19992984      -0.83578343
19
Frame=6 idx=010195 GeodesicLength=0.4350582746880628 rxn_smarts="[C:1]([C:2]([C@@:3]1([C:4]([H:13])([H:14])[H:15])[C:5]([H:16])([H:17])[C@:6]1([O:7][H:19])[H:18])([H:11])[H:12])([H:8])([H:9])[H:10]>>[C:1]([C:2]([C@@:3]([C:4]([H:13])([H:14])[H:15])([C:6](=[C:5]([H:16])[H:17])[H:18])[O:7][H:19])([H:11])[H:12])([H:8])([H:9])[H:10]"
C        2.13813194       0.35172473      -0.32292225
C        1.02908115      -0.18750868       0.58078818
C       -0.31132859      -0.19905060      -0.08713762
C       -0.41706270      -1.00187205      -1.34750915
C       -1.60477175      -0.22009040       1.67624591
C       -1.51515327       0.39143096       0.43872474
O       -0.65679955       1.85415663      -0.03937063
H        1.90342735       1.36785987      -0.64070275
H        2.28068479      -0.26231339      -1.21407183
H        3.08527217       0.36846061       0.21775404
H        0.98126099       0.41331366       1.48729896
H        1.27101772      -1.21427487       0.87744023
H       -0.01796081      -0.41336071      -2.17794977
H        0.15975365      -1.92709081      -1.29496420
H       -1.44551155      -1.26349875      -1.59694962
H       -0.84524824      -0.13088395       2.43923081
H       -2.58124972      -0.50599896       2.04597651
H       -2.39757827       0.38899810      -0.19453503
H       -1.05596530       2.18999862      -0.84734655
19
Frame=7 idx=010195 GeodesicLength=0.5092550622986037 rxn_smarts="[C:1]([C:2]([C@@:3]1([C:4]([H:13])([H:14])[H:15])[C:5]([H:16])([H:17])[C@:6]1([O:7][H:19])[H:18])([H:11])[H:12])([H:8])([H:9])[H:10]>>[C:1]([C:2]([C@@:3]([C:4]([H:13])([H:14])[H:15])([C:6](=[C:5]([H:16])[H:17])[H:18])[O:7][H:19])([H:11])[H:12])([H:8])([H:9])[H:10]"
C        2.14030357       0.35149349      -0.32723038
C        1.02836936      -0.16944713       0.58257482
C       -0.31634274      -0.17771757      -0.08068338
C       -0.42733305      -0.99431406      -1.33403249
C       -1.59391006      -0.24965223       1.65900296
C       -1.52641022       0.41048558       0.44453268
O       -0.64587079       1.85385433      -0.03997407
H        1.91376347       1.36450240      -0.66090336
H        2.28058738      -0.27535505      -1.20979555
H        3.08776332       0.37133734       0.21294353
H        0.98627931       0.44061035       1.48357273
H        1.26326043      -1.19410809       0.89136176
H       -0.00048588      -0.43044592      -2.16753913
H        0.12052729      -1.93565757      -1.25989841
H       -1.45818146      -1.23360641      -1.59641733
H       -0.85121345      -0.13646532       2.43561439
H       -2.56040251      -0.58592593       2.01265316
H       -2.41006058       0.41098087      -0.18718522
H       -1.03064340       2.17943093      -0.85859671
19
Frame=8 idx=010195 GeodesicLength=0.5839776885905491 rxn_smarts="[C:1]([C:2]([C@@:3]1([C:4]([H:13])([H:14])[H:15])[C:5]([H:16])([H:17])[C@:6]1([O:7][H:19])[H:18])([H:11])[H:12])([H:8])([H:9])[H:10]>>[C:1]([C:2]([C@@:3]([C:4]([H:13])([H:14])[H:15])([C:6](=[C:5]([H:16])[H:17])[H:18])[O:7][H:19])([H:11])[H:12])([H:8])([H:9])[H:10]"
C        2.14234692       0.35123682      -0.33129077
C        1.02782695      -0.15170719       0.58440876
C       -0.32117177      -0.15684015      -0.07415113
C       -0.43748953      -0.98675811      -1.32056964
C       -1.58267951      -0.27720399       1.64129077
C       -1.53724064       0.42913748       0.45112715
O       -0.63566943       1.85326267      -0.04091603
H        1.92350411       1.36067582      -0.68090982
H        2.28048968      -0.28834298      -1.20503337
H        3.09013806       0.37456796       0.20832387
H        0.99132750       0.46740274       1.47985265
H        1.25595200      -1.17408702       0.90507124
H        0.01654460      -0.44828736      -2.15626832
H        0.08065793      -1.94299951      -1.22483028
H       -1.47006557      -1.20355323      -1.59613474
H       -0.85753501      -0.14460355       2.43165948
H       -2.53747828      -0.66252137       1.97655806
H       -2.42227054       0.43246842      -0.17886295
H       -1.00718746       2.16815255      -0.86932492
19
Frame=9 idx=010195 GeodesicLength=0.6593208780892788 rxn_smarts="[C:1]([C:2]([C@@:3]1([C:4]([H:13])([H:14])[H:15])[C:5]([H:16])([H:17])[C@:6]1([O:7][H:19])[H:18])([H:11])[H:12])([H:8])([H:9])[H:10]>>[C:1]([C:2]([C@@:3]([C:4]([H:13])([H:14])[H:15])([C:6](=[C:5]([H:16])[H:17])[H:18])[O:7][H:19])([H:11])[H:12])([H:8])([H:9])[H:10]"
C        2.14426137       0.35098399      -0.33514872
C        1.02746058      -0.13426444       0.58627980
C       -0.32581143      -0.13642767      -0.06754308
C       -0.44752525      -0.97926021      -1.30710969
C       -1.57120897      -0.30292836       1.62318169
C       -1.54764873       0.44735857       0.45848321
O       -0.62617876       1.85239688      -0.04205676
H        1.93262063       1.35639329      -0.70081126
H        2.28040955      -0.30127300      -1.19980746
H        3.09240762       0.37824540       0.20382098
H        0.99641769       0.49374121       1.47611798
H        1.24910576      -1.15419205       0.91858315
H        0.03329884      -0.46706576      -2.14410323
H        0.03997150      -1.94924001      -1.18965587
H       -1.48114257      -1.17321229      -1.59621016
H       -0.86403855      -0.15515253       2.42738376
H       -2.51270938      -0.73583323       1.93768334
H       -2.43419862       0.45348383      -0.16961329
H       -0.98549129       2.15624640      -0.87947439
19
Frame=10 idx=010195 GeodesicLength=0.7353829526101119 rxn_smarts="[C:1]([C:2]([C@@:3]1([C:4]([H:13])([H:14])[H:15])[C:5]([H:16])([H:17])[C@:6]1([O:7][H:19])[H:18])([H:11])[H:12])([H:8])([H:9])[H:10]>>[C:1]([C:2]([C@@:3]([C:4]([H:13])([H:14])[H:15])([C:6](=[C:5]([H:16])[H:17])[H:18])[O:7][H:19])([H:11])[H:12])([H:8])([H:9])[H:10]"
C        2.14604685       0.35074958      -0.33883544
C        1.02727083      -0.11710664       0.58817875
C       -0.33025908      -0.11649262      -0.06086328
C       -0.45742541      -0.97186164      -1.29365153
C       -1.55958683      -0.32699154       1.60474211
C       -1.55764066       0.46511432       0.46657774
O       -0.61739059       1.85125833      -0.04329657
H        1.94108560       1.35165168      -0.72067222
H        2.28037153      -0.31415145      -1.19412363
H        3.09457532       0.38243937       0.19938190
H        1.00155613       0.51966503       1.47234531
H        1.24272196      -1.13441613       0.93190710
H        0.04991969      -0.48694477      -2.13099356
H       -0.00169443      -1.95444978      -1.15432096
H       -1.49135557      -1.14245106      -1.59676468
H       -0.87058271      -0.16792096       2.42278865
H       -2.48626458      -0.80589273       1.89606088
H       -2.44584288       0.47402008      -0.15946581
H       -0.96550514       2.14378091      -0.88899475
19
Frame=11 idx=010195 GeodesicLength=0.8119822334381948 rxn_smarts="[C:1]([C:2]([C@@:3]1([C:4]([H:13])([H:14])[H:15])[C:5]([H:16])([H:17])[C@:6]1([O:7][H:19])[H:18])([H:11])[H:12])([H:8])([H:9])[H:10]>>[C:1]([C:2]([C@@:3]([C:4]([H:13])([H:14])[H:15])([C:6](=[C:5]([H:16])[H:17])[H:18])[O:7][H:19])([H:11])[H:12])([H:8])([H:9])[H:10]"
C        2.14771176       0.35040583      -0.34229179
C        1.02719760      -0.10034400       0.59010306
C       -0.33454639      -0.09716063      -0.05415133
C       -0.46706611      -0.96449296      -1.28040085
C       -1.54788578      -0.34949960       1.58602002
C       -1.56732003       0.48221344       0.47524598
O       -0.60935703       1.84972539      -0.04458268
H        1.94894151       1.34636002      -0.74034146
H        2.28041360      -0.32704020      -1.18795969
H        3.09661587       0.38690321       0.19511374
H        1.00667993       0.54509528       1.46851066
H        1.23669079      -1.11488174       0.94505680
H        0.06594673      -0.50727569      -2.11712638
H       -0.04347136      -1.95825037      -1.11955791
H       -1.50055075      -1.11191081      -1.59757524
H       -0.87704684      -0.18243135       2.41778951
H       -2.45841211      -0.87198030       1.85260799
H       -2.45727518       0.49383295      -0.14860874
H       -0.94726619       2.13073153      -0.89785170
19
Frame=12 idx=010195 GeodesicLength=0.8893477618546102 rxn_smarts="[C:1]([C:2]([C@@:3]1([C:4]([H:13])([H:14])[H:15])[C:5]([H:16])([H:17])[C@:6]1([O:7][H:19])[H:18])([H:11])[H:12])([H:8])([H:9])[H:10]>>[C:1]([C:2]([C@@:3]([C:4]([H:13])([H:14])[H:15])([C:6](=[C:5]([H:16])[H:17])[H:18])[O:7][H:19])([H:11])[H:12])([H:8])([H:9])[H:10]"
C        2.14924951       0.35010184      -0.34560156
C        1.02729475      -0.08391815       0.59202352
C       -0.33863774      -0.07841323      -0.04739356
C       -0.47647109      -0.95728518      -1.26725037
C       -1.53613549      -0.37068718       1.56707466
C       -1.57661616       0.49867733       0.48455518
O       -0.60203165       1.84782824      -0.04583042
H        1.95610406       1.34063605      -0.75994349
H        2.28055721      -0.33980494      -1.18138144
H        3.09855006       0.39194019       0.19085775
H        1.01183786       0.57007583       1.46459886
H        1.23112347      -1.09553575       0.95797615
H        0.08199543      -0.52877398      -2.10229926
H       -0.08620459      -1.96105522      -1.08486192
H       -1.50868537      -1.08088866      -1.59908288
H       -0.88332675      -0.19879018       2.41241068
H       -2.42945446      -0.93427719       1.80710622
H       -2.46843317       0.51298544      -0.13696520
H       -0.93071588       2.11718474      -0.90599294
19
Frame=13 idx=010195 GeodesicLength=0.9673372791335916 rxn_smarts="[C:1]([C:2]([C@@:3]1([C:4]([H:13])([H:14])[H:15])[C:5]([H:16])([H:17])[C@:6]1([O:7][H:19])[H:18])([H:11])[H:12])([H:8])([H:9])[H:10]>>[C:1]([C:2]([C@@:3]([C:4]([H:13])([H:14])[H:15])([C:6](=[C:5]([H:16])[H:17])[H:18])[O:7][H:19])([H:11])[H:12])([H:8])([H:9])[H:10]"
C        2.15068635       0.34975147      -0.34873215
C        1.02753003      -0.06788984       0.59395006
C       -0.34256003      -0.06032176      -0.04061406
C       -0.48557503      -0.95019258      -1.25434700
C       -1.52438264      -0.39063738       1.54796264
C       -1.58560726       0.51439707       0.49437890
O       -0.59542242       1.84551848      -0.04701189
H        1.96263767       1.33442870      -0.77939681
H        2.28083296      -0.35249586      -1.17438390
H        3.10039256       0.39737792       0.18667740
H        1.01700853       0.59457891       1.46060384
H        1.22593803      -1.07645618       0.97070815
H        0.09771728      -0.55095926      -2.08666231
H       -0.12928479      -1.96262672      -1.05076735
H       -1.51568906      -1.04985331      -1.60111182
H       -0.88935780      -0.21661866       2.40661795
H       -2.39967308      -0.99248747       1.76026067
H       -2.47937877       0.53132670      -0.12469170
H       -0.91581255       2.10315979      -0.91344061
19
Frame=14 idx=010195 GeodesicLength=1.0459059730429874 rxn_smarts="[C:1]([C:2]([C@@:3]1([C:4]([H:13])([H:14])[H:15])[C:5]([H:16])([H:17])[C@:6]1([O:7][H:19])[H:18])([H:11])[H:12])([H:8])([H:9])[H:10]>>[C:1]([C:2]([C@@:3]([C:4]([H:13])([H:14])[H:15])([C:6](=[C:5]([H:16])[H:17])[H:18])[O:7][H:19])([H:11])[H:12])([H:8])([H:9])[H:10]"
C        2.15202124       0.34927675      -0.35167792
C        1.02786694      -0.05227424       0.59588318
C       -0.34633254      -0.04290332      -0.03382197
C       -0.49433318      -0.94317735      -1.24176213
C       -1.51266427      -0.40938606       1.52873331
C       -1.59434172       0.52933842       0.50462987
O       -0.58952124       1.84278122      -0.04807674
H        1.96857302       1.32766280      -0.79868120
H        2.28124142      -0.36518653      -1.16695766
H        3.10212753       0.40308767       0.18257868
H        1.02216172       0.61862039       1.45649877
H        1.22105580      -1.05765394       0.98328850
H        0.11290312      -0.57348527      -2.07031385
H       -0.17226183      -1.96284267      -1.01760528
H       -1.52154400      -1.01911625      -1.60348309
H       -0.89512033      -0.23558692       2.40038329
H       -2.36923753      -1.04664515       1.71246473
H       -2.49013630       0.54880453      -0.11188784
H       -0.90245786       2.08868592      -0.92019265
19
Frame=15 idx=010195 GeodesicLength=1.125179249293389 rxn_smarts="[C:1]([C:2]([C@@:3]1([C:4]([H:13])([H:14])[H:15])[C:5]([H:16])([H:17])[C@:6]1([O:7][H:19])[H:18])([H:11])[H:12])([H:8])([H:9])[H:10]>>[C:1]([C:2]([C@@:3]([C:4]([H:13])([H:14])[H:15])([C:6](=[C:5]([H:16])[H:17])[H:18])[O:7][H:19])([H:11])[H:12])([H:8])([H:9])[H:10]"
C        2.15326110       0.34877520      -0.35448278
C        1.02833901      -0.03704919       0.59780289
C       -0.34993446      -0.02616217      -0.02701687
C       -0.50274456      -0.93632103      -1.22945979
C       -1.50097049      -0.42710256       1.50943221
C       -1.60278418       0.54349197       0.51532786
O       -0.58429298       1.83962038      -0.04900462
H        1.97387341       1.32043194      -0.81783638
H        2.28181405      -0.37776730      -1.15915331
H        3.10377345       0.40924597       0.17847839
H        1.02732667       0.64221489       1.45227328
H        1.21653927      -1.03911891       0.99567563
H        0.12792093      -0.59679832      -2.05312333
H       -0.21565869      -1.96193510      -0.98516854
H       -1.52615570      -0.98822163      -1.60651657
H       -0.90054531      -0.25570858       2.39371534
H       -2.33844714      -1.09681947       1.66383168
H       -2.50067681       0.56540882      -0.09853132
H       -0.89063758       2.07381510      -0.92624379
19
Frame=16 idx=010195 GeodesicLength=1.2050418669625356 rxn_smarts="[C:1]([C:2]([C@@:3]1([C:4]([H:13])([H:14])[H:15])[C:5]([H:16])([H:17])[C@:6]1([O:7][H:19])[H:18])([H:11])[H:12])([H:8])([H:9])[H:10]>>[C:1]([C:2]([C@@:3]([C:4]([H:13])([H:14])[H:15])([C:6](=[C:5]([H:16])[H:17])[H:18])[O:7][H:19])([H:11])[H:12])([H:8])([H:9])[H:10]"
C        2.15441689       0.34820198      -0.35713816
C        1.02892718      -0.02224897       0.59970745
C       -0.35338027      -0.01013721      -0.02021229
C       -0.51076161      -0.92960696      -1.21752490
C       -1.48931676      -0.44383887       1.49010607
C       -1.61097834       0.55680700       0.52637861
O       -0.57971714       1.83600883      -0.04977754
H        1.97859321       1.31273781      -0.83677086
H        2.28254377      -0.39022315      -1.15101709
H        3.10533909       0.41571245       0.17438435
H        1.03248808       0.66533733       1.44791944
H        1.21233990      -1.02089422       1.00788054
H        0.14257440      -0.62055773      -2.03520631
H       -0.25904277      -1.95983183      -0.95380531
H       -1.52950357      -0.95747258      -1.61007701
H       -0.90562169      -0.27669398       2.38660253
H       -2.30760338      -1.14292424       1.61490825
H       -2.51102160       0.58105085      -0.08474553
H       -0.88027541       2.05857350      -0.93161224
