16
Frame=0 idx=006817 GeodesicLength=0.0 rxn_smarts="[C:1]([C@@:2]1([H:11])[C:3]([H:12])([H:13])[C:4]([H:14])([H:15])/[C:5]1=[N:6]\[O:7][H:16])([H:8])([H:9])[H:10]>>[C:1]([C:2]([C:3]([C:4](=[C:5]=[N:6][O:7][H:16])[H:14])([H:12])[H:13])([H:11])[H:15])([H:8])([H:9])[H:10]"
C       -1.34707685      -1.11176031      -0.00497221
C       -0.60125724      -0.04609187      -0.77792780
C       -0.79646543       1.39203828      -0.25921605
C        0.55389620       1.27787571       0.39484063
C        0.91400331       0.07705164      -0.30313087
N        1.72967489      -0.96949634      -0.00407164
O        2.22526141      -0.71169004       1.26429421
H       -2.41446547      -1.07544539      -0.23435102
H       -1.21824212      -0.97075111       1.07081816
H       -0.97148798      -2.10326937      -0.25893910
H       -0.70623411      -0.19805708      -1.85216478
H       -0.92735627       2.18377192      -1.00171112
H       -1.62503577       1.45907767       0.45309597
H        0.93563396       1.70842132       1.30999008
H        1.40136017       0.51689364      -1.20899272
H        2.84779130      -1.42856862       1.41243829
16
Frame=1 idx=006817 GeodesicLength=0.15350737859310137 rxn_smarts="[C:1]([C@@:2]1([H:11])[C:3]([H:12])([H:13])[C:4]([H:14])([H:15])/[C:5]1=[N:6]\[O:7][H:16])([H:8])([H:9])[H:10]>>[C:1]([C:2]([C:3]([C:4](=[C:5]=[N:6][O:7][H:16])[H:14])([H:12])[H:13])([H:11])[H:15])([H:8])([H:9])[H:10]"
C       -1.35639693      -1.11583393      -0.01711787
C       -0.60236676      -0.04829132      -0.78068469
C       -0.79374427       1.38820855      -0.25704548
C        0.56794287       1.29026650       0.37873159
C        0.92271892       0.06378104      -0.26677600
N        1.74544641      -0.96893388       0.01960370
O        2.25278875      -0.71360541       1.28476302
H       -2.42450492      -1.06605898      -0.24069631
H       -1.22295076      -0.98847158       1.05977383
H       -0.99322820      -2.10882329      -0.28329799
H       -0.71574496      -0.19153976      -1.85539128
H       -0.93427943       2.17728587      -1.00047840
H       -1.61332415       1.45809455       0.46472959
H        0.94419469       1.73113082       1.29150514
H        1.35494234       0.52980352      -1.22682811
H        2.86850639      -1.43701270       1.42920927
16
Frame=2 idx=006817 GeodesicLength=0.30666998704507975 rxn_smarts="[C:1]([C@@:2]1([H:11])[C:3]([H:12])([H:13])[C:4]([H:14])([H:15])/[C:5]1=[N:6]\[O:7][H:16])([H:8])([H:9])[H:10]>>[C:1]([C:2]([C:3]([C:4](=[C:5]=[N:6][O:7][H:16])[H:14])([H:12])[H:13])([H:11])[H:15])([H:8])([H:9])[H:10]"
C       -1.36434546      -1.12030851      -0.02964967
C       -0.60330829      -0.05025753      -0.78393498
C       -0.79114153       1.38415944      -0.25407742
C        0.58272226       1.30250457       0.36054697
C        0.93203015       0.05221885      -0.23176030
N        1.76046562      -0.96749299       0.04394498
O        2.27674106      -0.71638571       1.30721341
H       -2.43334212      -1.05724582      -0.24563322
H       -1.22478633      -1.00777577       1.04807579
H       -1.01383843      -2.11412023      -0.30958537
H       -0.72700263      -0.18382766      -1.85890745
H       -0.94309968       2.17099592      -0.99751366
H       -1.60041465       1.45582129       0.47847460
H        0.95540009       1.75612904       1.26880720
H        1.30862142       0.54195952      -1.24440465
H        2.88529851      -1.44637443       1.44840375
16
Frame=3 idx=006817 GeodesicLength=0.45954427885883176 rxn_smarts="[C:1]([C@@:2]1([H:11])[C:3]([H:12])([H:13])[C:4]([H:14])([H:15])/[C:5]1=[N:6]\[O:7][H:16])([H:8])([H:9])[H:10]>>[C:1]([C:2]([C:3]([C:4](=[C:5]=[N:6][O:7][H:16])[H:14])([H:12])[H:13])([H:11])[H:15])([H:8])([H:9])[H:10]"
C       -1.37097146      -1.12516130      -0.04250391
C       -0.60418436      -0.05197846      -0.78771653
C       -0.78857843       1.37991810      -0.25035306
C        0.59815601       1.31450040       0.34027633
C        0.94189301       0.04229111      -0.19797257
N        1.77487816      -0.96514453       0.06887851
O        2.29694309      -0.72017451       1.33180134
H       -2.44100248      -1.04908712      -0.24909775
H       -1.22387993      -1.02853890       1.03571669
H       -1.03330856      -2.11909737      -0.33756411
H       -0.74010470      -0.17493103      -1.86266762
H       -0.95360411       2.16493303      -0.99280514
H       -1.58622141       1.45233686       0.49418903
H        0.96895439       1.78292408       1.24206941
H        1.26253122       0.55365328      -1.26211971
H        2.89849957      -1.45644363       1.46986907
16
Frame=4 idx=006817 GeodesicLength=0.6121827229565502 rxn_smarts="[C:1]([C@@:2]1([H:11])[C:3]([H:12])([H:13])[C:4]([H:14])([H:15])/[C:5]1=[N:6]\[O:7][H:16])([H:8])([H:9])[H:10]>>[C:1]([C:2]([C:3]([C:4](=[C:5]=[N:6][O:7][H:16])[H:14])([H:12])[H:13])([H:11])[H:15])([H:8])([H:9])[H:10]"
C       -1.37638036      -1.13035638      -0.05564696
C       -0.60507922      -0.05345597      -0.79205905
C       -0.78595619       1.37549928      -0.24592318
C        0.61415452       1.32611852       0.31796038
C        0.95224806       0.03388097      -0.16522593
N        1.78877614      -0.96191984       0.09442287
O        2.31334335      -0.72504979       1.35864394
H       -2.44755259      -1.04160916      -0.25109751
H       -1.22044441      -1.05062956       1.02266164
H       -1.05172412      -2.12369961      -0.36702186
H       -0.75510618      -0.16487488      -1.86660925
H       -0.96551102       2.15911731      -0.98635373
H       -1.57066311       1.44773023       0.51168205
H        0.98453602       1.81101214       1.21149625
H        1.21669661       0.56514039      -1.28028501
H        2.90866250      -1.46690366       1.49335535
16
Frame=5 idx=006817 GeodesicLength=0.7646336628900035 rxn_smarts="[C:1]([C@@:2]1([H:11])[C:3]([H:12])([H:13])[C:4]([H:14])([H:15])/[C:5]1=[N:6]\[O:7][H:16])([H:8])([H:9])[H:10]>>[C:1]([C:2]([C:3]([C:4](=[C:5]=[N:6][O:7][H:16])[H:14])([H:12])[H:13])([H:11])[H:15])([H:8])([H:9])[H:10]"
C       -1.38079898      -1.13582884      -0.06910063
C       -0.60607490      -0.05471305      -0.79698614
C       -0.78314917       1.37090344      -0.24085386
C        0.63061653       1.33712923       0.29372946
C        0.96298116       0.02677803      -0.13321033
N        1.80211429      -0.95799437       0.12076758
O        2.32592671      -0.73111148       1.38789607
H       -2.45315627      -1.03474089      -0.25177200
H       -1.21487305      -1.07389934       1.00883142
H       -1.06934474      -2.12786957      -0.39778828
H       -0.77200441      -0.15370012      -1.87066304
H       -0.97841756       2.15356405      -0.97818913
H       -1.55368198       1.44211954       0.53068768
H        1.00180554       1.83983877       1.17736134
H        1.17109369       0.57658035      -1.29907058
H        2.91696314      -1.47705575       1.51836043
16
Frame=6 idx=006817 GeodesicLength=0.9169370282007712 rxn_smarts="[C:1]([C@@:2]1([H:11])[C:3]([H:12])([H:13])[C:4]([H:14])([H:15])/[C:5]1=[N:6]\[O:7][H:16])([H:8])([H:9])[H:10]>>[C:1]([C:2]([C:3]([C:4](=[C:5]=[N:6][O:7][H:16])[H:14])([H:12])[H:13])([H:11])[H:15])([H:8])([H:9])[H:10]"
C       -1.38439470      -1.14153038      -0.08287756
C       -0.60722414      -0.05577323      -0.80251423
C       -0.78005128       1.36612171      -0.23520688
C        0.64744526       1.34732008       0.26770828
C        0.97399152       0.02082169      -0.10161970
N        1.81487593      -0.95348967       0.14805744
O        2.33497365      -0.73825773       1.41949172
H       -2.45791995      -1.02844278      -0.25123204
H       -1.20747534      -1.09822235       0.99415664
H       -1.08636566      -2.13156362      -0.42970797
H       -0.79079292      -0.14144905      -1.87474187
H       -0.99196907       2.14827960      -0.96833902
H       -1.53523902       1.43559134       0.55095447
H        1.02045125       1.86893112       1.13989721
H        1.12561335       0.58821452      -1.31866114
H        2.92408111      -1.48655124       1.54463465
16
Frame=7 idx=006817 GeodesicLength=1.0691247542310656 rxn_smarts="[C:1]([C@@:2]1([H:11])[C:3]([H:12])([H:13])[C:4]([H:14])([H:15])/[C:5]1=[N:6]\[O:7][H:16])([H:8])([H:9])[H:10]>>[C:1]([C:2]([C:3]([C:4](=[C:5]=[N:6][O:7][H:16])[H:14])([H:12])[H:13])([H:11])[H:15])([H:8])([H:9])[H:10]"
C       -1.38729742      -1.14742425      -0.09698977
C       -0.60855686      -0.05666066      -0.80865468
C       -0.77657301       1.36113724      -0.22903957
C        0.66454747       1.35648231       0.24002360
C        0.98518191       0.01588514      -0.07013259
N        1.82705129      -0.94849927       0.17641256
O        2.34099483      -0.74625295       1.45321296
H       -2.46191281      -1.02269650      -0.24958272
H       -1.19851186      -1.12349061       0.97857152
H       -1.10294154      -2.13474902      -0.46264181
H       -0.81145783      -0.12816429      -1.87874367
H       -1.00584347       2.14326492      -0.95683071
H       -1.51531830       1.42820945       0.57224014
H        1.04019540       1.89788802       1.09929430
H        1.08007945       0.60034191      -1.33923939
H        2.93036274      -1.49527142       1.57209983
16
Frame=8 idx=006817 GeodesicLength=1.2212223036544614 rxn_smarts="[C:1]([C@@:2]1([H:11])[C:3]([H:12])([H:13])[C:4]([H:14])([H:15])/[C:5]1=[N:6]\[O:7][H:16])([H:8])([H:9])[H:10]>>[C:1]([C:2]([C:3]([C:4](=[C:5]=[N:6][O:7][H:16])[H:14])([H:12])[H:13])([H:11])[H:15])([H:8])([H:9])[H:10]"
C       -1.38961098      -1.15348001      -0.11144992
C       -0.61008131      -0.05740048      -0.81541492
C       -0.77263978       1.35592857      -0.22241139
C        0.68183456       1.36440529       0.21080589
C        0.99645120       0.01186901      -0.03839109
N        1.83862628      -0.94310011       0.20594214
O        2.34465009      -0.75479624       1.48876467
H       -2.46517822      -1.01749606      -0.24693570
H       -1.18821735      -1.14960354       0.96201555
H       -1.11919635      -2.13740195      -0.49645970
H       -0.83397141      -0.11389373      -1.88255318
H       -1.01973883       2.13851648      -0.94370471
H       -1.49393424       1.42002830       0.59430060
H        1.06078319       1.92636835       1.05570919
H        1.03425835       0.61330946      -1.36097643
H        2.93596480      -1.50325334       1.60075899
16
Frame=9 idx=006817 GeodesicLength=1.3732387720754513 rxn_smarts="[C:1]([C@@:2]1([H:11])[C:3]([H:12])([H:13])[C:4]([H:14])([H:15])/[C:5]1=[N:6]\[O:7][H:16])([H:8])([H:9])[H:10]>>[C:1]([C:2]([C:3]([C:4](=[C:5]=[N:6][O:7][H:16])[H:14])([H:12])[H:13])([H:11])[H:15])([H:8])([H:9])[H:10]"
C       -1.39145780      -1.15965973      -0.12628758
C       -0.61179178      -0.05802263      -0.82280294
C       -0.76818291       1.35047053      -0.21539253
C        0.69922586       1.37084151       0.18020736
C        1.00766505       0.00866668      -0.00595844
N        1.84953121      -0.93740740       0.23680379
O        2.34659030      -0.76365300       1.52591031
H       -2.46777514      -1.01280971      -0.24344451
H       -1.17686698      -1.17645714       0.94442344
H       -1.13527970      -2.13949972      -0.53105193
H       -0.85827991      -0.09869312      -1.88605114
H       -1.03333128       2.13403064      -0.92903300
H       -1.47114041       1.41111476       0.61686932
H        1.08197784       1.95404957       1.00928141
H        0.98788399       0.62747616      -1.38400054
H        2.94123166      -1.51044740       1.63052700
16
Frame=10 idx=006817 GeodesicLength=1.5252001805002742 rxn_smarts="[C:1]([C@@:2]1([H:11])[C:3]([H:12])([H:13])[C:4]([H:14])([H:15])/[C:5]1=[N:6]\[O:7][H:16])([H:8])([H:9])[H:10]>>[C:1]([C:2]([C:3]([C:4](=[C:5]=[N:6][O:7][H:16])[H:14])([H:12])[H:13])([H:11])[H:15])([H:8])([H:9])[H:10]"
C       -1.39288564      -1.16594296      -0.14152330
C       -0.61365473      -0.05854886      -0.83082975
C       -0.76315398       1.34473618      -0.20804488
C        0.71666098       1.37556218       0.14832918
C        1.01869122       0.00624177       0.02763201
N        1.85973237      -0.93145545       0.26911954
O        2.34752447      -0.77255031       1.56440973
H       -2.46969772      -1.00865359      -0.23922838
H       -1.16463511      -1.20397051       0.92574023
H       -1.15124496      -2.14102870      -0.56632082
H       -0.88434332      -0.08261160      -1.88910230
H       -1.04636569       2.12980319      -0.91287643
H       -1.44700135       1.40151088       0.63971606
H        1.10360743       1.98069626       0.96002848
H        0.94060196       0.64329211      -1.40849075
H        2.94616409      -1.51708059       1.66144138
16
Frame=11 idx=006817 GeodesicLength=1.6771163776227265 rxn_smarts="[C:1]([C@@:2]1([H:11])[C:3]([H:12])([H:13])[C:4]([H:14])([H:15])/[C:5]1=[N:6]\[O:7][H:16])([H:8])([H:9])[H:10]>>[C:1]([C:2]([C:3]([C:4](=[C:5]=[N:6][O:7][H:16])[H:14])([H:12])[H:13])([H:11])[H:15])([H:8])([H:9])[H:10]"
C       -1.39397240      -1.17229783      -0.15720604
C       -0.61562247      -0.05900546      -0.83951532
C       -0.75750329       1.33869547      -0.20043865
C        0.73409972       1.37826746       0.11528267
C        1.02933994       0.00454792       0.06296545
N        1.86910797      -0.92532809       0.30310168
O        2.34806271      -0.78133832       1.60416721
H       -2.47096856      -1.00500962      -0.23447021
H       -1.15176006      -1.23205800       0.90589794
H       -1.16717882      -2.14197308      -0.60219618
H       -0.91209747      -0.06570260      -1.89157209
H       -1.05855128       2.12583636      -0.89532217
H       -1.42161975       1.39128060       0.66259157
H        1.12554104       2.00604903       0.90791384
H        0.89200713       0.66122769      -1.43457941
H        2.95111558      -1.52319154       1.69337970
16
Frame=12 idx=006817 GeodesicLength=1.8289954207958143 rxn_smarts="[C:1]([C@@:2]1([H:11])[C:3]([H:12])([H:13])[C:4]([H:14])([H:15])/[C:5]1=[N:6]\[O:7][H:16])([H:8])([H:9])[H:10]>>[C:1]([C:2]([C:3]([C:4](=[C:5]=[N:6][O:7][H:16])[H:14])([H:12])[H:13])([H:11])[H:15])([H:8])([H:9])[H:10]"
C       -1.39477799      -1.17869209      -0.17340226
C       -0.61762365      -0.05941663      -0.84889326
C       -0.75118605       1.33231509      -0.19264177
C        0.75152995       1.37859262       0.08115109
C        1.03937572       0.00357411       0.10073452
N        1.87747049      -0.91911125       0.33902460
O        2.34877425      -0.78993158       1.64517911
H       -2.47159906      -1.00185831      -0.22938364
H       -1.13847471      -1.26064046       0.88482398
H       -1.18313553      -2.14231788      -0.63863328
H       -0.94147114      -0.04801514      -1.89332279
H       -1.06960069       2.12214148      -0.87646055
H       -1.39512730       1.38049334       0.68525677
H        1.14771164       2.02983452       0.85278319
H        0.84160322       0.68182817      -1.46238782
H        2.95653085      -1.52879598       1.72617211
16
Frame=13 idx=006817 GeodesicLength=1.9808440827504554 rxn_smarts="[C:1]([C@@:2]1([H:11])[C:3]([H:12])([H:13])[C:4]([H:14])([H:15])/[C:5]1=[N:6]\[O:7][H:16])([H:8])([H:9])[H:10]>>[C:1]([C:2]([C:3]([C:4](=[C:5]=[N:6][O:7][H:16])[H:14])([H:12])[H:13])([H:11])[H:15])([H:8])([H:9])[H:10]"
C       -1.39528296      -1.18510754      -0.19019018
C       -0.61955723      -0.05979353      -0.85902246
C       -0.74415962       1.32555350      -0.18470054
C        0.76897557       1.37610690       0.04593384
C        1.04854187       0.00340396       0.14169936
N        1.88457924      -0.91283917       0.37720904
O        2.35018700      -0.79825007       1.68751736
H       -2.47153385      -0.99921644      -0.22414743
H       -1.12488506      -1.28967551       0.86242965
H       -1.19907901      -2.14204684      -0.67563761
H       -0.97243161      -0.02957703      -1.89420272
H       -1.07926969       2.11873747      -0.85633663
H       -1.36764637       1.36919665       0.70752608
H        1.17015656       2.05177303       0.79425519
H        0.78874771       0.70577700      -1.49205751
H        2.96265747      -1.53404238       1.75972457
16
Frame=14 idx=006817 GeodesicLength=2.132667780367483 rxn_smarts="[C:1]([C@@:2]1([H:11])[C:3]([H:12])([H:13])[C:4]([H:14])([H:15])/[C:5]1=[N:6]\[O:7][H:16])([H:8])([H:9])[H:10]>>[C:1]([C:2]([C:3]([C:4](=[C:5]=[N:6][O:7][H:16])[H:14])([H:12])[H:13])([H:11])[H:15])([H:8])([H:9])[H:10]"
C       -1.39542361      -1.19153725      -0.20768809
C       -0.62130434      -0.06012922      -0.87001163
C       -0.73635394       1.31836389      -0.17662799
C        0.78652042       1.37023008       0.00953984
C        1.05655520       0.00418379       0.18667531
N        1.89003665      -0.90658745       0.41810475
O        2.35257910      -0.80632374       1.73143308
H       -2.47068323      -0.99711661      -0.21893346
H       -1.11100725      -1.31916885       0.83857808
H       -1.21493061      -2.14114610      -0.71329400
H       -1.00499193      -0.01037148      -1.89405804
H       -1.08729521       2.11568641      -0.83491335
H       -1.33927554       1.35742867       0.72927701
H        1.19306009       2.07146038       0.73169691
H        0.73261777       0.73389114      -1.52370029
H        2.96989642      -1.53886364       1.79392187
16
Frame=15 idx=006817 GeodesicLength=2.284465910889728 rxn_smarts="[C:1]([C@@:2]1([H:11])[C:3]([H:12])([H:13])[C:4]([H:14])([H:15])/[C:5]1=[N:6]\[O:7][H:16])([H:8])([H:9])[H:10]>>[C:1]([C:2]([C:3]([C:4](=[C:5]=[N:6][O:7][H:16])[H:14])([H:12])[H:13])([H:11])[H:15])([H:8])([H:9])[H:10]"
C       -1.39486193      -1.19803163      -0.22601612
C       -0.62273762      -0.06034431      -0.88205957
C       -0.72765210       1.31068083      -0.16834369
C        0.80432463       1.36028907      -0.02842768
C        1.06329589       0.00630424       0.23621286
N        1.89341752      -0.90029329       0.46216544
O        2.35581816      -0.81412495       1.77731008
H       -2.46869972      -0.99575141      -0.21361425
H       -1.09628029      -1.34926862       0.81303080
H       -1.23037587      -2.13958552      -0.75183067
H       -1.03941002       0.00973588      -1.89266958
H       -1.09353756       2.11308873      -0.81188868
H       -1.30991397       1.34510745       0.75059675
H        1.21684186       2.08840168       0.66392864
H        0.67202419       0.76729173      -1.55750072
H        2.97774683      -1.54349989       1.82910640
16
Frame=16 idx=006817 GeodesicLength=2.4362265273271584 rxn_smarts="[C:1]([C@@:2]1([H:11])[C:3]([H:12])([H:13])[C:4]([H:14])([H:15])/[C:5]1=[N:6]\[O:7][H:16])([H:8])([H:9])[H:10]>>[C:1]([C:2]([C:3]([C:4](=[C:5]=[N:6][O:7][H:16])[H:14])([H:12])[H:13])([H:11])[H:15])([H:8])([H:9])[H:10]"
C       -1.39299015      -1.20469079      -0.24535315
C       -0.62381531      -0.06023297      -0.89552687
C       -0.71780801       1.30240862      -0.15963224
C        0.82265227       1.34539772      -0.06878602
C        1.06895458       0.01033953       0.29026707
N        1.89419357      -0.89390992       0.50991395
O        2.35873879      -0.82173309       1.82590918
H       -2.46494890      -0.99547357      -0.20765402
H       -1.07940869      -1.38032493       0.78529509
H       -1.24496743      -2.13726953      -0.79173739
H       -1.07635118       0.03111000      -1.88971392
H       -1.09788928       2.11113957      -0.78652462
H       -1.27910278       1.33197652       0.77184675
H        1.24223087       2.10175664       0.58913209
H        0.60530903       0.80736199      -1.59357731
H        2.98520263      -1.54785578       1.86614139
