11
Frame=0 idx=010840 GeodesicLength=0.0 rxn_smarts="[C:1](#[C:2][C@@:3]1([H:9])[N:4]([H:10])[C@:5]1([C:6]#[N:7])[H:11])[H:8]>>[C:1](#[C:2][C@@:3]1([H:9])[N:4]([H:10])[C:5]1=[C:6]=[N:7][H:11])[H:8]"
C        2.45226233       0.45833220       0.76935803
C        1.47797298       0.01192638       0.23768602
C        0.30785672      -0.53524431      -0.39886655
N       -0.81147627      -1.09425346       0.43744592
C       -0.98004684       0.12945437      -0.21942758
C       -1.61130284       1.40967495       0.07082817
N       -2.23628704       0.92411922      -0.94911683
H        3.31695028       0.86331562       1.24077229
H        0.49506833      -1.12777159      -1.28701518
H       -0.65573355      -0.95723649       1.43312900
H       -1.75526414      -0.08231685      -1.33479326
11
Frame=1 idx=010840 GeodesicLength=0.10738677929558753 rxn_smarts="[C:1](#[C:2][C@@:3]1([H:9])[N:4]([H:10])[C@:5]1([C:6]#[N:7])[H:11])[H:8]>>[C:1](#[C:2][C@@:3]1([H:9])[N:4]([H:10])[C:5]1=[C:6]=[N:7][H:11])[H:8]"
C        2.45000601       0.46070065       0.77144650
C        1.48026012       0.00260774       0.24134231
C        0.31175741      -0.54829142      -0.39522162
N       -0.80758159      -1.10413663       0.43967540
C       -0.97732661       0.11748104      -0.22469081
C       -1.59175520       1.39866854       0.06749213
N       -2.25095841       0.95731544      -0.94261551
H        3.30788749       0.88523691       1.23806781
H        0.50139881      -1.14279713      -1.28151631
H       -0.65158810      -0.96149771       1.43448146
H       -1.77209993      -0.06528742      -1.34846134
11
Frame=2 idx=010840 GeodesicLength=0.2147813049232971 rxn_smarts="[C:1](#[C:2][C@@:3]1([H:9])[N:4]([H:10])[C@:5]1([C:6]#[N:7])[H:11])[H:8]>>[C:1](#[C:2][C@@:3]1([H:9])[N:4]([H:10])[C:5]1=[C:6]=[N:7][H:11])[H:8]"
C        2.44746366       0.46371781       0.77314589
C        1.48257578      -0.00679672       0.24498271
C        0.31582909      -0.56179810      -0.39150589
N       -0.80347143      -1.11439998       0.44206986
C       -0.97463109       0.10475511      -0.23038921
C       -1.57247893       1.38676657       0.06360918
N       -2.26490629       0.99208145      -0.93527663
H        3.29808823       0.90731240       1.23527916
H        0.50808859      -1.15856824      -1.27570058
H       -0.64737938      -0.96573492       1.43592735
H       -1.78917823      -0.04733538      -1.36214183
11
Frame=3 idx=010840 GeodesicLength=0.32217882762851147 rxn_smarts="[C:1](#[C:2][C@@:3]1([H:9])[N:4]([H:10])[C@:5]1([C:6]#[N:7])[H:11])[H:8]>>[C:1](#[C:2][C@@:3]1([H:9])[N:4]([H:10])[C:5]1=[C:6]=[N:7][H:11])[H:8]"
C        2.44449922       0.46721728       0.77498137
C        1.48479326      -0.01606284       0.24882241
C        0.32007366      -0.57565381      -0.38763137
N       -0.79917128      -1.12508155       0.44458190
C       -0.97204746       0.09122826      -0.23655759
C       -1.55378816       1.37382464       0.05917392
N       -2.27800196       1.02845935      -0.92718573
H        3.28804704       0.92948051       1.23174652
H        0.51529769      -1.17493174      -1.26946904
H       -0.64324720      -0.97000254       1.43743228
H       -1.80645481      -0.02847754      -1.37589467
11
Frame=4 idx=010840 GeodesicLength=0.4295574120589931 rxn_smarts="[C:1](#[C:2][C@@:3]1([H:9])[N:4]([H:10])[C@:5]1([C:6]#[N:7])[H:11])[H:8]>>[C:1](#[C:2][C@@:3]1([H:9])[N:4]([H:10])[C:5]1=[C:6]=[N:7][H:11])[H:8]"
C        2.44135685       0.47154948       0.77585872
C        1.48708850      -0.02509314       0.25216853
C        0.32449783      -0.58989544      -0.38385134
N       -0.79445168      -1.13601170       0.44739283
C       -0.96953164       0.07687871      -0.24328416
C       -1.53547410       1.35996872       0.05388965
N       -2.29038773       1.06630348      -0.91800988
H        3.27701117       0.95120804       1.22918490
H        0.52281120      -1.19213918      -1.26297012
H       -0.63871285      -0.97387846       1.43908939
H       -1.82420754      -0.00889052      -1.38946851
11
Frame=5 idx=010840 GeodesicLength=0.5369499484570688 rxn_smarts="[C:1](#[C:2][C@@:3]1([H:9])[N:4]([H:10])[C@:5]1([C:6]#[N:7])[H:11])[H:8]>>[C:1](#[C:2][C@@:3]1([H:9])[N:4]([H:10])[C:5]1=[C:6]=[N:7][H:11])[H:8]"
C        2.43766686       0.47669142       0.77671952
C        1.48920754      -0.03371812       0.25562819
C        0.32908761      -0.60440583      -0.37992786
N       -0.78946911      -1.14736128       0.45035729
C       -0.96722072       0.06161197      -0.25055042
C       -1.51807698       1.34489507       0.04797166
N       -2.30158823       1.10588457      -0.90807016
H        3.26596024       0.97255913       1.22607413
H        0.53091868      -1.20991762      -1.25599490
H       -0.63419635      -0.97769721       1.44080746
H       -1.84228954       0.01145790      -1.40301492
11
Frame=6 idx=010840 GeodesicLength=0.6443003085616387 rxn_smarts="[C:1](#[C:2][C@@:3]1([H:9])[N:4]([H:10])[C@:5]1([C:6]#[N:7])[H:11])[H:8]>>[C:1](#[C:2][C@@:3]1([H:9])[N:4]([H:10])[C:5]1=[C:6]=[N:7][H:11])[H:8]"
C        2.43376452       0.48268199       0.77647671
C        1.49138148      -0.04199539       0.25844656
C        0.33385346      -0.61929132      -0.37615154
N       -0.78401790      -1.15893551       0.45364536
C       -0.96501809       0.04542347      -0.25846453
C       -1.50117955       1.32884081       0.04102293
N       -2.31178420       1.14702543      -0.89686612
H        3.25385662       0.99341129       1.22421058
H        0.53935366      -1.22860432      -1.24872596
H       -0.62922198      -0.98100624       1.44265733
H       -1.86098802       0.03244978      -1.41625133
11
Frame=7 idx=010840 GeodesicLength=0.7516557965926193 rxn_smarts="[C:1](#[C:2][C@@:3]1([H:9])[N:4]([H:10])[C@:5]1([C:6]#[N:7])[H:11])[H:8]>>[C:1](#[C:2][C@@:3]1([H:9])[N:4]([H:10])[C:5]1=[C:6]=[N:7][H:11])[H:8]"
C        2.42911160       0.48945391       0.77649175
C        1.49328114      -0.04987364       0.26154278
C        0.33878146      -0.63445232      -0.37219280
N       -0.77836430      -1.17101477       0.45699715
C       -0.96305936       0.02819800      -0.26699107
C       -1.48534545       1.31146266       0.03335346
N       -2.32033555       1.19007921      -0.88471127
H        3.24191742       1.01413483       1.22135036
H        0.54850836      -1.24783291      -1.24091064
H       -0.62444814      -0.98437836       1.44447534
H       -1.88004718       0.05422337      -1.42940503
11
Frame=8 idx=010840 GeodesicLength=0.8589675848506477 rxn_smarts="[C:1](#[C:2][C@@:3]1([H:9])[N:4]([H:10])[C@:5]1([C:6]#[N:7])[H:11])[H:8]>>[C:1](#[C:2][C@@:3]1([H:9])[N:4]([H:10])[C:5]1=[C:6]=[N:7][H:11])[H:8]"
C        2.42396828       0.49693629       0.77598862
C        1.49506571      -0.05744084       0.26439226
C        0.34387404      -0.64998710      -0.36825504
N       -0.77238606      -1.18346565       0.46052052
C       -0.96126360       0.00992266      -0.27620986
C       -1.47029585       1.29291220       0.02467947
N       -2.32716090       1.23499248      -0.87122496
H        3.22926385       1.03482241       1.21870788
H        0.55818903      -1.26786870      -1.23266464
H       -0.61956882      -0.98750959       1.44629400
H       -1.89968567       0.07668584      -1.44222825
11
Frame=9 idx=010840 GeodesicLength=0.9662470952951914 rxn_smarts="[C:1](#[C:2][C@@:3]1([H:9])[N:4]([H:10])[C@:5]1([C:6]#[N:7])[H:11])[H:8]>>[C:1](#[C:2][C@@:3]1([H:9])[N:4]([H:10])[C:5]1=[C:6]=[N:7][H:11])[H:8]"
C        2.41805593       0.50517799       0.77554616
C        1.49655726      -0.06455549       0.26734737
C        0.34912175      -0.66579587      -0.36421840
N       -0.76616925      -1.19639758       0.46409740
C       -0.95970970      -0.00947304      -0.28612346
C       -1.45643983       1.27299450       0.01507620
N       -2.33174367       1.28191481      -0.85651463
H        3.21649957       1.05547375       1.21538771
H        0.56859008      -1.28849405      -1.22388258
H       -0.61484824      -0.99061819       1.44802640
H       -1.91991389       0.09977316      -1.45474218
11
Frame=10 idx=010840 GeodesicLength=1.0733862615254424 rxn_smarts="[C:1](#[C:2][C@@:3]1([H:9])[N:4]([H:10])[C@:5]1([C:6]#[N:7])[H:11])[H:8]>>[C:1](#[C:2][C@@:3]1([H:9])[N:4]([H:10])[C:5]1=[C:6]=[N:7][H:11])[H:8]"
C        2.41195725       0.51452669       0.77325997
C        1.49807070      -0.07092497       0.26909977
C        0.35453198      -0.68186096      -0.36052886
N       -0.75931540      -1.20934841       0.46809226
C       -0.95832351      -0.02993930      -0.29686375
C       -1.44348300       1.25201435       0.00386777
N       -2.33437487       1.33040203      -0.84012174
H        3.20241801       1.07503413       1.21460095
H        0.57930638      -1.31011419      -1.21478588
H       -0.60942746      -0.99274567       1.44984082
H       -1.94136007       0.12295629      -1.46646131
11
Frame=11 idx=010840 GeodesicLength=1.1804991622340302 rxn_smarts="[C:1](#[C:2][C@@:3]1([H:9])[N:4]([H:10])[C@:5]1([C:6]#[N:7])[H:11])[H:8]>>[C:1](#[C:2][C@@:3]1([H:9])[N:4]([H:10])[C:5]1=[C:6]=[N:7][H:11])[H:8]"
C        2.40461098       0.52517185       0.77135073
C        1.49896395      -0.07649757       0.27134926
C        0.36004691      -0.69800367      -0.35660672
N       -0.75229076      -1.22298554       0.47198889
C       -0.95735779      -0.05171030      -0.30824360
C       -1.43260170       1.22922569      -0.00800717
N       -2.33325766       1.38135351      -0.82294814
H        3.18910080       1.09423202       1.21234806
H        0.59100002      -1.33193425      -1.20502826
H       -0.60446376      -0.99522701       1.45144233
H       -1.96375098       0.14637527      -1.47764538
11
Frame=12 idx=010840 GeodesicLength=1.2875487622093158 rxn_smarts="[C:1](#[C:2][C@@:3]1([H:9])[N:4]([H:10])[C@:5]1([C:6]#[N:7])[H:11])[H:8]>>[C:1](#[C:2][C@@:3]1([H:9])[N:4]([H:10])[C:5]1=[C:6]=[N:7][H:11])[H:8]"
C        2.39574991       0.53645726       0.77100330
C        1.49913596      -0.08170182       0.27476178
C        0.36569373      -0.71433607      -0.35231337
N       -0.74539948      -1.23750228       0.47546142
C       -0.95669158      -0.07478227      -0.32037437
C       -1.42357304       1.20473074      -0.02066571
N       -2.32793398       1.43472704      -0.80443118
H        3.17660058       1.11440723       1.20689426
H        0.60389505      -1.35386016      -1.19454586
H       -0.60056949      -0.99851424       1.45260632
H       -1.98690767       0.17037456      -1.48839659
11
Frame=13 idx=010840 GeodesicLength=1.3943363627246559 rxn_smarts="[C:1](#[C:2][C@@:3]1([H:9])[N:4]([H:10])[C@:5]1([C:6]#[N:7])[H:11])[H:8]>>[C:1](#[C:2][C@@:3]1([H:9])[N:4]([H:10])[C:5]1=[C:6]=[N:7][H:11])[H:8]"
C        2.38792694       0.54926324       0.76505141
C        1.50008377      -0.08574066       0.27421734
C        0.37158192      -0.73092055      -0.34929743
N       -0.73717722      -1.25069659       0.48006781
C       -0.95585615      -0.09867320      -0.33381550
C       -1.41430239       1.18025503      -0.03724586
N       -2.32161620       1.48794328      -0.78223428
H        3.16012805       1.13134799       1.21072037
H        0.61631410      -1.37781711      -1.18403381
H       -0.59441845      -0.99829064       1.45405837
H       -2.01266437       0.19332921      -1.49748842
11
Frame=14 idx=010840 GeodesicLength=1.5013171529205431 rxn_smarts="[C:1](#[C:2][C@@:3]1([H:9])[N:4]([H:10])[C@:5]1([C:6]#[N:7])[H:11])[H:8]>>[C:1](#[C:2][C@@:3]1([H:9])[N:4]([H:10])[C:5]1=[C:6]=[N:7][H:11])[H:8]"
C        2.37566982       0.56115520       0.76825432
C        1.49862167      -0.09095815       0.28038637
C        0.37741173      -0.74792857      -0.34430156
N       -0.73081738      -1.26753178       0.48220026
C       -0.95565422      -0.12457447      -0.34740425
C       -1.40926791       1.15195817      -0.05092468
N       -2.30352920       1.54729986      -0.76095996
H        3.14723455       1.15632349       1.19742025
H        0.63163708      -1.39987189      -1.17229101
H       -0.59311768      -1.00426182       1.45394882
H       -2.03818845       0.21838997      -1.50632858
11
Frame=15 idx=010840 GeodesicLength=1.608013149076244 rxn_smarts="[C:1](#[C:2][C@@:3]1([H:9])[N:4]([H:10])[C@:5]1([C:6]#[N:7])[H:11])[H:8]>>[C:1](#[C:2][C@@:3]1([H:9])[N:4]([H:10])[C:5]1=[C:6]=[N:7][H:11])[H:8]"
C        2.36420473       0.57659297       0.76466790
C        1.49778374      -0.09316290       0.28164679
C        0.38356266      -0.76426765      -0.34079785
N       -0.72273274      -1.28182934       0.48581950
C       -0.95535185      -0.15097299      -0.36280918
C       -1.40449118       1.12429339      -0.07067120
N       -2.28637756       1.60375148      -0.73478240
H        3.13324290       1.17286986       1.19667334
H        0.64671105      -1.42357415      -1.16017151
H       -0.58918320      -1.00464346       1.45417186
H       -2.06736855       0.24094279      -1.51374725
11
Frame=16 idx=010840 GeodesicLength=1.7147816671182878 rxn_smarts="[C:1](#[C:2][C@@:3]1([H:9])[N:4]([H:10])[C@:5]1([C:6]#[N:7])[H:11])[H:8]>>[C:1](#[C:2][C@@:3]1([H:9])[N:4]([H:10])[C:5]1=[C:6]=[N:7][H:11])[H:8]"
C        2.35041515       0.59169908       0.76492109
C        1.49574616      -0.09554402       0.28544158
C        0.38981137      -0.78078518      -0.33670822
N       -0.71542846      -1.29747962       0.48812950
C       -0.95512681      -0.17867296      -0.37918405
C       -1.40203635       1.09478359      -0.09129020
N       -2.26058369       1.66251304      -0.70633392
H        3.11963297       1.19327668       1.18916074
H        0.66347630      -1.44674466      -1.14726524
H       -0.58766161      -1.00703796       1.45327601
H       -2.09824506       0.26399201      -1.52014728
