18
Frame=0 idx=008098 GeodesicLength=0.0 rxn_smarts="[C:1]([C:2]([N:3]([C:4]([H:13])([H:14])[H:15])[C:5](=[O:6])[C:7]([H:16])([H:17])[H:18])([H:11])[H:12])([H:8])([H:9])[H:10]>>[C:1]([C:2]([N:3]1[C:5]([C:4]([H:13])([H:14])[H:15])([C:7]([H:16])([H:17])[H:18])[O:6]1)([H:11])[H:12])([H:8])([H:9])[H:10]"
C       -2.18616609       0.29763695      -0.47195266
C       -1.43287069      -0.98288047      -0.17335715
N       -0.06462875      -1.01666568       0.15206183
C        0.77793357       1.08564585       1.03300480
C        0.79738472       0.07166884      -0.15143934
O        0.44848736       0.53906770      -1.32843177
C        2.22969884      -0.55055850      -0.21783248
H       -3.22647115       0.04848495      -0.68810690
H       -1.74213208       0.81133189      -1.32455239
H       -2.17590620       0.98055502       0.37709092
H       -1.54494803      -1.69317468      -1.01132370
H       -1.89064310      -1.55698052       0.64986795
H        1.11035826       0.64539349       1.97253559
H        1.46215200       1.88246640       0.73728311
H       -0.21643997       1.50884066       1.15364036
H        2.27246115      -1.25375209      -1.04660443
H        2.43411710      -1.06773369       0.72002128
H        2.94761304       0.25065385      -0.38190499
18
Frame=1 idx=008098 GeodesicLength=0.11348658731869425 rxn_smarts="[C:1]([C:2]([N:3]([C:4]([H:13])([H:14])[H:15])[C:5](=[O:6])[C:7]([H:16])([H:17])[H:18])([H:11])[H:12])([H:8])([H:9])[H:10]>>[C:1]([C:2]([N:3]1[C:5]([C:4]([H:13])([H:14])[H:15])([C:7]([H:16])([H:17])[H:18])[O:6]1)([H:11])[H:12])([H:8])([H:9])[H:10]"
C       -2.20089192       0.29827495      -0.49781499
C       -1.43557879      -0.96256691      -0.15199436
N       -0.05823253      -0.98909213       0.13430005
C        0.76789837       1.05267103       1.05763664
C        0.82005874       0.07543201      -0.17525545
O        0.44591745       0.52670468      -1.34751700
C        2.25022002      -0.53947763      -0.23562523
H       -3.24287411       0.03597577      -0.68965167
H       -1.77343683       0.77542273      -1.37955400
H       -2.18645161       1.01836383       0.31993255
H       -1.56342034      -1.71107403      -0.95299179
H       -1.87497116      -1.48607738       0.71316805
H        1.08031561       0.59379085       1.99543284
H        1.46941720       1.84760050       0.79925578
H       -0.21902005       1.49509744       1.16937388
H        2.30210573      -1.22923117      -1.07500796
H        2.45455317      -1.07139715       0.69399286
H        2.96439104       0.26958263      -0.37768020
18
Frame=2 idx=008098 GeodesicLength=0.22674628146300446 rxn_smarts="[C:1]([C:2]([N:3]([C:4]([H:13])([H:14])[H:15])[C:5](=[O:6])[C:7]([H:16])([H:17])[H:18])([H:11])[H:12])([H:8])([H:9])[H:10]>>[C:1]([C:2]([N:3]1[C:5]([C:4]([H:13])([H:14])[H:15])([C:7]([H:16])([H:17])[H:18])[O:6]1)([H:11])[H:12])([H:8])([H:9])[H:10]"
C       -2.21588739       0.29780411      -0.52318551
C       -1.43787532      -0.94120545      -0.13132222
N       -0.05257720      -0.96080866       0.11639866
C        0.75799618       1.01927342       1.08145836
C        0.84183809       0.08017633      -0.19841046
O        0.44347298       0.51386117      -1.36647778
C        2.26983136      -0.52793358      -0.25272227
H       -3.25964388       0.02374950      -0.68788048
H       -1.80620919       0.73555689      -1.43339650
H       -2.19520822       1.05480235       0.26059925
H       -1.57970667      -1.72623118      -0.89354245
H       -1.85814178      -1.41243841       0.77188235
H        1.05026866       0.54177111       2.01678552
H        1.47684068       1.81016442       0.86052266
H       -0.22048897       1.48172886       1.18592965
H        2.33123658      -1.20377522      -1.10262133
H        2.47384026      -1.07471207       0.66834271
H        2.98041383       0.28821642      -0.37236015
18
Frame=3 idx=008098 GeodesicLength=0.33983967789107455 rxn_smarts="[C:1]([C:2]([N:3]([C:4]([H:13])([H:14])[H:15])[C:5](=[O:6])[C:7]([H:16])([H:17])[H:18])([H:11])[H:12])([H:8])([H:9])[H:10]>>[C:1]([C:2]([N:3]1[C:5]([C:4]([H:13])([H:14])[H:15])([C:7]([H:16])([H:17])[H:18])[O:6]1)([H:11])[H:12])([H:8])([H:9])[H:10]"
C       -2.23114945       0.29625472      -0.54784850
C       -1.43977439      -0.91887617      -0.11146325
N       -0.04769139      -0.93171411       0.09872237
C        0.74836968       0.98574063       1.10438967
C        0.86272927       0.08583360      -0.22090185
O        0.44123116       0.50048448      -1.38528938
C        2.28851523      -0.51604867      -0.26906300
H       -3.27654544       0.01206624      -0.68315878
H       -1.84037423       0.69216137      -1.48518867
H       -2.20276116       1.08929131       0.19948265
H       -1.59344953      -1.73840332      -0.83351524
H       -1.84066943      -1.33685738       0.82554532
H        1.02034113       0.48976286       2.03657828
H        1.48453655       1.77035143       0.92060346
H       -0.22073177       1.46888087       1.20323747
H        2.35973839      -1.17763763      -1.12926032
H        2.49198896      -1.07766544       0.64318696
H        2.99569641       0.30637521      -0.36605719
18
Frame=4 idx=008098 GeodesicLength=0.4528267933395891 rxn_smarts="[C:1]([C:2]([N:3]([C:4]([H:13])([H:14])[H:15])[C:5](=[O:6])[C:7]([H:16])([H:17])[H:18])([H:11])[H:12])([H:8])([H:9])[H:10]>>[C:1]([C:2]([N:3]1[C:5]([C:4]([H:13])([H:14])[H:15])([C:7]([H:16])([H:17])[H:18])[O:6]1)([H:11])[H:12])([H:8])([H:9])[H:10]"
C       -2.24667038       0.29366575      -0.57162850
C       -1.44130138      -0.89564929      -0.09250713
N       -0.04355907      -0.90172583       0.08155557
C        0.73914755       0.95232794       1.12638409
C        0.88277256       0.09230855      -0.24274455
O        0.43928115       0.48652347      -1.40394217
C        2.30630090      -0.50394819      -0.28460927
H       -3.29333606       0.00108096      -0.67597926
H       -1.87583977       0.64576927      -1.53411164
H       -2.20980570       1.12127308       0.13702943
H       -1.60441844      -1.74737947      -0.77338788
H       -1.82307633      -1.26001920       0.87386743
H        0.99061022       0.43813018       2.05482896
H        1.49262163       1.72835867       0.97908671
H       -0.21963728       1.45670538       1.22121317
H        2.38756555      -1.15107125      -1.15478040
H        2.50905191      -1.08025900       0.61862026
H        3.01029294       0.32390897      -0.35889479
18
Frame=5 idx=008098 GeodesicLength=0.5657583556192483 rxn_smarts="[C:1]([C:2]([N:3]([C:4]([H:13])([H:14])[H:15])[C:5](=[O:6])[C:7]([H:16])([H:17])[H:18])([H:11])[H:12])([H:8])([H:9])[H:10]>>[C:1]([C:2]([N:3]1[C:5]([C:4]([H:13])([H:14])[H:15])([C:7]([H:16])([H:17])[H:18])[O:6]1)([H:11])[H:12])([H:8])([H:9])[H:10]"
C       -2.26250498       0.29006499      -0.59453953
C       -1.44246252      -0.87157320      -0.07449649
N       -0.04006817      -0.87070594       0.06511456
C        0.73043748       0.91916828       1.14756936
C        0.90204857       0.09964272      -0.26387780
O        0.43771090       0.47206636      -1.42236238
C        2.32322480      -0.49161490      -0.29937066
H       -3.31031280      -0.00907500      -0.66627427
H       -1.91248493       0.59611510      -1.58051754
H       -2.21614100       1.15091648       0.07343247
H       -1.61292233      -1.75324959      -0.71362842
H       -1.80574044      -1.18246036       0.91680097
H        0.96122872       0.38702144       2.07165415
H        1.50106794       1.68429671       1.03594981
H       -0.21707734       1.44513878       1.24001952
H        2.41467931      -1.12406321      -1.17918445
H        2.52509320      -1.08250749       0.59464180
H        3.02422359       0.34081882      -0.35093110
18
Frame=6 idx=008098 GeodesicLength=0.6786734096836246 rxn_smarts="[C:1]([C:2]([N:3]([C:4]([H:13])([H:14])[H:15])[C:5](=[O:6])[C:7]([H:16])([H:17])[H:18])([H:11])[H:12])([H:8])([H:9])[H:10]>>[C:1]([C:2]([N:3]1[C:5]([C:4]([H:13])([H:14])[H:15])([C:7]([H:16])([H:17])[H:18])[O:6]1)([H:11])[H:12])([H:8])([H:9])[H:10]"
C       -2.27860644       0.28554180      -0.61645862
C       -1.44331476      -0.84664964      -0.05744491
N       -0.03719814      -0.83862458       0.04947597
C        0.72230673       0.88641879       1.16788748
C        0.92062314       0.10766512      -0.28442831
O        0.43660993       0.45700747      -1.44060204
C        2.33936922      -0.47920464      -0.31335237
H       -3.32694620      -0.01841469      -0.65499996
H       -1.95017142       0.54423782      -1.62328251
H       -2.22299165       1.17755450       0.00910939
H       -1.61871074      -1.75589975      -0.65444443
H       -1.78903908      -1.10459502       0.95453682
H        0.93211952       0.33665400       2.08706131
H        1.51002313       1.63834633       1.09083366
H       -0.21300629       1.43432394       1.25949186
H        2.44115188      -1.09688245      -1.20239380
H        2.54018685      -1.08445407       0.57128707
H        3.03759433       0.35697506      -0.34227661
18
Frame=7 idx=008098 GeodesicLength=0.7916142619414235 rxn_smarts="[C:1]([C:2]([N:3]([C:4]([H:13])([H:14])[H:15])[C:5](=[O:6])[C:7]([H:16])([H:17])[H:18])([H:11])[H:12])([H:8])([H:9])[H:10]>>[C:1]([C:2]([N:3]1[C:5]([C:4]([H:13])([H:14])[H:15])([C:7]([H:16])([H:17])[H:18])[O:6]1)([H:11])[H:12])([H:8])([H:9])[H:10]"
C       -2.29496385       0.28016378      -0.63741745
C       -1.44388997      -0.82085191      -0.04132584
N       -0.03487496      -0.80540342       0.03467266
C        0.71480970       0.85412707       1.18742746
C        0.93857392       0.11632136      -0.30445436
O        0.43604900       0.44137735      -1.45862729
C        2.35480359      -0.46676443      -0.32659855
H       -3.34306347      -0.02698199      -0.64259990
H       -1.98882291       0.49047343      -1.66219688
H       -2.23086786       1.20107493      -0.05583297
H       -1.62184923      -1.75537677      -0.59595810
H       -1.77325753      -1.02665676       0.98736393
H        0.90327522       0.28704899       2.10112886
H        1.51952760       1.59060083       1.14367669
H       -0.20735265       1.42423625       1.27967751
H        2.46703604      -1.06958635      -1.22445269
H        2.55439688      -1.08615774       0.54850692
H        3.05047049       0.37235538      -0.33299000
18
Frame=8 idx=008098 GeodesicLength=0.9046239919131086 rxn_smarts="[C:1]([C:2]([N:3]([C:4]([H:13])([H:14])[H:15])[C:5](=[O:6])[C:7]([H:16])([H:17])[H:18])([H:11])[H:12])([H:8])([H:9])[H:10]>>[C:1]([C:2]([N:3]1[C:5]([C:4]([H:13])([H:14])[H:15])([C:7]([H:16])([H:17])[H:18])[O:6]1)([H:11])[H:12])([H:8])([H:9])[H:10]"
C       -2.31157742       0.27392284      -0.65753230
C       -1.44420551      -0.79410216      -0.02611824
N       -0.03300735      -0.77093791       0.02065749
C        0.70797184       0.82223892       1.20634731
C        0.95598132       0.12562766      -0.32399853
O        0.43608399       0.42534461      -1.47635300
C        2.36960026      -0.45426286      -0.33919091
H       -3.35875583      -0.03478120      -0.62905248
H       -2.02832156       0.43465430      -1.69749818
H       -2.23981662       1.22163568      -0.12166299
H       -1.62252786      -1.75180564      -0.53810271
H       -1.75868390      -0.94861565       1.01559123
H        0.87463822       0.23806309       2.11394630
H        1.52962017       1.54102992       1.19459904
H       -0.20010084       1.41472083       1.30078350
H        2.49239905      -1.04206374      -1.24550217
H        2.56778787      -1.08768421       0.52616684
H        3.06291417       0.38701550      -0.32308021
18
Frame=9 idx=008098 GeodesicLength=1.0176964750124111 rxn_smarts="[C:1]([C:2]([N:3]([C:4]([H:13])([H:14])[H:15])[C:5](=[O:6])[C:7]([H:16])([H:17])[H:18])([H:11])[H:12])([H:8])([H:9])[H:10]>>[C:1]([C:2]([N:3]1[C:5]([C:4]([H:13])([H:14])[H:15])([C:7]([H:16])([H:17])[H:18])[O:6]1)([H:11])[H:12])([H:8])([H:9])[H:10]"
C       -2.32850119       0.26681218      -0.67700521
C       -1.44431102      -0.76625006      -0.01170750
N       -0.03152828      -0.73499426       0.00744724
C        0.70184332       0.79068438       1.22489232
C        0.97293219       0.13571347      -0.34298727
O        0.43668182       0.40916564      -1.49370019
C        2.38377364      -0.44164999      -0.35122901
H       -3.37435541      -0.04187704      -0.61466430
H       -2.06858947       0.37611976      -1.72969781
H       -2.24950699       1.23935201      -0.18845793
H       -1.62114944      -1.74520698      -0.48089193
H       -1.74518712      -0.87022520       1.03962274
H        0.84629251       0.18951140       2.12562527
H        1.54021821       1.48955199       1.24389090
H       -0.19108634       1.40560102       1.32308380
H        2.51718022      -1.01415881      -1.26571834
H        2.58035446      -1.08912672       0.50408659
H        3.07493890       0.40097720      -0.31258937
18
Frame=10 idx=008098 GeodesicLength=1.1308755037645348 rxn_smarts="[C:1]([C:2]([N:3]([C:4]([H:13])([H:14])[H:15])[C:5](=[O:6])[C:7]([H:16])([H:17])[H:18])([H:11])[H:12])([H:8])([H:9])[H:10]>>[C:1]([C:2]([N:3]1[C:5]([C:4]([H:13])([H:14])[H:15])([C:7]([H:16])([H:17])[H:18])[O:6]1)([H:11])[H:12])([H:8])([H:9])[H:10]"
C       -2.34565496       0.25878771      -0.69586544
C       -1.44421299      -0.73720953       0.00188749
N       -0.03038701      -0.69751959      -0.00512466
C        0.69634467       0.75934561       1.24306232
C        0.98948465       0.14650170      -0.36159226
O        0.43791919       0.39289191      -1.51065142
C        2.39742078      -0.42894062      -0.36276142
H       -3.38950566      -0.04820377      -0.59949878
H       -2.10950011       0.31526420      -1.75821822
H       -2.26055770       1.25405696      -0.25663588
H       -1.61756149      -1.73557812      -0.42403136
H       -1.73307075      -0.79132757       1.05969029
H        0.81794639       0.14120008       2.13611073
H        1.55139194       1.43605476       1.29148564
H       -0.18039799       1.39677550       1.34660561
H        2.54156205      -0.98582124      -1.28516894
H        2.59214876      -1.09054200       0.48215787
H        3.08663023       0.41426403      -0.30145156
18
Frame=11 idx=008098 GeodesicLength=1.2441694507917456 rxn_smarts="[C:1]([C:2]([N:3]([C:4]([H:13])([H:14])[H:15])[C:5](=[O:6])[C:7]([H:16])([H:17])[H:18])([H:11])[H:12])([H:8])([H:9])[H:10]>>[C:1]([C:2]([N:3]1[C:5]([C:4]([H:13])([H:14])[H:15])([C:7]([H:16])([H:17])[H:18])[O:6]1)([H:11])[H:12])([H:8])([H:9])[H:10]"
C       -2.36302506       0.24980249      -0.71421233
C       -1.44392520      -0.70684045       0.01472631
N       -0.02953287      -0.65831993      -0.01714582
C        0.69144060       0.72809847       1.26094199
C        1.00570579       0.15804614      -0.37986580
O        0.43981761       0.37665819      -1.52714304
C        2.41058170      -0.41611432      -0.37385508
H       -3.40417732      -0.05378288      -0.58379358
H       -2.15092359       0.25194066      -1.78299787
H       -2.27313956       1.26569644      -0.32636781
H       -1.61184520      -1.72286850      -0.36727924
H       -1.72234417      -0.71162574       1.07603152
H        0.78946130       0.09290338       2.14535752
H        1.56309252       1.38037646       1.33749748
H       -0.16796465       1.38808777       1.37147042
H        2.56558266      -0.95694618      -1.30395650
H        2.60316983      -1.09199567       0.46023403
H        3.09802560       0.42688367      -0.28964219
18
Frame=12 idx=008098 GeodesicLength=1.3576182156045817 rxn_smarts="[C:1]([C:2]([N:3]([C:4]([H:13])([H:14])[H:15])[C:5](=[O:6])[C:7]([H:16])([H:17])[H:18])([H:11])[H:12])([H:8])([H:9])[H:10]>>[C:1]([C:2]([N:3]1[C:5]([C:4]([H:13])([H:14])[H:15])([C:7]([H:16])([H:17])[H:18])[O:6]1)([H:11])[H:12])([H:8])([H:9])[H:10]"
C       -2.38062508       0.23976365      -0.73214691
C       -1.44346300      -0.67492501       0.02685604
N       -0.02892742      -0.61712874      -0.02873661
C        0.68706836       0.69676498       1.27861930
C        1.02167096       0.17046512      -0.39785125
O        0.44235645       0.36069773      -1.54312790
C        2.42328265      -0.40313290      -0.38458739
H       -3.41838834      -0.05864028      -0.56765671
H       -2.19271539       0.18579479      -1.80393448
H       -2.28728270       1.27411458      -0.39802347
H       -1.60399850      -1.70694123      -0.31028548
H       -1.71297793      -0.63059652       1.08882437
H        0.76063258       0.04432836       2.15327373
H        1.57528159       1.32220285       1.38208792
H       -0.15372803       1.37935771       1.39786927
H        2.58927981      -0.92735564      -1.32221440
H        2.61336565      -1.09358536       0.43811834
H        3.10916834       0.43881591      -0.27708437
18
Frame=13 idx=008098 GeodesicLength=1.4711981039403335 rxn_smarts="[C:1]([C:2]([N:3]([C:4]([H:13])([H:14])[H:15])[C:5](=[O:6])[C:7]([H:16])([H:17])[H:18])([H:11])[H:12])([H:8])([H:9])[H:10]>>[C:1]([C:2]([N:3]1[C:5]([C:4]([H:13])([H:14])[H:15])([C:7]([H:16])([H:17])[H:18])[O:6]1)([H:11])[H:12])([H:8])([H:9])[H:10]"
C       -2.39846936       0.22853100      -0.74980080
C       -1.44283634      -0.64116023       0.03833429
N       -0.02853337      -0.57353346      -0.03993402
C        0.68319206       0.66520295       1.29621321
C        1.03748286       0.18396128      -0.41550760
O        0.44550454       0.34535351      -1.55861864
C        2.43552611      -0.38999833      -0.39501952
H       -3.43232710      -0.06300321      -0.55141868
H       -2.23481874       0.11631659      -1.82096420
H       -2.30286860       1.27900056      -0.47171635
H       -1.59418734      -1.68756418      -0.25294321
H       -1.70461365      -0.54752136       1.09831001
H        0.73129448      -0.00475937       2.15976278
H        1.58781940       1.26124011       1.42544328
H       -0.13751170       1.37037994       1.42601060
H        2.61262442      -0.89690183      -1.34005699
H        2.62260182      -1.09547480       0.41559711
H        3.12012049       0.44993083      -0.26369127
18
Frame=14 idx=008098 GeodesicLength=1.5850193687862362 rxn_smarts="[C:1]([C:2]([N:3]([C:4]([H:13])([H:14])[H:15])[C:5](=[O:6])[C:7]([H:16])([H:17])[H:18])([H:11])[H:12])([H:8])([H:9])[H:10]>>[C:1]([C:2]([N:3]1[C:5]([C:4]([H:13])([H:14])[H:15])([C:7]([H:16])([H:17])[H:18])[O:6]1)([H:11])[H:12])([H:8])([H:9])[H:10]"
C       -2.41649341       0.21591768      -0.76717807
C       -1.44201980      -0.60528058       0.04916159
N       -0.02831222      -0.52721489      -0.05095232
C        0.67965959       0.63310666       1.31368729
C        1.05319216       0.19866389      -0.43296444
O        0.44929055       0.33087018      -1.57352702
C        2.44733698      -0.37663339      -0.40521713
H       -3.44577865      -0.06670063      -0.53487023
H       -2.27691713       0.04315708      -1.83356509
H       -2.32019559       1.28006658      -0.54820468
H       -1.58211826      -1.66442486      -0.19450733
H       -1.69746276      -0.46172153       1.10435462
H        0.70101218      -0.05479836       2.16454644
H        1.60067740       1.19690747       1.46760868
H       -0.11930105       1.36090736       1.45608980
H        2.63571798      -0.86529052      -1.35760350
H        2.63079985      -1.09775389       0.39240510
H        3.13091218       0.46022173      -0.24926371
18
Frame=15 idx=008098 GeodesicLength=1.6991424996855076 rxn_smarts="[C:1]([C:2]([N:3]([C:4]([H:13])([H:14])[H:15])[C:5](=[O:6])[C:7]([H:16])([H:17])[H:18])([H:11])[H:12])([H:8])([H:9])[H:10]>>[C:1]([C:2]([N:3]1[C:5]([C:4]([H:13])([H:14])[H:15])([C:7]([H:16])([H:17])[H:18])[O:6]1)([H:11])[H:12])([H:8])([H:9])[H:10]"
C       -2.43466328       0.20171917      -0.78426773
C       -1.44097816      -0.56693717       0.05934396
N       -0.02822254      -0.47766866      -0.06193092
C        0.67632422       0.60024670       1.33099492
C        1.06889878       0.21479038      -0.45027859
O        0.45371612       0.31755447      -1.58785785
C        2.45870678      -0.36304140      -0.41521589
H       -3.45871115      -0.06992934      -0.51819197
H       -2.31872492      -0.03398712      -1.84129046
H       -2.33947770       1.27682098      -0.62762595
H       -1.56757767      -1.63708098      -0.13453878
H       -1.69130367      -0.37234180       1.10687315
H        0.66937627      -0.10607977       2.16728225
H        1.61365829       1.12864884       1.50863535
H       -0.09896053       1.35070698       1.48826547
H        2.65858543      -0.83236531      -1.37490330
H        2.63776695      -1.10057121       0.36832360
H        3.14158678       0.46951522      -0.23361726
18
Frame=16 idx=008098 GeodesicLength=1.81367347914739 rxn_smarts="[C:1]([C:2]([N:3]([C:4]([H:13])([H:14])[H:15])[C:5](=[O:6])[C:7]([H:16])([H:17])[H:18])([H:11])[H:12])([H:8])([H:9])[H:10]>>[C:1]([C:2]([N:3]1[C:5]([C:4]([H:13])([H:14])[H:15])([C:7]([H:16])([H:17])[H:18])[O:6]1)([H:11])[H:12])([H:8])([H:9])[H:10]"
C       -2.45293434       0.18566077      -0.80099347
C       -1.43964803      -0.52569443       0.06884929
N       -0.02820195      -0.42424356      -0.07302763
C        0.67295903       0.56635532       1.34805563
C        1.08473399       0.23264043      -0.46748263
O        0.45881528       0.30582972      -1.60169357
C        2.46962273      -0.34922839      -0.42503683
H       -3.47115493      -0.07284584      -0.50136924
H       -2.35996049      -0.11564033      -1.84344383
H       -2.36079576       1.26859957      -0.71024333
H       -1.55026447      -1.60496995      -0.07264623
H       -1.68579824      -0.27828805       1.10558809
H        0.63584370      -0.15892628       2.16756291
H        1.62644179       1.05576691       1.54852098
H       -0.07637100       1.33946442       1.52275856
H        2.68128043      -0.79789877      -1.39200299
H        2.64323225      -1.10414150       0.34307267
H        3.15220001       0.47755995      -0.21646837
