9
Frame=0 idx=005595 GeodesicLength=0.0 rxn_smarts="[N:1](=[C:2](/[N:3]([C:4](=[O:5])[H:9])[H:8])[H:7])\[H:6]>>[N:1]1([H:6])[C:2]([H:7])=[N:3][C:4]([H:8])([H:9])[O:5]1"
N       -0.18940308       0.82086276       1.28551285
C       -0.89569414       0.50331245       0.25024082
N       -0.60005484      -0.39682340      -0.69090555
C        0.78066720      -0.74388661      -0.64662712
O        1.47816965      -0.50954247       0.40112163
H       -0.43086846       1.76335831       1.59820107
H       -1.80865346       1.05193536      -0.00488123
H        0.44686230      -1.83789619      -0.53383007
H        1.21897481      -0.65132022      -1.65883243
9
Frame=1 idx=005595 GeodesicLength=0.07392898323593285 rxn_smarts="[N:1](=[C:2](/[N:3]([C:4](=[O:5])[H:9])[H:8])[H:7])\[H:6]>>[N:1]1([H:6])[C:2]([H:7])=[N:3][C:4]([H:8])([H:9])[O:5]1"
N       -0.20483381       0.79261235       1.29711065
C       -0.89926879       0.49690354       0.24492605
N       -0.60301913      -0.42602317      -0.67221762
C        0.78575965      -0.73456021      -0.65171151
O        1.49560108      -0.47854012       0.38469258
H       -0.42506568       1.74074707       1.60826594
H       -1.78037802       1.07944637      -0.04328542
H        0.42746707      -1.83164376      -0.49657203
H        1.20373763      -0.63894206      -1.67120864
9
Frame=2 idx=005595 GeodesicLength=0.1479027169842484 rxn_smarts="[N:1](=[C:2](/[N:3]([C:4](=[O:5])[H:9])[H:8])[H:7])\[H:6]>>[N:1]1([H:6])[C:2]([H:7])=[N:3][C:4]([H:8])([H:9])[O:5]1"
N       -0.21662719       0.76847977       1.30515767
C       -0.90246597       0.48981929       0.24036580
N       -0.60455343      -0.45247980      -0.65467609
C        0.78987905      -0.72673799      -0.65691947
O        1.51067662      -0.45071035       0.36874946
H       -0.42265503       1.71886888       1.61852442
H       -1.75075249       1.10313924      -0.07887322
H        0.40743923      -1.82550913      -0.45993734
H        1.18905920      -0.62486991      -1.68239123
9
Frame=3 idx=005595 GeodesicLength=0.2218480741483657 rxn_smarts="[N:1](=[C:2](/[N:3]([C:4](=[O:5])[H:9])[H:8])[H:7])\[H:6]>>[N:1]1([H:6])[C:2]([H:7])=[N:3][C:4]([H:8])([H:9])[O:5]1"
N       -0.22596093       0.74727843       1.31103925
C       -0.90553883       0.48254276       0.23615562
N       -0.60507222      -0.47675557      -0.63835199
C        0.79336660      -0.72036903      -0.66226172
O        1.52406139      -0.42573001       0.35346093
H       -0.42216722       1.69825474       1.62856945
H       -1.72081714       1.12358206      -0.11199887
H        0.38718379      -1.81970920      -0.42396947
H        1.17494456      -0.60909418      -1.69264321
9
Frame=4 idx=005595 GeodesicLength=0.2959908987243301 rxn_smarts="[N:1](=[C:2](/[N:3]([C:4](=[O:5])[H:9])[H:8])[H:7])\[H:6]>>[N:1]1([H:6])[C:2]([H:7])=[N:3][C:4]([H:8])([H:9])[O:5]1"
N       -0.23280593       0.72856981       1.31482140
C       -0.90796415       0.47550391       0.23187762
N       -0.60477651      -0.49956721      -0.62254520
C        0.79617001      -0.71538490      -0.66787775
O        1.53631159      -0.40248686       0.33777557
H       -0.42498920       1.67772303       1.63980088
H       -1.68925219       1.14199429      -0.14388831
H        0.36694956      -1.81408925      -0.38758595
H        1.16035682      -0.59226281      -1.70237828
9
Frame=5 idx=005595 GeodesicLength=0.3701167673801785 rxn_smarts="[N:1](=[C:2](/[N:3]([C:4](=[O:5])[H:9])[H:8])[H:7])\[H:6]>>[N:1]1([H:6])[C:2]([H:7])=[N:3][C:4]([H:8])([H:9])[O:5]1"
N       -0.23726095       0.71237655       1.31681414
C       -0.90956744       0.46914364       0.22729860
N       -0.60365050      -0.52068513      -0.60754000
C        0.79862611      -0.71180854      -0.67376956
O        1.54772399      -0.38161361       0.32210682
H       -0.43065276       1.65771366       1.65178355
H       -1.65760597       1.15796668      -0.17387360
H        0.34652441      -1.80855797      -0.35118674
H        1.14586311      -0.57453528      -1.71163321
9
Frame=6 idx=005595 GeodesicLength=0.44435544978385744 rxn_smarts="[N:1](=[C:2](/[N:3]([C:4](=[O:5])[H:9])[H:8])[H:7])\[H:6]>>[N:1]1([H:6])[C:2]([H:7])=[N:3][C:4]([H:8])([H:9])[O:5]1"
N       -0.23920549       0.69864763       1.31710214
C       -0.91017868       0.46357811       0.22235995
N       -0.60186104      -0.54056490      -0.59288354
C        0.80072734      -0.70961616      -0.68009235
O        1.55873523      -0.36250140       0.30579973
H       -0.44021083       1.63750237       1.66550886
H       -1.62499246       1.17241124      -0.20284122
H        0.32617472      -1.80302189      -0.31424459
H        1.13081122      -0.55643501      -1.72070898
9
Frame=7 idx=005595 GeodesicLength=0.5187625136337507 rxn_smarts="[N:1](=[C:2](/[N:3]([C:4](=[O:5])[H:9])[H:8])[H:7])\[H:6]>>[N:1]1([H:6])[C:2]([H:7])=[N:3][C:4]([H:8])([H:9])[O:5]1"
N       -0.23937660       0.68683514       1.31612170
C       -0.91014054       0.45859018       0.21712530
N       -0.59955214      -0.55939302      -0.57850134
C        0.80248853      -0.70852434      -0.68673211
O        1.56924508      -0.34489365       0.28907592
H       -0.45235482       1.61694268       1.68015138
H       -1.59156134       1.18547129      -0.23099020
H        0.30605434      -1.79729929      -0.27683723
H        1.11519749      -0.53772901      -1.72941341
9
Frame=8 idx=005595 GeodesicLength=0.5932938329505463 rxn_smarts="[N:1](=[C:2](/[N:3]([C:4](=[O:5])[H:9])[H:8])[H:7])\[H:6]>>[N:1]1([H:6])[C:2]([H:7])=[N:3][C:4]([H:8])([H:9])[O:5]1"
N       -0.23751148       0.67730837       1.31374861
C       -0.90922055       0.45449861       0.21147702
N       -0.59674175      -0.57718690      -0.56420334
C        0.80399610      -0.70854985      -0.69381965
O        1.57960756      -0.32858446       0.27150925
H       -0.46805163       1.59529753       1.69653094
H       -1.55713809       1.19754534      -0.25855654
H        0.28620469      -1.79113735      -0.23865574
H        1.09885513      -0.51919129      -1.73803055
9
Frame=9 idx=005595 GeodesicLength=0.668027681430918 rxn_smarts="[N:1](=[C:2](/[N:3]([C:4](=[O:5])[H:9])[H:8])[H:7])\[H:6]>>[N:1]1([H:6])[C:2]([H:7])=[N:3][C:4]([H:8])([H:9])[O:5]1"
N       -0.23448979       0.66916104       1.31046594
C       -0.90792812       0.45080600       0.20560508
N       -0.59356122      -0.59416450      -0.54996799
C        0.80514279      -0.70931167      -0.70115107
O        1.58944992      -0.31346776       0.25359994
H       -0.48540883       1.57306402       1.71331319
H       -1.52181962       1.20849454      -0.28568339
H        0.26679562      -1.78452639      -0.20006890
H        1.08181925      -0.50005529      -1.74611281
9
Frame=10 idx=005595 GeodesicLength=0.7429744701785981 rxn_smarts="[N:1](=[C:2](/[N:3]([C:4](=[O:5])[H:9])[H:8])[H:7])\[H:6]>>[N:1]1([H:6])[C:2]([H:7])=[N:3][C:4]([H:8])([H:9])[O:5]1"
N       -0.22959223       0.66346756       1.30584277
C       -0.90571160       0.44819395       0.19919817
N       -0.58988991      -0.60999544      -0.53579846
C        0.80615501      -0.71090690      -0.70887257
O        1.59929723      -0.29958878       0.23496203
H       -0.50587137       1.54902411       1.73161725
H       -1.48621330       1.21851138      -0.31212564
H        0.24756460      -1.77708180      -0.16079118
H        1.06426156      -0.48162409      -1.75403238
9
Frame=11 idx=005595 GeodesicLength=0.8180714278474375 rxn_smarts="[N:1](=[C:2](/[N:3]([C:4](=[O:5])[H:9])[H:8])[H:7])\[H:6]>>[N:1]1([H:6])[C:2]([H:7])=[N:3][C:4]([H:8])([H:9])[O:5]1"
N       -0.22518598       0.65783348       1.30121476
C       -0.90391334       0.44535536       0.19277106
N       -0.58595860      -0.62502944      -0.52204307
C        0.80690450      -0.71254824      -0.71649592
O        1.60809868      -0.28698874       0.21722595
H       -0.52426654       1.52543711       1.74772765
H       -1.45115097       1.22673363      -0.33758671
H        0.22865589      -1.76901998      -0.12206037
H        1.04681636      -0.46177318      -1.76075335
9
Frame=12 idx=005595 GeodesicLength=0.8933075837171944 rxn_smarts="[N:1](=[C:2](/[N:3]([C:4](=[O:5])[H:9])[H:8])[H:7])\[H:6]>>[N:1]1([H:6])[C:2]([H:7])=[N:3][C:4]([H:8])([H:9])[O:5]1"
N       -0.21969623       0.65399182       1.29565155
C       -0.90160756       0.44328296       0.18590189
N       -0.58163192      -0.63903384      -0.50850319
C        0.80759472      -0.71461241      -0.72432540
O        1.61680505      -0.27562907       0.19940771
H       -0.54387027       1.50056793       1.76424501
H       -1.41675594       1.23391986      -0.36221049
H        0.20988076      -1.76016650      -0.08320942
H        1.02928140      -0.44232076      -1.76695766
9
Frame=13 idx=005595 GeodesicLength=0.9686295741138289 rxn_smarts="[N:1](=[C:2](/[N:3]([C:4](=[O:5])[H:9])[H:8])[H:7])\[H:6]>>[N:1]1([H:6])[C:2]([H:7])=[N:3][C:4]([H:8])([H:9])[O:5]1"
N       -0.21483788       0.65009666       1.29017739
C       -0.89970461       0.44094585       0.17901512
N       -0.57700878      -0.65225843      -0.49548369
C        0.80816355      -0.71649726      -0.73206212
O        1.62461315      -0.26563206       0.18275730
H       -0.56096152       1.47649426       1.77842907
H       -1.38373437       1.23927963      -0.38562474
H        0.19121497      -1.75071946      -0.04527123
H        1.01225549      -0.42170919      -1.77193709
9
Frame=14 idx=005595 GeodesicLength=1.0439954356756787 rxn_smarts="[N:1](=[C:2](/[N:3]([C:4](=[O:5])[H:9])[H:8])[H:7])\[H:6]>>[N:1]1([H:6])[C:2]([H:7])=[N:3][C:4]([H:8])([H:9])[O:5]1"
N       -0.20976238       0.64704707       1.28431165
C       -0.89776187       0.43883699       0.17191738
N       -0.57204858      -0.66465885      -0.48284869
C        0.80872479      -0.71838197      -0.73986395
O        1.63210965      -0.25694304       0.16676540
H       -0.57726680       1.45230002       1.79169854
H       -1.35216966       1.24336269      -0.40801382
H        0.17256632      -1.74069805      -0.00789595
H        0.99560854      -0.40086486      -1.77607055
9
Frame=15 idx=005595 GeodesicLength=1.1194000699068942 rxn_smarts="[N:1](=[C:2](/[N:3]([C:4](=[O:5])[H:9])[H:8])[H:7])\[H:6]>>[N:1]1([H:6])[C:2]([H:7])=[N:3][C:4]([H:8])([H:9])[O:5]1"
N       -0.20475837       0.64446933       1.27824942
C       -0.89593164       0.43672307       0.16471663
N       -0.56675980      -0.67634580      -0.47061358
C        0.80927672      -0.72011175      -0.74771203
O        1.63920634      -0.24954842       0.15163117
H       -0.59218966       1.42843435       1.80365273
H       -1.32218249       1.24609437      -0.42937887
H        0.15387336      -1.73018004       0.02872801
H        0.97946554      -0.37953511      -1.77927347
9
Frame=16 idx=005595 GeodesicLength=1.1948364190990126 rxn_smarts="[N:1](=[C:2](/[N:3]([C:4](=[O:5])[H:9])[H:8])[H:7])\[H:6]>>[N:1]1([H:6])[C:2]([H:7])=[N:3][C:4]([H:8])([H:9])[O:5]1"
N       -0.19975184       0.64239672       1.27196346
C       -0.89417968       0.43460066       0.15742056
N       -0.56113378      -0.68737271      -0.45873973
C        0.80984314      -0.72164450      -0.75563753
O        1.64601261      -0.24341030       0.13731684
H       -0.60585924       1.40486056       1.81445930
H       -1.29384761       1.24759304      -0.44980216
H        0.13505711      -1.71921197       0.06463049
H        0.96385930      -0.35781150      -1.78161123
