14
Frame=0 idx=003268 GeodesicLength=0.0 rxn_smarts="[C:1]1([H:7])([H:8])[C@@:2]2([H:9])[C:3]([H:10])([H:11])[O:4][C:5]([H:12])([H:13])[C@@:6]12[H:14]>>[C:1]1([H:7])([H:8])[C@@:2]2([H:9])[C@:3]1([H:10])[O:4][C:5]([H:12])([H:13])[C:6]2([H:11])[H:14]"
C        1.31755900       0.72314404      -0.86529773
C        0.78134315       0.38774256       0.39879223
C       -0.63500324       0.95772245       0.67823906
O       -1.51596315       0.42071066      -0.20779869
C       -1.07703702      -0.94166933      -0.38055035
C        0.16116102      -1.00365050       0.45676303
H        0.70981052       0.62570603      -1.75565514
H        2.31744148       1.11831037      -0.99142666
H        1.42913636       0.57681211       1.25097796
H       -0.87304687       2.00042005       0.89061704
H       -0.54757501      -0.20742089       1.49471896
H       -0.94151786      -1.10644046      -1.45115069
H       -1.85507745      -1.62088167      -0.02165325
H        0.72876903      -1.93050540       0.50342427
14
Frame=1 idx=003268 GeodesicLength=0.08423965821284052 rxn_smarts="[C:1]1([H:7])([H:8])[C@@:2]2([H:9])[C:3]([H:10])([H:11])[O:4][C:5]([H:12])([H:13])[C@@:6]12[H:14]>>[C:1]1([H:7])([H:8])[C@@:2]2([H:9])[C@:3]1([H:10])[O:4][C:5]([H:12])([H:13])[C:6]2([H:11])[H:14]"
C        1.29554315       0.71531500      -0.85527255
C        0.78750742       0.38724204       0.42385423
C       -0.62619151       0.96443164       0.66827461
O       -1.51127316       0.42206204      -0.21489974
C       -1.07405945      -0.93999244      -0.38511062
C        0.16846947      -1.00168940       0.44852696
H        0.69624966       0.62339926      -1.75128992
H        2.29415188       1.11151774      -0.98955739
H        1.43793462       0.57621201       1.27257226
H       -0.85865584       2.00953210       0.87239194
H       -0.55600068      -0.21111871       1.50115059
H       -0.94261470      -1.11247972      -1.45494514
H       -1.85083165      -1.61810803      -0.02122327
H        0.73977079      -1.92632356       0.48552804
14
Frame=2 idx=003268 GeodesicLength=0.1684874591085886 rxn_smarts="[C:1]1([H:7])([H:8])[C@@:2]2([H:9])[C:3]([H:10])([H:11])[O:4][C:5]([H:12])([H:13])[C@@:6]12[H:14]>>[C:1]1([H:7])([H:8])[C@@:2]2([H:9])[C@:3]1([H:10])[O:4][C:5]([H:12])([H:13])[C:6]2([H:11])[H:14]"
C        1.27379826       0.70759173      -0.84513782
C        0.79304737       0.38672676       0.44813924
C       -0.61730815       0.97110036       0.65822987
O       -1.50693271       0.42329649      -0.22161555
C       -1.07129593      -0.93838005      -0.38953089
C        0.17585258      -0.99952271       0.44005901
H        0.68359532       0.62097676      -1.74711831
H        2.27123178       1.10469477      -0.98686993
H        1.44624489       0.57561254       1.29336286
H       -0.84417311       2.01845306       0.85433212
H       -0.56425607      -0.21484655       1.50766717
H       -0.94418586      -1.11842879      -1.45859162
H       -1.84654147      -1.61552038      -0.02041711
H        0.75092308      -1.92175399       0.46749096
14
Frame=3 idx=003268 GeodesicLength=0.25274333611628763 rxn_smarts="[C:1]1([H:7])([H:8])[C@@:2]2([H:9])[C:3]([H:10])([H:11])[O:4][C:5]([H:12])([H:13])[C@@:6]12[H:14]>>[C:1]1([H:7])([H:8])[C@@:2]2([H:9])[C@:3]1([H:10])[O:4][C:5]([H:12])([H:13])[C:6]2([H:11])[H:14]"
C        1.25235574       0.69996809      -0.83494260
C        0.79796988       0.38618735       0.47166123
C       -0.60837404       0.97772188       0.64812790
O       -1.50292203       0.42442193      -0.22796164
C       -1.06873271      -0.93682921      -0.39381385
C        0.18328696      -0.99716725       0.43139897
H        0.67177927       0.61847917      -1.74310730
H        2.24871592       1.09785283      -0.98343333
H        1.45408223       0.57501132       1.31334874
H       -0.82961157       2.02719020       0.83642902
H       -0.57236717      -0.21862493       1.51430760
H       -0.94617323      -1.12428514      -1.46208671
H       -1.84220980      -1.61310964      -0.01927419
H        0.76220057      -1.91681659       0.44934615
14
Frame=4 idx=003268 GeodesicLength=0.33700773966609554 rxn_smarts="[C:1]1([H:7])([H:8])[C@@:2]2([H:9])[C:3]([H:10])([H:11])[O:4][C:5]([H:12])([H:13])[C@@:6]12[H:14]>>[C:1]1([H:7])([H:8])[C@@:2]2([H:9])[C@:3]1([H:10])[O:4][C:5]([H:12])([H:13])[C:6]2([H:11])[H:14]"
C        1.23123993       0.69244206      -0.82473105
C        0.80228396       0.38561586       0.49443713
C       -0.59940733       0.98429045       0.63798968
O       -1.49921972       0.42544692      -0.23395505
C       -1.06635593      -0.93533631      -0.39796334
C        0.19075215      -0.99463972       0.42258367
H        0.66073482       0.61594031      -1.73922616
H        2.22663103       1.09100140      -0.97931539
H        1.46146147       0.57440477       1.33253605
H       -0.81498084       2.03575114       0.81867345
H       -0.58035775      -0.22247457       1.52110654
H       -0.94852218      -1.13004761      -1.46542901
H       -1.83784006      -1.61086550      -0.01783176
H        0.77358046      -1.91152918       0.43112525
14
Frame=5 idx=003268 GeodesicLength=0.4212821358976824 rxn_smarts="[C:1]1([H:7])([H:8])[C@@:2]2([H:9])[C:3]([H:10])([H:11])[O:4][C:5]([H:12])([H:13])[C@@:6]12[H:14]>>[C:1]1([H:7])([H:8])[C@@:2]2([H:9])[C@:3]1([H:10])[O:4][C:5]([H:12])([H:13])[C:6]2([H:11])[H:14]"
C        1.21047053       0.68501126      -0.81454158
C        0.80599913       0.38500495       0.51648804
C       -0.59042488       0.99080307       0.62783465
O       -1.49580379       0.42638087      -0.23961223
C       -1.06415184      -0.93389684      -0.40198244
C        0.19822874      -0.99195603       0.41365015
H        0.65039762       0.61338690      -1.73544706
H        2.20499833       1.08415161      -0.97458027
H        1.46839865       0.57379371       1.35093214
H       -0.80028710       2.04414384       0.80105160
H       -0.58825043      -0.22642155       1.52809724
H       -0.95118084      -1.13571478      -1.46861759
H       -1.83343638      -1.60877598      -0.01612572
H        0.78504225      -1.90591103       0.41285307
14
Frame=6 idx=003268 GeodesicLength=0.5055581077616318 rxn_smarts="[C:1]1([H:7])([H:8])[C@@:2]2([H:9])[C:3]([H:10])([H:11])[O:4][C:5]([H:12])([H:13])[C@@:6]12[H:14]>>[C:1]1([H:7])([H:8])[C@@:2]2([H:9])[C@:3]1([H:10])[O:4][C:5]([H:12])([H:13])[C:6]2([H:11])[H:14]"
C        1.19006075       0.67767502      -0.80441164
C        0.80912592       0.38434681       0.53783616
C       -0.58144132       0.99725446       0.61768280
O       -1.49264967       0.42723333      -0.24495087
C       -1.06210646      -0.93250635      -0.40587605
C        0.20570060      -0.98913225       0.40462880
H        0.64070785       0.61084464      -1.73175037
H        2.18383377       1.07731450      -0.96929131
H        1.47490791       0.57317207       1.36855210
H       -0.78553582       2.05237158       0.78355550
H       -0.59606627      -0.23047938       1.53530694
H       -0.95410325      -1.14128785      -1.47165375
H       -1.82900155      -1.60682878      -0.01418910
H        0.79656752      -1.89997780       0.39456077
14
Frame=7 idx=003268 GeodesicLength=0.5906566971491995 rxn_smarts="[C:1]1([H:7])([H:8])[C@@:2]2([H:9])[C:3]([H:10])([H:11])[O:4][C:5]([H:12])([H:13])[C@@:6]12[H:14]>>[C:1]1([H:7])([H:8])[C@@:2]2([H:9])[C@:3]1([H:10])[O:4][C:5]([H:12])([H:13])[C:6]2([H:11])[H:14]"
C        1.16973727       0.67047433      -0.79427172
C        0.81198581       0.38366906       0.55896175
C       -0.57244264       1.00374363       0.60746069
O       -1.48955238       0.42809014      -0.25018944
C       -1.06011321      -0.93113577      -0.40968010
C        0.21318723      -0.98624109       0.39555303
H        0.63125383       0.60824766      -1.72809613
H        2.16280436       1.07057330      -0.96379941
H        1.48113695       0.57238331       1.38597897
H       -0.77058532       2.06053863       0.76585062
H       -0.60395466      -0.23478735       1.54277418
H       -0.95710712      -1.14686997      -1.47454087
H       -1.82451203      -1.60485581      -0.01206329
H        0.80816192      -1.89383009       0.37606172
14
Frame=8 idx=003268 GeodesicLength=0.6751341891483466 rxn_smarts="[C:1]1([H:7])([H:8])[C@@:2]2([H:9])[C:3]([H:10])([H:11])[O:4][C:5]([H:12])([H:13])[C@@:6]12[H:14]>>[C:1]1([H:7])([H:8])[C@@:2]2([H:9])[C@:3]1([H:10])[O:4][C:5]([H:12])([H:13])[C:6]2([H:11])[H:14]"
C        1.15004642       0.66326309      -0.78430513
C        0.81401683       0.38289757       0.57904965
C       -0.56346697       1.01008148       0.59732529
O       -1.48686987       0.42879245      -0.25492140
C       -1.05834777      -0.92982459      -0.41334880
C        0.22062532      -0.98318605       0.38640513
H        0.62267788       0.60576135      -1.72446025
H        2.14254389       1.06374972      -0.95758578
H        1.48687039       0.57183258       1.40215709
H       -0.75569075       2.06851578       0.74854346
H       -0.61170657      -0.23914500       1.55048888
H       -0.96047521      -1.15223525      -1.47731163
H       -1.82002712      -1.60320118      -0.00977713
H        0.81980353      -1.88730196       0.35774063
14
Frame=9 idx=003268 GeodesicLength=0.7596665554038322 rxn_smarts="[C:1]1([H:7])([H:8])[C@@:2]2([H:9])[C:3]([H:10])([H:11])[O:4][C:5]([H:12])([H:13])[C@@:6]12[H:14]>>[C:1]1([H:7])([H:8])[C@@:2]2([H:9])[C@:3]1([H:10])[O:4][C:5]([H:12])([H:13])[C:6]2([H:11])[H:14]"
C        1.13072890       0.65614664      -0.77444405
C        0.81552284       0.38208016       0.59852252
C       -0.55451263       1.01636196       0.58722244
O       -1.48439930       0.42943306      -0.25938680
C       -1.05670707      -0.92855482      -0.41690049
C        0.22802157      -0.98002821       0.37723208
H        0.61459973       0.60330968      -1.72084775
H        2.12274318       1.05696787      -0.95095496
H        1.49224403       0.57127580       1.41761622
H       -0.74073366       2.07634017       0.73130472
H       -0.61945212      -0.24367431       1.55848570
H       -0.96400562      -1.15752048      -1.47993403
H       -1.81551897      -1.60164154      -0.00733049
H        0.83146913      -1.88049597       0.33941488
14
Frame=10 idx=003268 GeodesicLength=0.8440885570320326 rxn_smarts="[C:1]1([H:7])([H:8])[C@@:2]2([H:9])[C:3]([H:10])([H:11])[O:4][C:5]([H:12])([H:13])[C@@:6]12[H:14]>>[C:1]1([H:7])([H:8])[C@@:2]2([H:9])[C@:3]1([H:10])[O:4][C:5]([H:12])([H:13])[C:6]2([H:11])[H:14]"
C        1.11178728       0.64918186      -0.76475180
C        0.81642862       0.38119271       0.61734086
C       -0.54559973       1.02256900       0.57721724
O       -1.48210094       0.43003414      -0.26358909
C       -1.05518891      -0.92732237      -0.42032143
C        0.23536882      -0.97676508       0.36808387
H        0.60703635       0.60087639      -1.71731387
H        2.10343434       1.05028486      -0.94390141
H        1.49717736       0.57063695       1.43230845
H       -0.72566498       2.08400299       0.71412403
H       -0.62719459      -0.24839952       1.56677351
H       -0.96764812      -1.16273176      -1.48236615
H       -1.81099085      -1.60016136      -0.00470611
H        0.84315533      -1.87339882       0.32110190
14
Frame=11 idx=003268 GeodesicLength=0.9285333590592406 rxn_smarts="[C:1]1([H:7])([H:8])[C@@:2]2([H:9])[C:3]([H:10])([H:11])[O:4][C:5]([H:12])([H:13])[C@@:6]12[H:14]>>[C:1]1([H:7])([H:8])[C@@:2]2([H:9])[C@:3]1([H:10])[O:4][C:5]([H:12])([H:13])[C:6]2([H:11])[H:14]"
C        1.09321426       0.64231010      -0.75521658
C        0.81681777       0.38024329       0.63560112
C       -0.53672442       1.02871470       0.56727437
O       -1.47997013       0.43059083      -0.26754475
C       -1.05377428      -0.92611829      -0.42363426
C        0.24266239      -0.97341909       0.35895578
H        0.59988355       0.59850858      -1.71379120
H        2.08458816       1.04364721      -0.93652520
H        1.50176200       0.56998385       1.44631700
H       -0.71051394       2.09153358       0.69698897
H       -0.63496748      -0.25333084       1.57537098
H       -0.97138988      -1.16785843      -1.48465208
H       -1.80644360      -1.59877288      -0.00196911
H        0.85485559      -1.86603258       0.30282495
14
Frame=12 idx=003268 GeodesicLength=1.0129995627932336 rxn_smarts="[C:1]1([H:7])([H:8])[C@@:2]2([H:9])[C:3]([H:10])([H:11])[O:4][C:5]([H:12])([H:13])[C@@:6]12[H:14]>>[C:1]1([H:7])([H:8])[C@@:2]2([H:9])[C@:3]1([H:10])[O:4][C:5]([H:12])([H:13])[C:6]2([H:11])[H:14]"
C        1.07500217       0.63553387      -0.74585226
C        0.81669921       0.37923241       0.65333277
C       -0.52789139       1.03480253       0.55740453
O       -1.47798836       0.43111083      -0.27126722
C       -1.05245160      -0.92493780      -0.42684326
C        0.24989651      -0.96999764       0.34986519
H        0.59310235       0.59620919      -1.71027463
H        2.06619840       1.03705255      -0.92887053
H        1.50600784       0.56932152       1.45966189
H       -0.69527019       2.09893765       0.67989240
H       -0.64278794      -0.25849224       1.58429119
H       -0.97520190      -1.17290197      -1.48679589
H       -1.80187873      -1.59746576       0.00086032
H        0.86656362      -1.85840514       0.28459549
14
Frame=13 idx=003268 GeodesicLength=1.097476654546078 rxn_smarts="[C:1]1([H:7])([H:8])[C@@:2]2([H:9])[C:3]([H:10])([H:11])[O:4][C:5]([H:12])([H:13])[C@@:6]12[H:14]>>[C:1]1([H:7])([H:8])[C@@:2]2([H:9])[C@:3]1([H:10])[O:4][C:5]([H:12])([H:13])[C:6]2([H:11])[H:14]"
C        1.05714393       0.62885289      -0.73667426
C        0.81609062       0.37815848       0.67055943
C       -0.51910261       1.04083556       0.54761548
O       -1.47613777       0.43160082      -0.27476868
C       -1.05121048      -0.92377656      -0.42995294
C        0.25706989      -0.96650887       0.34082220
H        0.58665425       0.59398286      -1.70676476
H        2.04825404       1.03050466      -0.92097985
H        1.50991543       0.56864579       1.47237896
H       -0.67992423       2.10621827       0.66282765
H       -0.65066691      -0.26389821       1.59354038
H       -0.97906212      -1.17786447      -1.48880097
H       -1.79729576      -1.59623009       0.00376677
H        0.87827173      -1.85052112       0.26643060
14
Frame=14 idx=003268 GeodesicLength=1.1819677501355257 rxn_smarts="[C:1]1([H:7])([H:8])[C@@:2]2([H:9])[C:3]([H:10])([H:11])[O:4][C:5]([H:12])([H:13])[C@@:6]12[H:14]>>[C:1]1([H:7])([H:8])[C@@:2]2([H:9])[C@:3]1([H:10])[O:4][C:5]([H:12])([H:13])[C:6]2([H:11])[H:14]"
C        1.03962995       0.62226478      -0.72769347
C        0.81499558       0.37702354       0.68730972
C       -0.51035738       1.04681672       0.53791461
O       -1.47440265       0.43206823      -0.27806010
C       -1.05004103      -0.92262920      -0.43296671
C        0.26418130      -0.96295529       0.33183941
H        0.58050918       0.59183106      -1.70326132
H        2.03074421       1.02400145      -0.91288456
H        1.51349260       0.56795804       1.48448259
H       -0.66446599       2.11338047       0.64578714
H       -0.65861904      -0.26957071       1.60312781
H       -0.98295128      -1.18274664      -1.49067197
H       -1.79269573      -1.59505678       0.00673640
H        0.88998028      -1.84238568       0.24834045
14
Frame=15 idx=003268 GeodesicLength=1.266473367504186 rxn_smarts="[C:1]1([H:7])([H:8])[C@@:2]2([H:9])[C:3]([H:10])([H:11])[O:4][C:5]([H:12])([H:13])[C@@:6]12[H:14]>>[C:1]1([H:7])([H:8])[C@@:2]2([H:9])[C@:3]1([H:10])[O:4][C:5]([H:12])([H:13])[C:6]2([H:11])[H:14]"
C        1.02244461       0.61577670      -0.71891901
C        0.81342850       0.37582475       0.70361010
C       -0.50165164       1.05275155       0.52830368
O       -1.47276787       0.43251873      -0.28115434
C       -1.04893459      -0.92149227      -0.43588828
C        0.27123037      -0.95934402       0.32292910
H        0.57463904       0.58974977      -1.69976714
H        2.01365201       1.01754732      -0.90462299
H        1.51674335       0.56725395       1.49600569
H       -0.64888089       2.12042753       0.62876851
H       -0.66665839      -0.27552265       1.61305557
H       -0.98685160      -1.18755322      -1.49241449
H       -1.78808243      -1.59393732       0.00975850
H        0.90168952      -1.83400082       0.23033509
14
Frame=16 idx=003268 GeodesicLength=1.3504935677921241 rxn_smarts="[C:1]1([H:7])([H:8])[C@@:2]2([H:9])[C:3]([H:10])([H:11])[O:4][C:5]([H:12])([H:13])[C@@:6]12[H:14]>>[C:1]1([H:7])([H:8])[C@@:2]2([H:9])[C@:3]1([H:10])[O:4][C:5]([H:12])([H:13])[C:6]2([H:11])[H:14]"
C        1.00579425       0.60944913      -0.71044988
C        0.81118971       0.37453874       0.71921839
C       -0.49303967       1.05859465       0.51885736
O       -1.47128225       0.43294476      -0.28396398
C       -1.04792599      -0.92037155      -0.43867472
C        0.27815562      -0.95565814       0.31414568
H        0.56915906       0.58778461      -1.69628213
H        1.99721432       1.01118336      -0.89609696
H        1.51954611       0.56654050       1.50659009
H       -0.63314642       2.12727330       0.61179181
H       -0.67480968      -0.28187297       1.62349758
H       -0.99074359      -1.19224957      -1.49395316
H       -1.78345502      -1.59289126       0.01283131
H        0.91334355      -1.82526557       0.21248861
