19
Frame=0 idx=008677 GeodesicLength=0.0 rxn_smarts="[C:1]([C:2]1([O:3][H:11])[C:4]([H:12])([H:13])[C:5]([H:14])([H:15])[C:6]([H:16])([H:17])[C:7]1([H:18])[H:19])([H:8])([H:9])[H:10]>>[C:1]([C:2](=[O:3])[C:4]([C:5]([C:6](=[C:7]([H:18])[H:19])[H:16])([H:14])[H:15])([H:12])[H:13])([H:8])([H:9])[H:10].[H:11][H:17]"
C        1.97976021      -0.82902283      -0.50378036
C        0.91219161      -0.05072200       0.22797830
O        0.99715388      -0.04259473       1.49388333
C        0.29279531       1.19784233      -0.41675535
C       -1.20116394       1.24303235      -0.03109697
C       -1.60448484      -0.17960102       0.26597835
C       -0.82860442      -1.11721474      -0.38391342
H        2.92788642      -0.29392059      -0.40208074
H        1.76418877      -0.94900977      -1.56564910
H        2.09789239      -1.80867116      -0.04247890
H       -0.27009578      -0.17916940       1.93884681
H        0.82238097       2.07959550      -0.05254170
H        0.41557616       1.16559711      -1.50099765
H       -1.37192176       1.87384377       0.84059650
H       -1.81282700       1.65274398      -0.83969829
H       -2.57419171      -0.38950820       0.70210097
H       -1.12881533      -0.32075871       1.82550290
H       -0.44675598      -0.87721469      -1.36526772
H       -0.97096487      -2.17524711      -0.19062694
19
Frame=1 idx=008677 GeodesicLength=0.0862765275121197 rxn_smarts="[C:1]([C:2]1([O:3][H:11])[C:4]([H:12])([H:13])[C:5]([H:14])([H:15])[C:6]([H:16])([H:17])[C:7]1([H:18])[H:19])([H:8])([H:9])[H:10]>>[C:1]([C:2](=[O:3])[C:4]([C:5]([C:6](=[C:7]([H:18])[H:19])[H:16])([H:14])[H:15])([H:12])[H:13])([H:8])([H:9])[H:10].[H:11][H:17]"
C        1.99121313      -0.82090437      -0.50658467
C        0.91128685      -0.05872325       0.22386779
O        0.99239744      -0.05710005       1.49279617
C        0.29443817       1.19132126      -0.41951733
C       -1.19603442       1.24355453      -0.02626383
C       -1.61126372      -0.17762806       0.26732439
C       -0.83630971      -1.12100505      -0.38245004
H        2.92971333      -0.26746459      -0.41392801
H        1.77338631      -0.95103551      -1.56691548
H        2.12975776      -1.79637710      -0.04213003
H       -0.27181253      -0.17288805       1.96037277
H        0.83104261       2.07180455      -0.06215989
H        0.40932611       1.15458411      -1.50461118
H       -1.35107207       1.86888533       0.85250110
H       -1.81004501       1.66733272      -0.82552538
H       -2.59798465      -0.37955804       0.66712131
H       -1.14868671      -0.32080647       1.83540965
H       -0.45852370      -0.89686121      -1.36938434
H       -0.98082921      -2.17713074      -0.17992303
19
Frame=2 idx=008677 GeodesicLength=0.1722778390704892 rxn_smarts="[C:1]([C:2]1([O:3][H:11])[C:4]([H:12])([H:13])[C:5]([H:14])([H:15])[C:6]([H:16])([H:17])[C:7]1([H:18])[H:19])([H:8])([H:9])[H:10]>>[C:1]([C:2](=[O:3])[C:4]([C:5]([C:6](=[C:7]([H:18])[H:19])[H:16])([H:14])[H:15])([H:12])[H:13])([H:8])([H:9])[H:10].[H:11][H:17]"
C        2.00264610      -0.81263816      -0.50942086
C        0.91042055      -0.06685426       0.21955896
O        0.98751380      -0.07200778       1.49149781
C        0.29598401       1.18471746      -0.42225790
C       -1.19089464       1.24390865      -0.02127670
C       -1.61812076      -0.17571556       0.26890476
C       -0.84414567      -1.12482339      -0.38093767
H        2.93112073      -0.24113617      -0.42563988
H        1.78283726      -0.95294759      -1.56816626
H        2.16141457      -1.78353890      -0.04186301
H       -0.27284484      -0.16618422       1.98224179
H        0.83950203       2.06388532      -0.07175414
H        0.40285311       1.14352391      -1.50814361
H       -1.33024268       1.86346627       0.86439358
H       -1.80702254       1.68185278      -0.81096532
H       -2.62100063      -0.36904185       0.63062404
H       -1.16868019      -0.32070397       1.84549298
H       -0.47061465      -0.91681862      -1.37329360
H       -0.99072556      -2.17894393      -0.16899498
19
Frame=3 idx=008677 GeodesicLength=0.2580315297457143 rxn_smarts="[C:1]([C:2]1([O:3][H:11])[C:4]([H:12])([H:13])[C:5]([H:14])([H:15])[C:6]([H:16])([H:17])[C:7]1([H:18])[H:19])([H:8])([H:9])[H:10]>>[C:1]([C:2](=[O:3])[C:4]([C:5]([C:6](=[C:7]([H:18])[H:19])[H:16])([H:14])[H:15])([H:12])[H:13])([H:8])([H:9])[H:10].[H:11][H:17]"
C        2.01404827      -0.80422188      -0.51227838
C        0.90957817      -0.07512020       0.21504762
O        0.98248583      -0.08732199       1.48997837
C        0.29742094       1.17802815      -0.42497899
C       -1.18575278       1.24408741      -0.01613513
C       -1.62508414      -0.17386731       0.27071089
C       -0.85212146      -1.12866836      -0.37938262
H        2.93210810      -0.21493731      -0.43719769
H        1.79254900      -0.95473514      -1.56939710
H        2.19282928      -1.77016095      -0.04166175
H       -0.27312546      -0.15903863       2.00445137
H        0.84774135       2.05584059      -0.08132676
H        0.39614805       1.13241409      -1.51159223
H       -1.30943890       1.85758155       0.87627207
H       -1.80375638       1.69630122      -0.79601014
H       -2.64309569      -0.35795213       0.59260336
H       -1.18882333      -0.32045699       1.85574781
H       -0.48304702      -0.93709300      -1.37698780
H       -1.00066382      -2.18067913      -0.15786288
19
Frame=4 idx=008677 GeodesicLength=0.34358493655628425 rxn_smarts="[C:1]([C:2]1([O:3][H:11])[C:4]([H:12])([H:13])[C:5]([H:14])([H:15])[C:6]([H:16])([H:17])[C:7]1([H:18])[H:19])([H:8])([H:9])[H:10]>>[C:1]([C:2](=[O:3])[C:4]([C:5]([C:6](=[C:7]([H:18])[H:19])[H:16])([H:14])[H:15])([H:12])[H:13])([H:8])([H:9])[H:10].[H:11][H:17]"
C        2.02540727      -0.79565481      -0.51514691
C        0.90874313      -0.08352886       0.21032797
O        0.97729326      -0.10305062       1.48822724
C        0.29873776       1.17124964      -0.42768266
C       -1.18061697       1.24408454      -0.01084076
C       -1.63218596      -0.17208609       0.27272730
C       -0.86024946      -1.13253870      -0.37779494
H        2.93267314      -0.18886153      -0.44858293
H        1.80252983      -0.95638940      -1.57060354
H        2.22397825      -1.75624723      -0.04150487
H       -0.27258083      -0.15142539       2.02699735
H        0.85574404       2.04767085      -0.09087823
H        0.38920389       1.12125310      -1.51495607
H       -1.28866666       1.85122358       0.88813483
H       -1.80024145       1.71067934      -0.78065427
H       -2.66411490      -0.34628271       0.55307926
H       -1.20915682      -0.32007542       1.86616216
H       -0.49583850      -0.95768990      -1.38046315
H       -1.01065903      -2.18233040      -0.14654779
19
Frame=5 idx=008677 GeodesicLength=0.42889978380872074 rxn_smarts="[C:1]([C:2]1([O:3][H:11])[C:4]([H:12])([H:13])[C:5]([H:14])([H:15])[C:6]([H:16])([H:17])[C:7]1([H:18])[H:19])([H:8])([H:9])[H:10]>>[C:1]([C:2](=[O:3])[C:4]([C:5]([C:6](=[C:7]([H:18])[H:19])[H:16])([H:14])[H:15])([H:12])[H:13])([H:8])([H:9])[H:10].[H:11][H:17]"
C        2.03671038      -0.78693480      -0.51800990
C        0.90789768      -0.09208297       0.20539385
O        0.97190332      -0.11919860       1.48623330
C        0.29992268       1.16438160      -0.43037490
C       -1.17549784       1.24389567      -0.00540137
C       -1.63945903      -0.17037201       0.27493125
C       -0.86854211      -1.13643035      -0.37619232
H        2.93281441      -0.16292025      -0.45976219
H        1.81279327      -0.95789721      -1.57177555
H        2.25481965      -1.74180063      -0.04137256
H       -0.27114052      -0.14333664       2.04986125
H        0.86349287       2.03938079      -0.10041246
H        0.38201681       1.11004147      -1.51823814
H       -1.26794001       1.84438421       0.89997636
H       -1.79647585       1.72498749      -0.76489792
H       -2.68388567      -0.33403717       0.51212213
H       -1.22970559      -0.31956087       1.87671760
H       -0.50900706      -0.97861089      -1.38372020
H       -1.02071739      -2.18388884      -0.13507822
19
Frame=6 idx=008677 GeodesicLength=0.514083261355267 rxn_smarts="[C:1]([C:2]1([O:3][H:11])[C:4]([H:12])([H:13])[C:5]([H:14])([H:15])[C:6]([H:16])([H:17])[C:7]1([H:18])[H:19])([H:8])([H:9])[H:10]>>[C:1]([C:2](=[O:3])[C:4]([C:5]([C:6](=[C:7]([H:18])[H:19])[H:16])([H:14])[H:15])([H:12])[H:13])([H:8])([H:9])[H:10].[H:11][H:17]"
C        2.04794435      -0.77805965      -0.52085599
C        0.90702240      -0.10079165       0.20023665
O        0.96629270      -0.13577572       1.48398234
C        0.30096613       1.15742146      -0.43306004
C       -1.17040205       1.24351618       0.00017618
C       -1.64693872      -0.16872457       0.27728447
C       -0.87700992      -1.14034313      -0.37459446
H        2.93252990      -0.13711344      -0.47070765
H        1.82335173      -0.95924153      -1.57291128
H        2.28532763      -1.72682898      -0.04124149
H       -0.26871334      -0.13471605       2.07303895
H        0.87097308       2.03097126      -0.10992688
H        0.37458410       1.09878129      -1.52143949
H       -1.24726799       1.83704902       0.91179182
H       -1.79245024       1.73922974      -0.74873960
H       -2.70224404      -0.32122145       0.46982740
H       -1.25054457      -0.31893938       1.88738420
H       -0.52256292      -0.99986335      -1.38676398
H       -1.03085822      -2.18535008      -0.12348114
19
Frame=7 idx=008677 GeodesicLength=0.5992010567120024 rxn_smarts="[C:1]([C:2]1([O:3][H:11])[C:4]([H:12])([H:13])[C:5]([H:14])([H:15])[C:6]([H:16])([H:17])[C:7]1([H:18])[H:19])([H:8])([H:9])[H:10]>>[C:1]([C:2](=[O:3])[C:4]([C:5]([C:6](=[C:7]([H:18])[H:19])[H:16])([H:14])[H:15])([H:12])[H:13])([H:8])([H:9])[H:10].[H:11][H:17]"
C        2.05909705      -0.76902684      -0.52366991
C        0.90609761      -0.10966225       0.19484623
O        0.96042915      -0.15279249       1.48145912
C        0.30186050       1.15036849      -0.43574495
C       -1.16533750       1.24294354       0.00587870
C       -1.65465950      -0.16714142       0.27973996
C       -0.88566348      -1.14427594      -0.37302891
H        2.93181976      -0.11145163      -0.48138319
H        1.83422405      -0.96040284      -1.57400462
H        2.31546736      -1.71133910      -0.04108915
H       -0.26520307      -0.12550351       2.09651632
H        0.87817260       2.02244466      -0.11941948
H        0.36690944       1.08747702      -1.52456519
H       -1.22666595       1.82920162       0.92357514
H       -1.78815581       1.75341081      -0.73218212
H       -2.71903165      -0.30785382       0.42634283
H       -1.27174983      -0.31823676       1.89812561
H       -0.53651536      -1.02145008      -1.38960531
H       -1.04109538      -2.18670945      -0.11179107
19
Frame=8 idx=008677 GeodesicLength=0.6842883839695075 rxn_smarts="[C:1]([C:2]1([O:3][H:11])[C:4]([H:12])([H:13])[C:5]([H:14])([H:15])[C:6]([H:16])([H:17])[C:7]1([H:18])[H:19])([H:8])([H:9])[H:10]>>[C:1]([C:2](=[O:3])[C:4]([C:5]([C:6](=[C:7]([H:18])[H:19])[H:16])([H:14])[H:15])([H:12])[H:13])([H:8])([H:9])[H:10].[H:11][H:17]"
C        2.07015539      -0.75983558      -0.52643288
C        0.90510318      -0.11870062       0.18921094
O        0.95427390      -0.17025999       1.47864651
C        0.30259892       1.14322371      -0.43843840
C       -1.16031114       1.24217604       0.01168998
C       -1.66265505      -0.16561681       0.28224214
C       -0.89451441      -1.14822663      -0.37152878
H        2.93068564      -0.08594093      -0.49174662
H        1.84542859      -0.96136049      -1.57505012
H        2.34520191      -1.69534145      -0.04088604
H       -0.26050228      -0.11565305       2.12027361
H        0.88507970       2.01380492      -0.12888737
H        0.35899899       1.07613562      -1.52762128
H       -1.20615126       1.82082483       0.93531525
H       -1.78358512       1.76753417      -0.71523334
H       -2.73409383      -0.29395708       0.38185705
H       -1.29340116      -0.31747230       1.90889312
H       -0.55086904      -1.04337440      -1.39226052
H       -1.05144293      -2.18795995      -0.10004325
19
Frame=9 idx=008677 GeodesicLength=0.770162612582574 rxn_smarts="[C:1]([C:2]1([O:3][H:11])[C:4]([H:12])([H:13])[C:5]([H:14])([H:15])[C:6]([H:16])([H:17])[C:7]1([H:18])[H:19])([H:8])([H:9])[H:10]>>[C:1]([C:2](=[O:3])[C:4]([C:5]([C:6](=[C:7]([H:18])[H:19])[H:16])([H:14])[H:15])([H:12])[H:13])([H:8])([H:9])[H:10].[H:11][H:17]"
C        2.08111995      -0.75049401      -0.52915441
C        0.90403283      -0.12794140       0.18331695
O        0.94784714      -0.18825236       1.47551835
C        0.30320317       1.13597848      -0.44112050
C       -1.15530852       1.24120674       0.01761503
C       -1.67090857      -0.16415640       0.28471055
C       -0.90354709      -1.15222093      -0.37012220
H        2.92914765      -0.06060759      -0.50179261
H        1.85699862      -0.96206496      -1.57606437
H        2.37456775      -1.67886730      -0.04069637
H       -0.25432824      -0.10464591       2.14438660
H        0.89171905       2.00503559      -0.13826923
H        0.35089281       1.06477948      -1.53059288
H       -1.18574295       1.81186236       0.94704585
H       -1.77871685       1.78159616      -0.69788103
H       -2.74760676      -0.27961305       0.33648630
H       -1.31581166      -0.31681608       1.91963925
H       -0.56559968      -1.06564663      -1.39475956
H       -1.06195867      -2.18913220      -0.08826571
19
Frame=10 idx=008677 GeodesicLength=0.8560738402012905 rxn_smarts="[C:1]([C:2]1([O:3][H:11])[C:4]([H:12])([H:13])[C:5]([H:14])([H:15])[C:6]([H:16])([H:17])[C:7]1([H:18])[H:19])([H:8])([H:9])[H:10]>>[C:1]([C:2](=[O:3])[C:4]([C:5]([C:6](=[C:7]([H:18])[H:19])[H:16])([H:14])[H:15])([H:12])[H:13])([H:8])([H:9])[H:10].[H:11][H:17]"
C        2.09196737      -0.74099390      -0.53178442
C        0.90285824      -0.13736383       0.17715217
O        0.94104811      -0.20672854       1.47206111
C        0.30364309       1.12864323      -0.44382550
C       -1.15035500       1.24003983       0.02362201
C       -1.67948476      -0.16274201       0.28710639
C       -0.91279741      -1.15623341      -0.36885438
H        2.92719152      -0.03543810      -0.51143378
H        1.86894507      -0.96251758      -1.57701092
H        2.40344719      -1.66191350      -0.04040105
H       -0.24664432      -0.09282359       2.16872746
H        0.89804974       1.99615867      -0.14761426
H        0.34256857       1.05340406      -1.53350801
H       -1.16544924       1.80232908       0.95872180
H       -1.77355765       1.79559808      -0.68013659
H       -2.75920013      -0.26481607       0.29048973
H       -1.33887789      -0.31615156       1.93030209
H       -0.58074098      -1.08826220      -1.39711000
H       -1.07261152      -2.19018867      -0.07650386
19
Frame=11 idx=008677 GeodesicLength=0.9419603584786803 rxn_smarts="[C:1]([C:2]1([O:3][H:11])[C:4]([H:12])([H:13])[C:5]([H:14])([H:15])[C:6]([H:16])([H:17])[C:7]1([H:18])[H:19])([H:8])([H:9])[H:10]>>[C:1]([C:2](=[O:3])[C:4]([C:5]([C:6](=[C:7]([H:18])[H:19])[H:16])([H:14])[H:15])([H:12])[H:13])([H:8])([H:9])[H:10].[H:11][H:17]"
C        2.10268903      -0.73133473      -0.53429636
C        0.90156457      -0.14697094       0.17070380
O        0.93383314      -0.22569811       1.46825427
C        0.30391875       1.12122244      -0.44656275
C       -1.14545400       1.23867790       0.02969074
C       -1.68839437      -0.16136233       0.28936726
C       -0.92227482      -1.16026200      -0.36777007
H        2.92482757      -0.01044332      -0.52062000
H        1.88129229      -0.96269580      -1.57787917
H        2.43180171      -1.64449478      -0.03995873
H       -0.23728721      -0.08013281       2.19325104
H        0.90406778       1.98718094      -0.15691626
H        0.33404352       1.04202180      -1.53637592
H       -1.14528769       1.79220926       0.97033108
H       -1.76810389       1.80953553      -0.66201436
H       -2.76884260      -0.24961880       0.24411244
H       -1.36268902      -0.31549436       1.94082236
H       -0.59629120      -1.11121829      -1.39933750
H       -1.08341356      -2.19112162      -0.06480186
19
Frame=12 idx=008677 GeodesicLength=1.0278334029775669 rxn_smarts="[C:1]([C:2]1([O:3][H:11])[C:4]([H:12])([H:13])[C:5]([H:14])([H:15])[C:6]([H:16])([H:17])[C:7]1([H:18])[H:19])([H:8])([H:9])[H:10]>>[C:1]([C:2](=[O:3])[C:4]([C:5]([C:6](=[C:7]([H:18])[H:19])[H:16])([H:14])[H:15])([H:12])[H:13])([H:8])([H:9])[H:10].[H:11][H:17]"
C        2.11327603      -0.72151682      -0.53666703
C        0.90013751      -0.15676910       0.16395735
O        0.92616445      -0.24517714       1.46407451
C        0.30402996       1.11371893      -0.44933867
C       -1.14060808       1.23712028       0.03580470
C       -1.69764584      -0.16000906       0.29142956
C       -0.93198763      -1.16430798      -0.36691379
H        2.92206894       0.01437316      -0.52929788
H        1.89406443      -0.96257115      -1.57866051
H        2.45959099      -1.62663639      -0.03932852
H       -0.22604516      -0.06646848       2.21792073
H        0.90976885       1.97810690      -0.16616413
H        0.32533371       1.03064708      -1.53920291
H       -1.12527149       1.78148008       0.98186526
H       -1.76234789       1.82339902      -0.64351907
H       -2.77653072      -0.23407395       0.19757606
H       -1.38736988      -0.31487364       1.95113566
H       -0.61225197      -1.13451400      -1.40146758
H       -1.09437622      -2.19192774      -0.05320374
19
Frame=13 idx=008677 GeodesicLength=1.1136442515952 rxn_smarts="[C:1]([C:2]1([O:3][H:11])[C:4]([H:12])([H:13])[C:5]([H:14])([H:15])[C:6]([H:16])([H:17])[C:7]1([H:18])[H:19])([H:8])([H:9])[H:10]>>[C:1]([C:2](=[O:3])[C:4]([C:5]([C:6](=[C:7]([H:18])[H:19])[H:16])([H:14])[H:15])([H:12])[H:13])([H:8])([H:9])[H:10].[H:11][H:17]"
C        2.12371866      -0.71154227      -0.53886822
C        0.89856396      -0.16676332       0.15689960
O        0.91799949      -0.26517769       1.45949936
C        0.30397760       1.10613590      -0.45215936
C       -1.13582156       1.23536618       0.04194828
C       -1.70724394      -0.15867512       0.29323365
C       -0.94194445      -1.16837218      -0.36633198
H        2.91892387       0.03900260      -0.53741278
H        1.90728722      -0.96211911      -1.57933746
H        2.48677439      -1.60835804      -0.03846674
H       -0.21267810      -0.05173447       2.24268798
H        0.91514980       1.96894137      -0.17534619
H        0.31645730       1.01929453      -1.54199763
H       -1.10542017       1.77011622       0.99331832
H       -1.75628537       1.83717647      -0.62465531
H       -2.78228862      -0.21823117       0.15109363
H       -1.41303856      -0.31431175       1.96117852
H       -0.62862404      -1.15814307      -1.40353083
H       -1.10550748      -2.19260509      -0.04175285
19
Frame=14 idx=008677 GeodesicLength=1.1993412944770794 rxn_smarts="[C:1]([C:2]1([O:3][H:11])[C:4]([H:12])([H:13])[C:5]([H:14])([H:15])[C:6]([H:16])([H:17])[C:7]1([H:18])[H:19])([H:8])([H:9])[H:10]>>[C:1]([C:2](=[O:3])[C:4]([C:5]([C:6](=[C:7]([H:18])[H:19])[H:16])([H:14])[H:15])([H:12])[H:13])([H:8])([H:9])[H:10].[H:11][H:17]"
C        2.13400706      -0.70141492      -0.54086959
C        0.89683032      -0.17695998       0.14951714
O        0.90930070      -0.28571320       1.45450605
C        0.30376202       1.09847657      -0.45502799
C       -1.13109610       1.23341199       0.04810973
C       -1.71719042      -0.15735382       0.29472186
C       -0.95215421      -1.17245634      -0.36606994
H        2.91541059       0.06343756      -0.54490562
H        1.92098010      -0.96130650      -1.57990263
H        2.51331509      -1.58968841      -0.03732360
H       -0.19690619      -0.03581428       2.26750309
H        0.92020783       1.95969013      -0.18444514
H        0.30743174       1.00798009      -1.54476458
H       -1.08575474       1.75808749       1.00468610
H       -1.74991585       1.85084871      -0.60542766
H       -2.78617335      -0.20213936       0.10485030
H       -1.43982668      -0.31383235       1.97088918
H       -0.64541208      -1.18210345      -1.40555302
H       -1.11681582      -2.19314994      -0.03049369
19
Frame=15 idx=008677 GeodesicLength=1.2848730012065512 rxn_smarts="[C:1]([C:2]1([O:3][H:11])[C:4]([H:12])([H:13])[C:5]([H:14])([H:15])[C:6]([H:16])([H:17])[C:7]1([H:18])[H:19])([H:8])([H:9])[H:10]>>[C:1]([C:2](=[O:3])[C:4]([C:5]([C:6](=[C:7]([H:18])[H:19])[H:16])([H:14])[H:15])([H:12])[H:13])([H:8])([H:9])[H:10].[H:11][H:17]"
C        2.14413014      -0.69113834      -0.54263851
C        0.89492287      -0.18736560       0.14179782
O        0.90002542      -0.30679725       1.44907245
C        0.30338250       1.09074362      -0.45794539
C       -1.12643679       1.23125221       0.05428121
C       -1.72748730      -0.15604218       0.29583791
C       -0.96262532      -1.17656323      -0.36617492
H        2.91154130       0.08766643      -0.55171537
H        1.93516529      -0.96010411      -1.58033718
H        2.53916827      -1.57065497      -0.03584680
H       -0.17839204      -0.01856732       2.29230397
H        0.92493887       1.95035776      -0.19344023
H        0.29827403       0.99672109      -1.54750819
H       -1.06630044       1.74535667       1.01597152
H       -1.74324117       1.86439341      -0.58583164
H       -2.78825465      -0.18584480       0.05900407
H       -1.46788150      -0.31346218       1.98020418
H       -0.66262156      -1.20638815      -1.40756527
H       -1.12830794      -2.19356306      -0.01946962
19
Frame=16 idx=008677 GeodesicLength=1.3701539077050233 rxn_smarts="[C:1]([C:2]1([O:3][H:11])[C:4]([H:12])([H:13])[C:5]([H:14])([H:15])[C:6]([H:16])([H:17])[C:7]1([H:18])[H:19])([H:8])([H:9])[H:10]>>[C:1]([C:2](=[O:3])[C:4]([C:5]([C:6](=[C:7]([H:18])[H:19])[H:16])([H:14])[H:15])([H:12])[H:13])([H:8])([H:9])[H:10].[H:11][H:17]"
C        2.15407461      -0.68071793      -0.54413649
C        0.89282671      -0.19798642       0.13373114
O        0.89012851      -0.32843764       1.44317821
C        0.30283605       1.08293933      -0.46091097
C       -1.12185000       1.22887896       0.06045781
C       -1.73813679      -0.15473911       0.29652976
C       -0.97336851      -1.18069602      -0.36669370
H        2.90733058       0.11168053      -0.55777141
H        1.94986114      -0.95847995      -1.58062122
H        2.56428837      -1.55128970      -0.03397423
H       -0.15674786       0.00014339       2.31700789
H        0.92933667       1.94094942      -0.20230933
H        0.28899881       0.98553426      -1.55023149
H       -1.04708485       1.73188191       1.02717949
H       -1.73626682       1.87778559      -0.56586012
H       -2.78862062      -0.16939084       0.01368481
H       -1.49735351      -0.31322109       1.98906278
H       -0.68026263      -1.23098889      -1.40959795
H       -1.13998985      -2.19384581      -0.00872497
