14
Frame=0 idx=007117 GeodesicLength=0.0 rxn_smarts="[N:1](=[C:2]1\[O:3][C:4]([H:9])([H:10])[C@@:5]2([H:11])[C:6]([H:12])([H:13])[C@@:7]12[H:14])\[H:8]>>[N:1](=[C-:2][C@@:7]1([H:14])[C+:5]([C:4]([O:3][H:11])([H:9])[H:10])[C:6]1([H:12])[H:13])[H:8]"
N        1.86895581      -1.52993438       0.28569372
C        0.93284776      -0.71808777       0.30694773
O        1.17881452       0.73861749       0.60692624
C        0.19851778       1.31111149      -0.37819086
C       -1.00598521       0.69671274       0.29786712
C       -1.59713198      -0.33693969      -0.61278411
C       -0.53132397      -0.80440776       0.33008996
H        2.77095368      -1.10870816       0.48799993
H        0.50897599       0.96190916      -1.37096497
H        0.27505701       2.39213177      -0.29847057
H        0.22499266       0.84425795       1.27851546
H       -1.37162600      -0.26874198      -1.67145414
H       -2.57908616      -0.74948194      -0.41023906
H       -0.87396192      -1.42843890       1.14806353
14
Frame=1 idx=007117 GeodesicLength=0.09757575408741605 rxn_smarts="[N:1](=[C:2]1\[O:3][C:4]([H:9])([H:10])[C@@:5]2([H:11])[C:6]([H:12])([H:13])[C@@:7]12[H:14])\[H:8]>>[N:1](=[C-:2][C@@:7]1([H:14])[C+:5]([C:4]([O:3][H:11])([H:9])[H:10])[C:6]1([H:12])[H:13])[H:8]"
N        1.86482790      -1.53685760       0.27572538
C        0.92619117      -0.72994116       0.31009638
O        1.18072916       0.74871987       0.60667907
C        0.20257858       1.31359218      -0.37821945
C       -1.00133730       0.69463402       0.29592443
C       -1.59058777      -0.33845226      -0.61330031
C       -0.53452049      -0.81020802       0.34033081
H        2.76786203      -1.11191982       0.46629920
H        0.51670074       0.97332186      -1.37248669
H        0.26769791       2.39568615      -0.29657007
H        0.21150266       0.86343368       1.29204143
H       -1.35251378      -0.28857503      -1.67050048
H       -2.57697320      -0.74174863      -0.41377713
H       -0.88215761      -1.43168525       1.15775743
14
Frame=2 idx=007117 GeodesicLength=0.19509804723214402 rxn_smarts="[N:1](=[C:2]1\[O:3][C:4]([H:9])([H:10])[C@@:5]2([H:11])[C:6]([H:12])([H:13])[C@@:7]12[H:14])\[H:8]>>[N:1](=[C-:2][C@@:7]1([H:14])[C+:5]([C:4]([O:3][H:11])([H:9])[H:10])[C:6]1([H:12])[H:13])[H:8]"
N        1.86063320      -1.54397869       0.26590127
C        0.91954246      -0.74213471       0.31297295
O        1.18281075       0.75892479       0.60651251
C        0.20678975       1.31603431      -0.37819471
C       -0.99647531       0.69243263       0.29404209
C       -1.58385380      -0.34004928      -0.61379161
C       -0.53767966      -0.81604373       0.35058844
H        2.76449833      -1.11507315       0.44430174
H        0.52449115       0.98489265      -1.37395786
H        0.26036498       2.39910269      -0.29476820
H        0.19730496       0.88323159       1.30554315
H       -1.33351233      -0.30825679      -1.66912182
H       -2.57459149      -0.73408788      -0.41743367
H       -0.89032299      -1.43499444       1.16740573
14
Frame=3 idx=007117 GeodesicLength=0.29257927118939947 rxn_smarts="[N:1](=[C:2]1\[O:3][C:4]([H:9])([H:10])[C@@:5]2([H:11])[C:6]([H:12])([H:13])[C@@:7]12[H:14])\[H:8]>>[N:1](=[C-:2][C@@:7]1([H:14])[C+:5]([C:4]([O:3][H:11])([H:9])[H:10])[C:6]1([H:12])[H:13])[H:8]"
N        1.85643162      -1.55128717       0.25601881
C        0.91293228      -0.75468405       0.31541945
O        1.18510259       0.76923586       0.60633180
C        0.21113188       1.31845364      -0.37813892
C       -0.99137034       0.69009271       0.29225213
C       -1.57696322      -0.34171591      -0.61421979
C       -0.54075803      -0.82192990       0.36080220
H        2.76082939      -1.11827332       0.42254099
H        0.53226519       0.99667245      -1.37542788
H        0.25303338       2.40239248      -0.29306612
H        0.18241463       0.90366494       1.31896635
H       -1.31474061      -0.32771028      -1.66732255
H       -2.57195338      -0.72649897      -0.42110735
H       -0.89835539      -1.43841249       1.17695090
14
Frame=4 idx=007117 GeodesicLength=0.39004560866589855 rxn_smarts="[N:1](=[C:2]1\[O:3][C:4]([H:9])([H:10])[C@@:5]2([H:11])[C:6]([H:12])([H:13])[C@@:7]12[H:14])\[H:8]>>[N:1](=[C-:2][C@@:7]1([H:14])[C+:5]([C:4]([O:3][H:11])([H:9])[H:10])[C:6]1([H:12])[H:13])[H:8]"
N        1.85221528      -1.55881206       0.24627396
C        0.90633037      -0.76762187       0.31753251
O        1.18758854       0.77965145       0.60623321
C        0.21564170       1.32082338      -0.37801947
C       -0.98602196       0.68761581       0.29054136
C       -1.56989746      -0.34345957      -0.61459816
C       -0.54377701      -0.82786810       0.37100435
H        2.75689767      -1.12142349       0.40055669
H        0.54009928       1.00860819      -1.37683711
H        0.24574476       2.40552799      -0.29146547
H        0.16669499       0.92480727       1.33232639
H       -1.29614185      -0.34695825      -1.66513005
H       -2.56905397      -0.71897300      -0.42484314
H       -0.90632035      -1.44191776       1.18642493
14
Frame=5 idx=007117 GeodesicLength=0.48751971746415507 rxn_smarts="[N:1](=[C:2]1\[O:3][C:4]([H:9])([H:10])[C@@:5]2([H:11])[C:6]([H:12])([H:13])[C@@:7]12[H:14])\[H:8]>>[N:1](=[C-:2][C@@:7]1([H:14])[C+:5]([C:4]([O:3][H:11])([H:9])[H:10])[C:6]1([H:12])[H:13])[H:8]"
N        1.84804741      -1.56653811       0.23638978
C        0.89977363      -0.78096382       0.31911768
O        1.19032446       0.79017504       0.60609103
C        0.22029311       1.32316496      -0.37786514
C       -0.98039757       0.68498499       0.28894899
C       -1.56270011      -0.34525859      -0.61488127
C       -0.54668351      -0.83387741       0.38112196
H        2.75268412      -1.12465897       0.37903771
H        0.54788826       1.02076347      -1.37824954
H        0.23846802       2.40852506      -0.28996506
H        0.15016579       0.94666763       1.34555840
H       -1.27786222      -0.36591255      -1.66255174
H       -2.56591062      -0.71150511      -0.42851346
H       -0.91409078      -1.44556658       1.19576067
14
Frame=6 idx=007117 GeodesicLength=0.5850091325753501 rxn_smarts="[N:1](=[C:2]1\[O:3][C:4]([H:9])([H:10])[C@@:5]2([H:11])[C:6]([H:12])([H:13])[C@@:7]12[H:14])\[H:8]>>[N:1](=[C-:2][C@@:7]1([H:14])[C+:5]([C:4]([O:3][H:11])([H:9])[H:10])[C:6]1([H:12])[H:13])[H:8]"
N        1.84392122      -1.57449491       0.22659645
C        0.89322751      -0.79474598       0.32030027
O        1.19328680       0.80080529       0.60602849
C        0.22513051       1.32544538      -0.37763603
C       -0.97449470       0.68220092       0.28746299
C       -1.55534769      -0.34712134      -0.61508440
C       -0.54950343      -0.83996207       0.39119515
H        2.74822952      -1.12786390       0.35742082
H        0.55572940       1.03306947      -1.37959100
H        0.23125377       2.41135032      -0.28856924
H        0.13266162       0.96933652       1.35866892
H       -1.25983052      -0.38460243      -1.65961604
H       -2.56251687      -0.70408221      -0.43217379
H       -0.92174714      -1.44933506       1.20499742
14
Frame=7 idx=007117 GeodesicLength=0.6825454364349262 rxn_smarts="[N:1](=[C:2]1\[O:3][C:4]([H:9])([H:10])[C@@:5]2([H:11])[C:6]([H:12])([H:13])[C@@:7]12[H:14])\[H:8]>>[N:1](=[C-:2][C@@:7]1([H:14])[C+:5]([C:4]([O:3][H:11])([H:9])[H:10])[C:6]1([H:12])[H:13])[H:8]"
N        1.83988187      -1.58268057       0.21672934
C        0.88670910      -0.80899603       0.32095967
O        1.19651294       0.81154298       0.60598740
C        0.23014990       1.32767038      -0.37734149
C       -0.96828444       0.67925080       0.28611185
C       -1.54786761      -0.34903176      -0.61517495
C       -0.55219980      -0.84613890       0.40118011
H        2.74354045      -1.13110975       0.33608895
H        0.56357215       1.04555443      -1.38088695
H        0.22409565       2.41400665      -0.28727625
H        0.11412921       0.99285432       1.37159730
H       -1.24214098      -0.40296994      -1.65633750
H       -2.55888884      -0.69669220      -0.43573455
H       -0.92920961      -1.45326042       1.21409707
14
Frame=8 idx=007117 GeodesicLength=0.7801342350576288 rxn_smarts="[N:1](=[C:2]1\[O:3][C:4]([H:9])([H:10])[C@@:5]2([H:11])[C:6]([H:12])([H:13])[C@@:7]12[H:14])\[H:8]>>[N:1](=[C-:2][C@@:7]1([H:14])[C+:5]([C:4]([O:3][H:11])([H:9])[H:10])[C:6]1([H:12])[H:13])[H:8]"
N        1.83592772      -1.59112234       0.20696887
C        0.88019171      -0.82374914       0.32120040
O        1.19999138       0.82238503       0.60607779
C        0.23539572       1.32981014      -0.37693897
C       -0.96175934       0.67613306       0.28489256
C       -1.54023761      -0.35099584      -0.61516079
C       -0.55479062      -0.85241472       0.41111338
H        2.73863599      -1.13429324       0.31455878
H        0.57150780       1.05815620      -1.38206563
H        0.21704510       2.41646322      -0.28609016
H        0.09438682       1.01731402       1.38432165
H       -1.22473502      -0.42103892      -1.65274343
H       -2.55501700      -0.68932201      -0.43923015
H       -0.93654264      -1.45732545       1.22309572
14
Frame=9 idx=007117 GeodesicLength=0.8778489861070699 rxn_smarts="[N:1](=[C:2]1\[O:3][C:4]([H:9])([H:10])[C@@:5]2([H:11])[C:6]([H:12])([H:13])[C@@:7]12[H:14])\[H:8]>>[N:1](=[C-:2][C@@:7]1([H:14])[C+:5]([C:4]([O:3][H:11])([H:9])[H:10])[C:6]1([H:12])[H:13])[H:8]"
N        1.83214698      -1.59979326       0.19669615
C        0.87372651      -0.83904774       0.32057833
O        1.20382244       0.83332317       0.60606137
C        0.24081551       1.33191791      -0.37646805
C       -0.95487107       0.67282258       0.28386325
C       -1.53254006      -0.35297870      -0.61495629
C       -0.55716378      -0.85881084       0.42087608
H        2.73353847      -1.13771674       0.29425616
H        0.57932410       1.07101583      -1.38323893
H        0.21004445       2.41876602      -0.28497931
H        0.07345266       1.04274720       1.39664875
H       -1.20787252      -0.43865353      -1.64882871
H       -2.55094795      -0.68197394      -0.44240614
H       -0.94347574      -1.46161797       1.23189735
14
Frame=10 idx=007117 GeodesicLength=0.9756110842826906 rxn_smarts="[N:1](=[C:2]1\[O:3][C:4]([H:9])([H:10])[C@@:5]2([H:11])[C:6]([H:12])([H:13])[C@@:7]12[H:14])\[H:8]>>[N:1](=[C-:2][C@@:7]1([H:14])[C+:5]([C:4]([O:3][H:11])([H:9])[H:10])[C:6]1([H:12])[H:13])[H:8]"
N        1.82850374      -1.60872529       0.18634698
C        0.86726672      -0.85491403       0.31941071
O        1.20795585       0.84436573       0.60615913
C        0.24648382       1.33393129      -0.37587462
C       -0.94761412       0.66932263       0.28301463
C       -1.52472585      -0.35498746      -0.61459620
C       -0.55937960      -0.86534075       0.43054227
H        2.72827513      -1.14113284       0.27408658
H        0.58721386       1.08399219      -1.38428561
H        0.20317362       2.42085520      -0.28397023
H        0.05109834       1.06923889       1.40862146
H       -1.19140395      -0.45589577      -1.64463413
H       -2.54665909      -0.67460920      -0.44538589
H       -0.95018847      -1.46610059       1.24056494
14
Frame=11 idx=007117 GeodesicLength=1.073411452799654 rxn_smarts="[N:1](=[C:2]1\[O:3][C:4]([H:9])([H:10])[C@@:5]2([H:11])[C:6]([H:12])([H:13])[C@@:7]12[H:14])\[H:8]>>[N:1](=[C-:2][C@@:7]1([H:14])[C+:5]([C:4]([O:3][H:11])([H:9])[H:10])[C:6]1([H:12])[H:13])[H:8]"
N        1.82502208      -1.61792496       0.17589734
C        0.86080688      -0.87138127       0.31768823
O        1.21240822       0.85551319       0.60639729
C        0.25242275       1.33583872      -0.37513840
C       -0.93996215       0.66562269       0.28236777
C       -1.51680022      -0.35701260      -0.61406141
C       -0.56142334      -0.87202086       0.44010636
H        2.72285933      -1.14453676       0.25402759
H        0.59519855       1.09706496      -1.38517941
H        0.19645579       2.42271610      -0.28305951
H        0.02718312       1.09686310       1.42016501
H       -1.17535252      -0.47274931      -1.64017593
H       -2.54215482      -0.66720518      -0.44813192
H       -0.95666367      -1.47078782       1.24909700
14
Frame=12 idx=007117 GeodesicLength=1.1712383249621254 rxn_smarts="[N:1](=[C:2]1\[O:3][C:4]([H:9])([H:10])[C@@:5]2([H:11])[C:6]([H:12])([H:13])[C@@:7]12[H:14])\[H:8]>>[N:1](=[C-:2][C@@:7]1([H:14])[C+:5]([C:4]([O:3][H:11])([H:9])[H:10])[C:6]1([H:12])[H:13])[H:8]"
N        1.82172674      -1.62739708       0.16525516
C        0.85434728      -0.88848461       0.31535370
O        1.21720702       0.86676484       0.60677885
C        0.25864938       1.33763449      -0.37424215
C       -0.93188451       0.66170998       0.28195187
C       -1.50877600      -0.35903941      -0.61332388
C       -0.56326943      -0.87887067       0.44955287
H        2.71730854      -1.14795155       0.23420731
H        0.60327860       1.11023094      -1.38590399
H        0.18990940       2.42433941      -0.28224127
H        0.00156954       1.12569009       1.43117326
H       -1.15976731      -0.48918160      -1.63546841
H       -2.53744254      -0.65974054      -0.45057849
H       -0.96285672      -1.47570428       1.25748518
14
Frame=13 idx=007117 GeodesicLength=1.2690714584073055 rxn_smarts="[N:1](=[C:2]1\[O:3][C:4]([H:9])([H:10])[C@@:5]2([H:11])[C:6]([H:12])([H:13])[C@@:7]12[H:14])\[H:8]>>[N:1](=[C-:2][C@@:7]1([H:14])[C+:5]([C:4]([O:3][H:11])([H:9])[H:10])[C:6]1([H:12])[H:13])[H:8]"
N        1.81864144      -1.63713684       0.15425131
C        0.84789654      -0.90625656       0.31229766
O        1.22239132       0.87811951       0.60726865
C        0.26516993       1.33931975      -0.37318265
C       -0.92334387       0.65757037       0.28180383
C       -1.50067933      -0.36104508      -0.61234649
C       -0.56487732      -0.88591424       0.45884670
H        2.71166101      -1.15143734       0.21495260
H        0.61142427       1.12350243      -1.38646671
H        0.18354057       2.42572351      -0.28150586
H       -0.02585654       1.15577100       1.44152959
H       -1.14473423      -0.50514037      -1.63052935
H       -2.53254275      -0.65218826      -0.45262362
H       -0.96869104      -1.48088788       1.26570434
14
Frame=14 idx=007117 GeodesicLength=1.3668865573346551 rxn_smarts="[N:1](=[C:2]1\[O:3][C:4]([H:9])([H:10])[C@@:5]2([H:11])[C:6]([H:12])([H:13])[C@@:7]12[H:14])\[H:8]>>[N:1](=[C-:2][C@@:7]1([H:14])[C+:5]([C:4]([O:3][H:11])([H:9])[H:10])[C:6]1([H:12])[H:13])[H:8]"
N        1.81577503      -1.64715927       0.14295266
C        0.84143642      -0.92474084       0.30856322
O        1.22797019       0.88957531       0.60795708
C        0.27203099       1.34087040      -0.37191163
C       -0.91430958       0.65319290       0.28194981
C       -1.49249713      -0.36302200      -0.61111131
C       -0.56624051      -0.89317064       0.46800905
H        2.70591615      -1.15493065       0.19597977
H        0.61971095       1.13682898      -1.38679874
H        0.17739911       2.42684319      -0.28084845
H       -0.05532717       1.18720038       1.45109659
H       -1.13023593      -0.52062512      -1.62536955
H       -2.52744814      -0.64451881      -0.45424732
H       -0.97418039      -1.48634383       1.27377882
14
Frame=15 idx=007117 GeodesicLength=1.4646633600309853 rxn_smarts="[N:1](=[C:2]1\[O:3][C:4]([H:9])([H:10])[C@@:5]2([H:11])[C:6]([H:12])([H:13])[C@@:7]12[H:14])\[H:8]>>[N:1](=[C-:2][C@@:7]1([H:14])[C+:5]([C:4]([O:3][H:11])([H:9])[H:10])[C:6]1([H:12])[H:13])[H:8]"
N        1.81313340      -1.65747982       0.13142541
C        0.83495019      -0.94398195       0.30418853
O        1.23395660       0.90112913       0.60893939
C        0.27928447       1.34226134      -0.37037682
C       -0.90474549       0.64856556       0.28242170
C       -1.48421238      -0.36496071      -0.60959585
C       -0.56734841      -0.90066027       0.47706255
H        2.70005584      -1.15836096       0.17699483
H        0.62822271       1.15015758      -1.38682708
H        0.17153986       2.42767371      -0.28026071
H       -0.08709874       1.22007051       1.45970930
H       -1.11625437      -0.53563296      -1.61999521
H       -2.52214935      -0.63670266      -0.45541977
H       -0.97933435      -1.49207850       1.28173374
14
Frame=16 idx=007117 GeodesicLength=1.5623700957690227 rxn_smarts="[N:1](=[C:2]1\[O:3][C:4]([H:9])([H:10])[C@@:5]2([H:11])[C:6]([H:12])([H:13])[C@@:7]12[H:14])\[H:8]>>[N:1](=[C-:2][C@@:7]1([H:14])[C+:5]([C:4]([O:3][H:11])([H:9])[H:10])[C:6]1([H:12])[H:13])[H:8]"
N        1.81072888      -1.66810692       0.11965476
C        0.82842999      -0.96402404       0.29916240
O        1.24037625       0.91277815       0.61027921
C        0.28697365       1.34347494      -0.36853091
C       -0.89460686       0.64367282       0.28326667
C       -1.47582013      -0.36684214      -0.60776336
C       -0.56817688      -0.90840925       0.48601297
H        2.69407141      -1.16169492       0.15789273
H        0.63701434       1.16345258      -1.38649398
H        0.16600924       2.42819631      -0.27973018
H       -0.12141873       1.25445755       1.46715456
H       -1.10280793      -0.55013814      -1.61440762
H       -2.51664404      -0.62870250      -0.45607655
H       -0.98412920      -1.49811446       1.28957929
