11
Frame=0 idx=002685 GeodesicLength=0.0 rxn_smarts="[C:1]([C:2]([C:3](=[O:4])[C:5]#[N:6])([H:10])[H:11])([H:7])([H:8])[H:9]>>[C:1]([C:2]([N:6]=[C:5]=[C:3]=[O:4])([H:10])[H:11])([H:7])([H:8])[H:9]"
C       -1.64432372       0.09147770      -0.76867220
C       -0.26454998       0.03211110      -0.24354812
C        1.56323228      -0.19338884       1.55227953
O        1.82477592      -0.33916560       2.67345762
C        2.26625387      -0.01671962       0.26579501
N        1.94902572       0.13295296      -0.86708835
H       -2.34332182      -0.09160831       0.05876306
H       -1.82786049      -0.68509808      -1.51187982
H       -1.88536626       1.06971947      -1.18363599
H        0.17409756       0.92871438       0.14089120
H        0.18803696      -0.92899511      -0.11636197
11
Frame=1 idx=002685 GeodesicLength=0.059424722507792294 rxn_smarts="[C:1]([C:2]([C:3](=[O:4])[C:5]#[N:6])([H:10])[H:11])([H:7])([H:8])[H:9]>>[C:1]([C:2]([N:6]=[C:5]=[C:3]=[O:4])([H:10])[H:11])([H:7])([H:8])[H:9]"
C       -1.63509543       0.08932397      -0.75639058
C       -0.24388529       0.04380581      -0.25063867
C        1.54090154      -0.16132115       1.54438705
O        1.78737187      -0.34504803       2.66453370
C        2.26836283      -0.03014133       0.26839697
N        1.96162635       0.09307558      -0.87133039
H       -2.31986138      -0.14994316       0.06800588
H       -1.80735741      -0.65469092      -1.53461183
H       -1.91036206       1.07860803      -1.12084732
H        0.18573932       0.96736494       0.08136668
H        0.17255966      -0.93103374      -0.09287149
11
Frame=2 idx=002685 GeodesicLength=0.1188172873038544 rxn_smarts="[C:1]([C:2]([C:3](=[O:4])[C:5]#[N:6])([H:10])[H:11])([H:7])([H:8])[H:9]>>[C:1]([C:2]([N:6]=[C:5]=[C:3]=[O:4])([H:10])[H:11])([H:7])([H:8])[H:9]"
C       -1.62545336       0.08737530      -0.74446265
C       -0.22439640       0.05329134      -0.25487577
C        1.52152725      -0.13180558       1.53543089
O        1.75045380      -0.34764157       2.65472098
C        2.26992745      -0.04263178       0.27028062
N        1.97138774       0.05627086      -0.87476946
H       -2.29696217      -0.20529656       0.07299403
H       -1.78807569      -0.62217491      -1.55607405
H       -1.93109183       1.08507773      -1.05829794
H        0.19576963       1.00050795       0.02405993
H        0.15691357      -0.93297279      -0.06900658
11
Frame=3 idx=002685 GeodesicLength=0.17831197338236296 rxn_smarts="[C:1]([C:2]([C:3](=[O:4])[C:5]#[N:6])([H:10])[H:11])([H:7])([H:8])[H:9]>>[C:1]([C:2]([N:6]=[C:5]=[C:3]=[O:4])([H:10])[H:11])([H:7])([H:8])[H:9]"
C       -1.61564931       0.08555828      -0.73268403
C       -0.20541259       0.06107006      -0.25807571
C        1.50383073      -0.10490249       1.52565767
O        1.71332593      -0.34659577       2.64462232
C        2.27126619      -0.05472622       0.27213183
N        1.97991573       0.02208536      -0.87724433
H       -2.27386002      -0.25846863       0.07493713
H       -1.77079478      -0.58741658      -1.57614264
H       -1.94885288       1.08934971      -0.99489249
H        0.20473406       1.02872318      -0.03234397
H        0.14149694      -0.93467691      -0.04596577
11
Frame=4 idx=002685 GeodesicLength=0.23762760270631733 rxn_smarts="[C:1]([C:2]([C:3](=[O:4])[C:5]#[N:6])([H:10])[H:11])([H:7])([H:8])[H:9]>>[C:1]([C:2]([N:6]=[C:5]=[C:3]=[O:4])([H:10])[H:11])([H:7])([H:8])[H:9]"
C       -1.60568637       0.08411201      -0.72207859
C       -0.18862026       0.06795893      -0.25605274
C        1.48990019      -0.07978035       1.51565735
O        1.68121343      -0.34399789       2.63394794
C        2.27177010      -0.06629263       0.27250382
N        1.98406244      -0.01050715      -0.87978278
H       -2.25368274      -0.30943589       0.07045537
H       -1.75146297      -0.55089441      -1.59596050
H       -1.96336841       1.09132916      -0.93411700
H        0.21122384       1.05306398      -0.08502400
H        0.12465076      -0.93555576      -0.01954886
11
Frame=5 idx=002685 GeodesicLength=0.2970772205220402 rxn_smarts="[C:1]([C:2]([C:3](=[O:4])[C:5]#[N:6])([H:10])[H:11])([H:7])([H:8])[H:9]>>[C:1]([C:2]([N:6]=[C:5]=[C:3]=[O:4])([H:10])[H:11])([H:7])([H:8])[H:9]"
C       -1.59577616       0.08262292      -0.71141191
C       -0.17155764       0.07382502      -0.25515340
C        1.47618068      -0.05674849       1.50522286
O        1.64808343      -0.33913671       2.62339308
C        2.27232336      -0.07741129       0.27365393
N        1.98870129      -0.04076609      -0.88119433
H       -2.23244006      -0.35808974       0.06470408
H       -1.73518425      -0.51287845      -1.61351446
H       -1.97593790       1.09106995      -0.87239665
H        0.21703491       1.07333517      -0.13819920
H        0.10857234      -0.93582228       0.00489601
11
Frame=6 idx=002685 GeodesicLength=0.35640235160036293 rxn_smarts="[C:1]([C:2]([C:3](=[O:4])[C:5]#[N:6])([H:10])[H:11])([H:7])([H:8])[H:9]>>[C:1]([C:2]([N:6]=[C:5]=[C:3]=[O:4])([H:10])[H:11])([H:7])([H:8])[H:9]"
C       -1.58595353       0.08126361      -0.70158424
C       -0.15566383       0.07934046      -0.25172262
C        1.46464939      -0.03538039       1.49477331
O        1.61820504      -0.33329223       2.61275799
C        2.27251509      -0.08823863       0.27422456
N        1.99113802      -0.06933040      -0.88238110
H       -2.21273855      -0.40436325       0.05489929
H       -1.71852838      -0.47395164      -1.62988008
H       -1.98646308       1.08856879      -0.81283236
H        0.22099378       1.09038902      -0.18907779
H        0.09184606      -0.93500534       0.03082303
11
Frame=7 idx=002685 GeodesicLength=0.4157944692586526 rxn_smarts="[C:1]([C:2]([C:3](=[O:4])[C:5]#[N:6])([H:10])[H:11])([H:7])([H:8])[H:9]>>[C:1]([C:2]([N:6]=[C:5]=[C:3]=[O:4])([H:10])[H:11])([H:7])([H:8])[H:9]"
C       -1.57627155       0.07998221      -0.69208456
C       -0.14013803       0.08448582      -0.24780882
C        1.45411851      -0.01539892       1.48424083
O        1.58949793      -0.32619140       2.60224227
C        2.27260079      -0.09890915       0.27492257
N        1.99293324      -0.09648871      -0.88303198
H       -2.19326537      -0.44883783       0.04252911
H       -1.70287878      -0.43372985      -1.64464253
H       -1.99550243       1.08394738      -0.75376741
H        0.22378203       1.10427163      -0.23931381
H        0.07512365      -0.93313118       0.05671434
11
Frame=8 idx=002685 GeodesicLength=0.47542869124427656 rxn_smarts="[C:1]([C:2]([C:3](=[O:4])[C:5]#[N:6])([H:10])[H:11])([H:7])([H:8])[H:9]>>[C:1]([C:2]([N:6]=[C:5]=[C:3]=[O:4])([H:10])[H:11])([H:7])([H:8])[H:9]"
C       -1.56674440       0.07879590      -0.68261057
C       -0.12447359       0.08915675      -0.24471255
C        1.44376010       0.00345433       1.47360024
O        1.56060987      -0.31786472       2.59189407
C        2.27273582      -0.10927794       0.27627130
N        1.99514643      -0.12243235      -0.88289346
H       -2.17322315      -0.49170846       0.02853318
H       -1.68929905      -0.39206573      -1.65744034
H       -2.00320056       1.07726360      -0.69409742
H        0.22581609       1.11498068      -0.29009966
H        0.05887244      -0.93030206       0.08155520
11
Frame=9 idx=002685 GeodesicLength=0.5351746888874812 rxn_smarts="[C:1]([C:2]([C:3](=[O:4])[C:5]#[N:6])([H:10])[H:11])([H:7])([H:8])[H:9]>>[C:1]([C:2]([N:6]=[C:5]=[C:3]=[O:4])([H:10])[H:11])([H:7])([H:8])[H:9]"
C       -1.55739625       0.07763064      -0.67333287
C       -0.10880518       0.09332402      -0.24225409
C        1.43365546       0.02117020       1.46291378
O        1.53214393      -0.30834740       2.58176663
C        2.27287602      -0.11939553       0.27816315
N        1.99760802      -0.14702512      -0.88208150
H       -2.15301559      -0.53275233       0.01275024
H       -1.67766343      -0.34917801      -1.66837297
H       -2.00927449       1.06854944      -0.63433900
H        0.22691480       1.12260287      -0.34080451
H        0.04295672      -0.92657881       0.10559113
11
Frame=10 idx=002685 GeodesicLength=0.5949197503264764 rxn_smarts="[C:1]([C:2]([C:3](=[O:4])[C:5]#[N:6])([H:10])[H:11])([H:7])([H:8])[H:9]>>[C:1]([C:2]([N:6]=[C:5]=[C:3]=[O:4])([H:10])[H:11])([H:7])([H:8])[H:9]"
C       -1.54822390       0.07648692      -0.66455899
C       -0.09351730       0.09740439      -0.23941902
C        1.42434767       0.03768236       1.45235234
O        1.50525669      -0.29862223       2.57177644
C        2.27290984      -0.12924852       0.28018632
N        1.99957050      -0.17003642      -0.88090690
H       -2.13325755      -0.57134792      -0.00492479
H       -1.66700059      -0.30623354      -1.67740963
H       -2.01380923       1.05790801      -0.57639169
H        0.22668757       1.12766978      -0.39033310
H        0.02703631      -0.92166283       0.12962901
11
Frame=11 idx=002685 GeodesicLength=0.6552200884346926 rxn_smarts="[C:1]([C:2]([C:3](=[O:4])[C:5]#[N:6])([H:10])[H:11])([H:7])([H:8])[H:9]>>[C:1]([C:2]([N:6]=[C:5]=[C:3]=[O:4])([H:10])[H:11])([H:7])([H:8])[H:9]"
C       -1.53926343       0.07534149      -0.65483071
C       -0.07677238       0.09988933      -0.24109951
C        1.41285185       0.05323951       1.44145396
O        1.47426278      -0.28850709       2.56165139
C        2.27348622      -0.13763518       0.28431495
N        2.00515730      -0.19044266      -0.87824088
H       -2.11204190      -0.60691867      -0.02039257
H       -1.66205137      -0.26309156      -1.68271778
H       -2.01530326       1.04599110      -0.51679404
H        0.22650798       1.12912171      -0.44239137
H        0.01316619      -0.91698796       0.14904656
11
Frame=12 idx=002685 GeodesicLength=0.7155109358534655 rxn_smarts="[C:1]([C:2]([C:3](=[O:4])[C:5]#[N:6])([H:10])[H:11])([H:7])([H:8])[H:9]>>[C:1]([C:2]([N:6]=[C:5]=[C:3]=[O:4])([H:10])[H:11])([H:7])([H:8])[H:9]"
C       -1.53045789       0.07430733      -0.64571867
C       -0.06066926       0.10255977      -0.24170836
C        1.40241901       0.06778162       1.43078932
O        1.44541254      -0.27875211       2.55155919
C        2.27387275      -0.14578443       0.28829978
N        2.00982789      -0.20935235      -0.87547603
H       -2.09171586      -0.64006958      -0.03767000
H       -1.65717634      -0.22065548      -1.68630212
H       -2.01543265       1.03253842      -0.45998459
H        0.22484977       1.12846909      -0.49272724
H       -0.00092995      -0.91104228       0.16893873
11
Frame=13 idx=002685 GeodesicLength=0.7776820517752417 rxn_smarts="[C:1]([C:2]([C:3](=[O:4])[C:5]#[N:6])([H:10])[H:11])([H:7])([H:8])[H:9]>>[C:1]([C:2]([N:6]=[C:5]=[C:3]=[O:4])([H:10])[H:11])([H:7])([H:8])[H:9]"
C       -1.52177127       0.07350092      -0.63411183
C       -0.04153151       0.10134445      -0.25134040
C        1.38670705       0.08223476       1.41911933
O        1.40688480      -0.26731117       2.54078158
C        2.27526454      -0.15107691       0.29635326
N        2.02208321      -0.22534695      -0.86997770
H       -2.06887152      -0.67073070      -0.05027302
H       -1.66228578      -0.17586850      -1.68465510
H       -2.00994820       1.01850006      -0.39609910
H        0.22463294       1.12234940      -0.54984737
H       -0.01116424      -0.90759535       0.18005035
11
Frame=14 idx=002685 GeodesicLength=0.8401902841360648 rxn_smarts="[C:1]([C:2]([C:3](=[O:4])[C:5]#[N:6])([H:10])[H:11])([H:7])([H:8])[H:9]>>[C:1]([C:2]([N:6]=[C:5]=[C:3]=[O:4])([H:10])[H:11])([H:7])([H:8])[H:9]"
C       -1.51314228       0.07284118      -0.62269332
C       -0.02267147       0.09938039      -0.26116937
C        1.37097416       0.09594838       1.40740427
O        1.36896176      -0.25588799       2.52971626
C        2.27647317      -0.15547355       0.30481935
N        2.03456957      -0.23935162      -0.86402682
H       -2.04705551      -0.69887845      -0.06372193
H       -1.66851541      -0.13147446      -1.68070586
H       -2.00174760       1.00335448      -0.33376609
H        0.22326323       1.11347411      -0.60619876
H       -0.02110963      -0.90393246       0.19034226
11
Frame=15 idx=002685 GeodesicLength=0.9035178512930165 rxn_smarts="[C:1]([C:2]([C:3](=[O:4])[C:5]#[N:6])([H:10])[H:11])([H:7])([H:8])[H:9]>>[C:1]([C:2]([N:6]=[C:5]=[C:3]=[O:4])([H:10])[H:11])([H:7])([H:8])[H:9]"
C       -1.50450832       0.07239621      -0.61085477
C       -0.00348477       0.09592472      -0.27291909
C        1.35395609       0.10892230       1.39541198
O        1.32945000      -0.24470355       2.51808412
C        2.27763986      -0.15827379       0.31442266
N        2.04881609      -0.25062743      -0.85718916
H       -2.02590314      -0.72401357      -0.07611276
H       -1.67736675      -0.08771475      -1.67361863
H       -1.98982626       0.98771802      -0.27203347
H        0.22120949       1.10132510      -0.66311669
H       -0.02998229      -0.90095327       0.19792579
11
Frame=16 idx=002685 GeodesicLength=0.9673321058328186 rxn_smarts="[C:1]([C:2]([C:3](=[O:4])[C:5]#[N:6])([H:10])[H:11])([H:7])([H:8])[H:9]>>[C:1]([C:2]([N:6]=[C:5]=[C:3]=[O:4])([H:10])[H:11])([H:7])([H:8])[H:9]"
C       -1.49585923       0.07214894      -0.59904055
C        0.01551328       0.09158129      -0.28519053
C        1.33644260       0.12095745       1.38333547
O        1.28998357      -0.23430153       2.50598885
C        2.27856750      -0.15979956       0.32455782
N        2.06367669      -0.25914974      -0.84988826
H       -2.00594469      -0.74607176      -0.08775546
H       -1.68725972      -0.04546976      -1.66403388
H       -1.97488474       0.97185157      -0.21266235
H        0.21810568       1.08650636      -0.71928874
H       -0.03834095      -0.89825326       0.20397763
