17
Frame=0 idx=006448 GeodesicLength=0.0 rxn_smarts="[C:1]([O:2][C:3]([C@@:4]([C:5]([H:14])([H:15])[H:16])([C:6](=[O:7])[H:17])[H:13])([H:11])[H:12])([H:8])([H:9])[H:10]>>[C:1]1([H:9])([H:10])[O:2][C:3]([H:11])([H:12])[C@:4]([C:5]([H:14])([H:15])[H:16])([H:13])[C@:6]1([O:7][H:8])[H:17]"
C        1.86458815       0.35843443       0.30552350
O        1.69343113      -0.88301352      -0.28920939
C        0.32476721      -1.26561998      -0.26543830
C       -0.48810238      -0.01851483      -0.57503944
C       -1.98550511      -0.20389919      -0.37247068
C        0.04916657       1.05419765       0.36546098
O       -0.30048738       1.03158199       1.64391991
H        0.95333520       0.70066430       1.24937260
H        2.35837189       1.07695021      -0.34777447
H        2.45062790       0.28473089       1.24355630
H        0.04878082      -1.65805975       0.72170060
H        0.19499419      -2.05060518      -1.00969278
H       -0.27254724       0.28039110      -1.60544636
H       -2.53596794       0.69541221      -0.65240596
H       -2.35438464      -1.02754967      -0.98624180
H       -2.19927784      -0.41567861       0.67489618
H        0.19820943       2.04057791      -0.10071086
17
Frame=1 idx=006448 GeodesicLength=0.10710255251834107 rxn_smarts="[C:1]([O:2][C:3]([C@@:4]([C:5]([H:14])([H:15])[H:16])([C:6](=[O:7])[H:17])[H:13])([H:11])[H:12])([H:8])([H:9])[H:10]>>[C:1]1([H:9])([H:10])[O:2][C:3]([H:11])([H:12])[C@:4]([C:5]([H:14])([H:15])[H:16])([H:13])[C@:6]1([O:7][H:8])[H:17]"
C        1.87565205       0.35919542       0.31279560
O        1.69038888      -0.87270891      -0.29765334
C        0.32435589      -1.25890735      -0.26568804
C       -0.49513211      -0.01603079      -0.57748863
C       -1.99092594      -0.20922255      -0.37243658
C        0.04329720       1.06066707       0.35772520
O       -0.31509645       1.04696543       1.63289427
H        0.96261864       0.69846047       1.27169515
H        2.38098939       1.07363611      -0.33685771
H        2.46999609       0.26192694       1.24230396
H        0.05013563      -1.65172206       0.72180378
H        0.19573969      -2.04717828      -1.00721238
H       -0.28308513       0.28123026      -1.60912017
H       -2.54527630       0.68976661      -0.64539677
H       -2.35728696      -1.03246283      -0.98829178
H       -2.20360669      -0.42730480       0.67396529
H        0.19723614       2.04368926      -0.11303786
17
Frame=2 idx=006448 GeodesicLength=0.2140831330727401 rxn_smarts="[C:1]([O:2][C:3]([C@@:4]([C:5]([H:14])([H:15])[H:16])([C:6](=[O:7])[H:17])[H:13])([H:11])[H:12])([H:8])([H:9])[H:10]>>[C:1]1([H:9])([H:10])[O:2][C:3]([H:11])([H:12])[C@:4]([C:5]([H:14])([H:15])[H:16])([H:13])[C@:6]1([O:7][H:8])[H:17]"
C        1.88667387       0.35995246       0.32054253
O        1.68727118      -0.86182844      -0.30599620
C        0.32399989      -1.25193803      -0.26607279
C       -0.50232695      -0.01349908      -0.58013872
C       -1.99640457      -0.21462973      -0.37228495
C        0.03714664       1.06744131       0.34948343
O       -0.32934222       1.06263983       1.62142159
H        0.97182845       0.69553703       1.29500460
H        2.40370202       1.07010919      -0.32536633
H        2.48940672       0.23855881       1.24068330
H        0.05149326      -1.64521855       0.72172054
H        0.19681281      -2.04348382      -1.00490430
H       -0.29391633       0.28197028      -1.61304646
H       -2.55479218       0.68384283      -0.63840852
H       -2.36026891      -1.03765360      -0.98995048
H       -2.20771734      -0.43873914       0.67323600
H        0.19643366       2.04693865      -0.12592325
17
Frame=3 idx=006448 GeodesicLength=0.3209911159927059 rxn_smarts="[C:1]([O:2][C:3]([C@@:4]([C:5]([H:14])([H:15])[H:16])([C:6](=[O:7])[H:17])[H:13])([H:11])[H:12])([H:8])([H:9])[H:10]>>[C:1]1([H:9])([H:10])[O:2][C:3]([H:11])([H:12])[C@:4]([C:5]([H:14])([H:15])[H:16])([H:13])[C@:6]1([O:7][H:8])[H:17]"
C        1.89763305       0.36070826       0.32881216
O        1.68407902      -0.85033415      -0.31421314
C        0.32370424      -1.24469668      -0.26660518
C       -0.50969311      -0.01092082      -0.58301079
C       -2.00193804      -0.22011806      -0.37200141
C        0.03069234       1.07455257       0.34066945
O       -0.34314168       1.07860269       1.60948249
H        0.98095536       0.69178058       1.31938145
H        2.42647456       1.06637339      -0.31325246
H        2.50884245       0.21462863       1.23866563
H        0.05284769      -1.63854802       0.72143005
H        0.19824127      -2.03950143      -1.00278816
H       -0.30505911       0.28258566      -1.61725309
H       -2.56452008       0.67763068      -0.63144638
H       -2.36333324      -1.04313731      -0.99117580
H       -2.21158941      -0.44994619       0.67273548
H        0.19580470       2.05034020      -0.13943030
17
Frame=4 idx=006448 GeodesicLength=0.42786524075921867 rxn_smarts="[C:1]([O:2][C:3]([C@@:4]([C:5]([H:14])([H:15])[H:16])([C:6](=[O:7])[H:17])[H:13])([H:11])[H:12])([H:8])([H:9])[H:10]>>[C:1]1([H:9])([H:10])[O:2][C:3]([H:11])([H:12])[C@:4]([C:5]([H:14])([H:15])[H:16])([H:13])[C@:6]1([O:7][H:8])[H:17]"
C        1.90850600       0.36146422       0.33765564
O        1.68081387      -0.83818416      -0.32227379
C        0.32347478      -1.23716653      -0.26729894
C       -0.51723659      -0.00829689      -0.58612866
C       -2.00752257      -0.22568375      -0.37157111
C        0.02391181       1.08203603       0.33121039
O       -0.35640164       1.09484965       1.59705914
H        0.98998572       0.68705939       1.34491196
H        2.44925954       1.06243512      -0.30046747
H        2.52828216       0.19014405       1.23622084
H        0.05419187      -1.63170955       0.72090900
H        0.20005699      -2.03520781      -1.00088501
H       -0.31653292       0.28304750      -1.62177178
H       -2.57446302       0.67112177      -0.62451590
H       -2.36648212      -1.04893159      -0.99192036
H       -2.21519948      -0.46088526       0.67249546
H        0.19535561       2.05390782      -0.15362942
17
Frame=5 idx=006448 GeodesicLength=0.534711918694944 rxn_smarts="[C:1]([O:2][C:3]([C@@:4]([C:5]([H:14])([H:15])[H:16])([C:6](=[O:7])[H:17])[H:13])([H:11])[H:12])([H:8])([H:9])[H:10]>>[C:1]1([H:9])([H:10])[O:2][C:3]([H:11])([H:12])[C@:4]([C:5]([H:14])([H:15])[H:16])([H:13])[C@:6]1([O:7][H:8])[H:17]"
C        1.91927021       0.36222086       0.34712593
O        1.67747730      -0.82534006      -0.33014611
C        0.32331610      -1.22933125      -0.26816727
C       -0.52496325      -0.00562900      -0.58951444
C       -2.01315363      -0.23132066      -0.37097611
C        0.01678046       1.08992484       0.32103144
O       -0.36901861       1.11136606       1.58413602
H        0.99890837       0.68124774       1.37167261
H        2.47201391       1.05830339      -0.28695970
H        2.54769772       0.16512039       1.23331981
H        0.05551789      -1.62470420       0.72013433
H        0.20229103      -2.03057902      -0.99921793
H       -0.32835740       0.28332356      -1.62663225
H       -2.58462538       0.66430674      -0.61762262
H       -2.36971835      -1.05505084      -0.99213672
H       -2.21852514      -0.47151432       0.67254546
H        0.19508877       2.05765577      -0.16859245
17
Frame=6 idx=006448 GeodesicLength=0.6415655005216577 rxn_smarts="[C:1]([O:2][C:3]([C@@:4]([C:5]([H:14])([H:15])[H:16])([C:6](=[O:7])[H:17])[H:13])([H:11])[H:12])([H:8])([H:9])[H:10]>>[C:1]1([H:9])([H:10])[O:2][C:3]([H:11])([H:12])[C@:4]([C:5]([H:14])([H:15])[H:16])([H:13])[C@:6]1([O:7][H:8])[H:17]"
C        1.92989319       0.36297531       0.35728262
O        1.67407117      -0.81175506      -0.33779029
C        0.32323400      -1.22117211      -0.26922306
C       -0.53287862      -0.00291877      -0.59319569
C       -2.01882371      -0.23702153      -0.37019837
C        0.00927333       1.09825864       0.31004569
O       -0.38087771       1.12814259       1.57069569
H        1.00770307       0.67417380       1.39976596
H        2.49466401       1.05399695      -0.27267358
H        2.56706198       0.13958376       1.22991528
H        0.05681669      -1.61753266       0.71908068
H        0.20498068      -2.02558687      -0.99780981
H       -0.34055252       0.28337680      -1.63187025
H       -2.59500659       0.65718055      -0.61077323
H       -2.37303893      -1.06151265      -0.99176735
H       -2.22154005      -0.48178157       0.67291994
H        0.19502002       2.06159282      -0.18440423
17
Frame=7 idx=006448 GeodesicLength=0.7484179939053288 rxn_smarts="[C:1]([O:2][C:3]([C@@:4]([C:5]([H:14])([H:15])[H:16])([C:6](=[O:7])[H:17])[H:13])([H:11])[H:12])([H:8])([H:9])[H:10]>>[C:1]1([H:9])([H:10])[O:2][C:3]([H:11])([H:12])[C@:4]([C:5]([H:14])([H:15])[H:16])([H:13])[C@:6]1([O:7][H:8])[H:17]"
C        1.94034953       0.36372648       0.36817696
O        1.67059716      -0.79739423      -0.34517130
C        0.32323204      -1.21267359      -0.27047692
C       -0.54098662      -0.00016973      -0.59719453
C       -2.02452630      -0.24277654      -0.36922171
C        0.00136537       1.10706784       0.29817250
O       -0.39186549       1.14515605       1.55672441
H        1.01636109       0.66569680       1.42927436
H        2.51714289       1.04953985      -0.25756614
H        2.58634396       0.11356458       1.22597519
H        0.05807971      -1.61019730       0.71772770
H        0.20815684      -2.02020744      -0.99667999
H       -0.35313402       0.28316944      -1.63751488
H       -2.60560568       0.64973968      -0.60397353
H       -2.37644422      -1.06832734      -0.99076400
H       -2.22422321      -0.49163982       0.67364695
H        0.19515695       2.06572527      -0.20113508
17
Frame=8 idx=006448 GeodesicLength=0.8552357637335314 rxn_smarts="[C:1]([O:2][C:3]([C@@:4]([C:5]([H:14])([H:15])[H:16])([C:6](=[O:7])[H:17])[H:13])([H:11])[H:12])([H:8])([H:9])[H:10]>>[C:1]1([H:9])([H:10])[O:2][C:3]([H:11])([H:12])[C@:4]([C:5]([H:14])([H:15])[H:16])([H:13])[C@:6]1([O:7][H:8])[H:17]"
C        1.95060074       0.36446306       0.37986742
O        1.66705702      -0.78221253      -0.35223462
C        0.32331619      -1.20381688      -0.27194013
C       -0.54928997       0.00261576      -0.60153690
C       -2.03025224      -0.24857455      -0.36802540
C       -0.00696767       1.11639141       0.28532192
O       -0.40184249       1.16238286       1.54221343
H        1.02485538       0.65562816       1.46028234
H        2.53935426       1.04495711      -0.24158956
H        2.60550427       0.08711880       1.22145523
H        0.05929641      -1.60270419       0.71604733
H        0.21186189      -2.01440648      -0.99585256
H       -0.36611818       0.28265967      -1.64360051
H       -2.61641809       0.64198432      -0.59723246
H       -2.37993206      -1.07550922      -0.98906729
H       -2.22654952      -0.50103242       0.67476424
H        0.19552405       2.07005511      -0.21887248
17
Frame=9 idx=006448 GeodesicLength=0.9621151036373257 rxn_smarts="[C:1]([O:2][C:3]([C@@:4]([C:5]([H:14])([H:15])[H:16])([C:6](=[O:7])[H:17])[H:13])([H:11])[H:12])([H:8])([H:9])[H:10]>>[C:1]1([H:9])([H:10])[O:2][C:3]([H:11])([H:12])[C@:4]([C:5]([H:14])([H:15])[H:16])([H:13])[C@:6]1([O:7][H:8])[H:17]"
C        1.96057749       0.36519107       0.39246031
O        1.66342306      -0.76611941      -0.35899742
C        0.32349410      -1.19456482      -0.27367059
C       -0.55781419       0.00543023      -0.60625933
C       -2.03598376      -0.25439796      -0.36653894
C       -0.01580664       1.12627494       0.27133346
O       -0.41048356       1.17984345       1.52698921
H        1.03318156       0.64359615       1.49293379
H        2.56121299       1.04038273      -0.22454048
H        2.62437279       0.06028827       1.21646546
H        0.06047861      -1.59507552       0.71395955
H        0.21615410      -2.00811302      -0.99542538
H       -0.37958914       0.28176790      -1.65016726
H       -2.62747315       0.63389266      -0.59052524
H       -2.38348479      -1.08308614      -0.98650343
H       -2.22843084      -0.50983103       0.67635020
H        0.19617136       2.07452048      -0.23786392
17
Frame=10 idx=006448 GeodesicLength=1.0688997943298266 rxn_smarts="[C:1]([O:2][C:3]([C@@:4]([C:5]([H:14])([H:15])[H:16])([C:6](=[O:7])[H:17])[H:13])([H:11])[H:12])([H:8])([H:9])[H:10]>>[C:1]1([H:9])([H:10])[O:2][C:3]([H:11])([H:12])[C@:4]([C:5]([H:14])([H:15])[H:16])([H:13])[C@:6]1([O:7][H:8])[H:17]"
C        1.97027514       0.36587939       0.40597000
O        1.65971696      -0.74912171      -0.36535201
C        0.32376602      -1.18491755      -0.27563707
C       -0.56654252       0.00827395      -0.61137122
C       -2.04171695      -0.26023562      -0.36478743
C       -0.02513943       1.13673512       0.25618963
O       -0.41781907       1.19746857       1.51116524
H        1.04130714       0.62959492       1.52723864
H        2.58261178       1.03577270      -0.20650211
H        2.64303209       0.03315227       1.21082805
H        0.06159868      -1.58730492       0.71148750
H        0.22104910      -2.00132979      -0.99535772
H       -0.39350105       0.28048231      -1.65723191
H       -2.63873407       0.62549026      -0.58388610
H       -2.38710716      -1.09105354      -0.98311395
H       -2.22989732      -0.51803747       0.67840279
H        0.19710066       2.07915112      -0.25804233
17
Frame=11 idx=006448 GeodesicLength=1.1755944159514398 rxn_smarts="[C:1]([O:2][C:3]([C@@:4]([C:5]([H:14])([H:15])[H:16])([C:6](=[O:7])[H:17])[H:13])([H:11])[H:12])([H:8])([H:9])[H:10]>>[C:1]1([H:9])([H:10])[O:2][C:3]([H:11])([H:12])[C@:4]([C:5]([H:14])([H:15])[H:16])([H:13])[C@:6]1([O:7][H:8])[H:17]"
C        1.97966190       0.36651234       0.42045132
O        1.65593383      -0.73118410      -0.37125609
C        0.32413296      -1.17485770      -0.27785027
C       -0.57547943       0.01114181      -0.61689110
C       -2.04743996      -0.26607026      -0.36275026
C       -0.03500410       1.14779393       0.23980997
O       -0.42371588       1.21523237       1.49471021
H        1.04924486       0.61343942       1.56326778
H        2.60344990       1.03118230      -0.18742600
H        2.66143935       0.00578022       1.20451853
H        0.06264652      -1.57940033       0.70860790
H        0.22657600      -1.99402445      -0.99567836
H       -0.40786975       0.27875601      -1.66481317
H       -2.65019707       0.61677769      -0.57731832
H       -2.39078600      -1.09941365      -0.97883469
H       -2.23092553      -0.52558941       0.68094819
H        0.19833240       2.08392381      -0.27949563
17
Frame=12 idx=006448 GeodesicLength=1.2821852050329468 rxn_smarts="[C:1]([O:2][C:3]([C@@:4]([C:5]([H:14])([H:15])[H:16])([C:6](=[O:7])[H:17])[H:13])([H:11])[H:12])([H:8])([H:9])[H:10]>>[C:1]1([H:9])([H:10])[O:2][C:3]([H:11])([H:12])[C@:4]([C:5]([H:14])([H:15])[H:16])([H:13])[C@:6]1([O:7][H:8])[H:17]"
C        1.98870425       0.36706391       0.43595460
O        1.65206722      -0.71227543      -0.37665878
C        0.32459498      -1.16436953      -0.28031392
C       -0.58462621       0.01403037      -0.62283353
C       -2.05313923      -0.27188319      -0.36040767
C       -0.04543713       1.15947347       0.22212087
O       -0.42805013       1.23310730       1.47759977
H        1.05699619       0.59493417       1.60107628
H        2.62361861       1.02667137      -0.16726322
H        2.67956189      -0.02173644       1.19748189
H        0.06361279      -1.57136971       0.70530271
H        0.23276315      -1.98616288      -0.99640415
H       -0.42270485       0.27654178      -1.67292819
H       -2.66185238       0.60776726      -0.57083240
H       -2.39450769      -1.10817120      -0.97361216
H       -2.23149679      -0.53242611       0.68401544
H        0.19989533       2.08880488      -0.30229754
17
Frame=13 idx=006448 GeodesicLength=1.3886622344326551 rxn_smarts="[C:1]([O:2][C:3]([C@@:4]([C:5]([H:14])([H:15])[H:16])([C:6](=[O:7])[H:17])[H:13])([H:11])[H:12])([H:8])([H:9])[H:10]>>[C:1]1([H:9])([H:10])[O:2][C:3]([H:11])([H:12])[C@:4]([C:5]([H:14])([H:15])[H:16])([H:13])[C@:6]1([O:7][H:8])[H:17]"
C        1.99737505       0.36750624       0.45251712
O        1.64810902      -0.69237161      -0.38151934
C        0.32515130      -1.15343816      -0.28303017
C       -0.59398298       0.01693534      -0.62920776
C       -2.05880312      -0.27765617      -0.35774442
C       -0.05647500       1.17178740       0.20305938
O       -0.43070722       1.25106743       1.45980386
H        1.06457909       0.57389864       1.64070589
H        2.64301031       1.02231037      -0.14598594
H        2.69735506      -0.04930677       1.18969392
H        0.06449236      -1.56321980       0.70155809
H        0.23963199      -1.97771553      -0.99755111
H       -0.43801130       0.27379783      -1.68158433
H       -2.67368915       0.59846998      -0.56443270
H       -2.39825752      -1.11732320      -0.96739730
H       -2.23159666      -0.53849196       0.68762634
H        0.20181877       2.09374995      -0.32651151
17
Frame=14 idx=006448 GeodesicLength=1.4950324463168616 rxn_smarts="[C:1]([O:2][C:3]([C@@:4]([C:5]([H:14])([H:15])[H:16])([C:6](=[O:7])[H:17])[H:13])([H:11])[H:12])([H:8])([H:9])[H:10]>>[C:1]1([H:9])([H:10])[O:2][C:3]([H:11])([H:12])[C@:4]([C:5]([H:14])([H:15])[H:16])([H:13])[C@:6]1([O:7][H:8])[H:17]"
C        2.00563803       0.36780699       0.47017820
O        1.64404851      -0.67144144      -0.38578579
C        0.32580121      -1.14204586      -0.28599985
C       -0.60355050       0.01985370      -0.63602406
C       -2.06441722      -0.28336673      -0.35474029
C       -0.06815829       1.18475200       0.18255687
O       -0.43156510       1.26908874       1.44128757
H        1.07201114       0.55011570       1.68218985
H        2.66150287       1.01817763      -0.12355190
H        2.71478203      -0.07682454       1.18111887
H        0.06527849      -1.55495862       0.69735838
H        0.24720828      -1.96864529      -0.99913454
H       -0.45379537       0.27047769      -1.69078957
H       -2.68569732       0.58889944      -0.55813126
H       -2.40201766      -1.12686883      -0.96013293
H       -2.23120921      -0.54372183       0.69180846
H        0.20414011       2.09870127      -0.35220800
17
Frame=15 idx=006448 GeodesicLength=1.6013031589919318 rxn_smarts="[C:1]([O:2][C:3]([C@@:4]([C:5]([H:14])([H:15])[H:16])([C:6](=[O:7])[H:17])[H:13])([H:11])[H:12])([H:8])([H:9])[H:10]>>[C:1]1([H:9])([H:10])[O:2][C:3]([H:11])([H:12])[C@:4]([C:5]([H:14])([H:15])[H:16])([H:13])[C@:6]1([O:7][H:8])[H:17]"
C        2.01347286       0.36792421       0.48895905
O        1.63987222      -0.64946612      -0.38941159
C        0.32654122      -1.13017873      -0.28921757
C       -0.61332698       0.02278271      -0.64328130
C       -2.06996857      -0.28899327      -0.35138230
C       -0.08052694       1.19837178       0.16057122
O       -0.43052999       1.28715243       1.42201209
H        1.07932636       0.52338903       1.72553112
H        2.67898768       1.01435442      -0.09994078
H        2.73179613      -0.10416675       1.17173178
H        0.06596614      -1.54659344       0.69269732
H        0.25550772      -1.95891945      -1.00116265
H       -0.47005447       0.26654355      -1.70053735
H       -2.69786292       0.57907506      -0.55193754
H       -2.40576737      -1.13680034      -0.95177874
H       -2.23032719      -0.54806134       0.69658054
H        0.20689412       2.10358626      -0.37943331
17
Frame=16 idx=006448 GeodesicLength=1.7075014038992666 rxn_smarts="[C:1]([O:2][C:3]([C@@:4]([C:5]([H:14])([H:15])[H:16])([C:6](=[O:7])[H:17])[H:13])([H:11])[H:12])([H:8])([H:9])[H:10]>>[C:1]1([H:9])([H:10])[O:2][C:3]([H:11])([H:12])[C@:4]([C:5]([H:14])([H:15])[H:16])([H:13])[C@:6]1([O:7][H:8])[H:17]"
C        2.02086062       0.36780968       0.50887828
O        1.63556209      -0.62642640      -0.39234831
C        0.32736618      -1.11782120      -0.29267242
C       -0.62331100       0.02572190      -0.65097364
C       -2.07544380      -0.29451513      -0.34765829
C       -0.09362483       1.21264894       0.13707235
O       -0.42752847       1.30525203       1.40192792
H        1.08657118       0.49351022       1.77070906
H        2.69535874       1.01092823      -0.07512680
H        2.74835908      -0.13121037       1.16150040
H        0.06655182      -1.53812746       0.68757424
H        0.26454375      -1.94850315      -1.00363751
H       -0.48678380       0.26196085      -1.71081399
H       -2.71017350       0.56901887      -0.54586451
H       -2.40947963      -1.14711128      -0.94229655
H       -2.22894607      -0.55145682       0.70195867
H        0.21011763       2.10832108      -0.40822888
