15
Frame=0 idx=009891 GeodesicLength=0.0 rxn_smarts="[C:1]([C@@:2]1([H:11])[C@:3]([C:4]#[N:5])([H:12])[N:6]1[C:7]([H:13])([H:14])[H:15])([H:8])([H:9])[H:10]>>[C:1]([C@:2]1([H:11])[C:4](/[C:3](=[N:6]/[C:7]([H:13])([H:14])[H:15])[H:12])=[N:5]1)([H:8])([H:9])[H:10]"
C       -1.99173164       0.35261897       0.33501881
C       -0.93973162       0.22002975      -0.70273042
C        1.26076501       0.73154978      -0.40895273
C       -0.00032902       1.32901462      -1.02921455
N       -0.41079249       2.29459655      -1.65520190
N        0.83679972      -0.36793916       0.05105192
C        1.59599268      -1.37621806       0.74181259
H       -1.65543744       0.96369932       1.17268017
H       -2.86706896       0.83118764      -0.11085095
H       -2.30835070      -0.63113339       0.68612465
H       -1.15026349      -0.48381248      -1.50802829
H        2.28717071       1.08927222      -0.34576086
H        1.54153516      -2.31369949       0.18626211
H        1.15649667      -1.54760635       1.72574206
H        2.64494547      -1.09155985       0.86204739
15
Frame=1 idx=009891 GeodesicLength=0.07886014509773207 rxn_smarts="[C:1]([C@@:2]1([H:11])[C@:3]([C:4]#[N:5])([H:12])[N:6]1[C:7]([H:13])([H:14])[H:15])([H:8])([H:9])[H:10]>>[C:1]([C@:2]1([H:11])[C:4](/[C:3](=[N:6]/[C:7]([H:13])([H:14])[H:15])[H:12])=[N:5]1)([H:8])([H:9])[H:10]"
C       -2.00757728       0.36104078       0.32851096
C       -0.93411625       0.22802798      -0.68932044
C        1.25803931       0.71033478      -0.42698045
C        0.00831501       1.36419424      -0.99002632
N       -0.42151100       2.30249519      -1.63913036
N        0.82587183      -0.35802272       0.10406804
C        1.60721943      -1.37704671       0.75297001
H       -1.69399396       0.99155740       1.16056280
H       -2.88578135       0.81471650      -0.13729977
H       -2.31388543      -0.62086097       0.69390863
H       -1.13553120      -0.47741629      -1.49586832
H        2.29901798       1.02902680      -0.44536969
H        1.59261701      -2.28711033       0.15023628
H        1.15677708      -1.60945923       1.71930961
H        2.64453882      -1.07147744       0.91442902
15
Frame=2 idx=009891 GeodesicLength=0.15721229192004088 rxn_smarts="[C:1]([C@@:2]1([H:11])[C@:3]([C:4]#[N:5])([H:12])[N:6]1[C:7]([H:13])([H:14])[H:15])([H:8])([H:9])[H:10]>>[C:1]([C@:2]1([H:11])[C:4](/[C:3](=[N:6]/[C:7]([H:13])([H:14])[H:15])[H:12])=[N:5]1)([H:8])([H:9])[H:10]"
C       -2.02144560       0.37105868       0.32256856
C       -0.92746728       0.23424899      -0.67492103
C        1.25180309       0.69169961      -0.43834020
C        0.01843303       1.39625100      -0.95349332
N       -0.43019401       2.30452960      -1.62754615
N        0.81764516      -0.34683053       0.15631902
C        1.61803525      -1.37789354       0.76134318
H       -1.72997054       1.02302590       1.14607387
H       -2.90132343       0.79882974      -0.16388223
H       -2.31856708      -0.60696972       0.70542890
H       -1.12010255      -0.47562008      -1.48005665
H        2.29984810       0.96995628      -0.53554383
H        1.64505083      -2.25439871       0.11058041
H        1.15685469      -1.67459462       1.70474015
H        2.64140035      -1.05329260       0.96672930
15
Frame=3 idx=009891 GeodesicLength=0.2351995284759822 rxn_smarts="[C:1]([C@@:2]1([H:11])[C@:3]([C:4]#[N:5])([H:12])[N:6]1[C:7]([H:13])([H:14])[H:15])([H:8])([H:9])[H:10]>>[C:1]([C@:2]1([H:11])[C:4](/[C:3](=[N:6]/[C:7]([H:13])([H:14])[H:15])[H:12])=[N:5]1)([H:8])([H:9])[H:10]"
C       -2.03330363       0.38090365       0.31661987
C       -0.91978963       0.23901076      -0.66071078
C        1.24359383       0.67675301      -0.44400013
C        0.02980321       1.42627815      -0.92044161
N       -0.43784953       2.30358373      -1.61831382
N        0.81206212      -0.33426637       0.20694184
C        1.62796199      -1.37843800       0.76772194
H       -1.76273416       1.05455154       1.12974540
H       -2.91403129       0.78267711      -0.18997426
H       -2.32223769      -0.59200846       0.71840795
H       -1.10375276      -0.47733787      -1.46246739
H        2.29233699       0.91336395      -0.61551005
H        1.69116336      -2.21868751       0.07237251
H        1.15886830      -1.73567581       1.68588490
H        2.63790889      -1.04070788       1.01372365
15
Frame=4 idx=009891 GeodesicLength=0.3124548443148807 rxn_smarts="[C:1]([C@@:2]1([H:11])[C@:3]([C:4]#[N:5])([H:12])[N:6]1[C:7]([H:13])([H:14])[H:15])([H:8])([H:9])[H:10]>>[C:1]([C@:2]1([H:11])[C:4](/[C:3](=[N:6]/[C:7]([H:13])([H:14])[H:15])[H:12])=[N:5]1)([H:8])([H:9])[H:10]"
C       -2.04240351       0.38967116       0.31104947
C       -0.91185447       0.24282832      -0.64818995
C        1.23407724       0.66319727      -0.44851192
C        0.04221066       1.45456913      -0.89097042
N       -0.44491699       2.30228238      -1.60830125
N        0.80838866      -0.32307795       0.25151943
C        1.63667785      -1.37807257       0.77326059
H       -1.78966306       1.08279018       1.11348012
H       -2.92352668       0.76746963      -0.21286195
H       -2.32446145      -0.57760630       0.73094059
H       -1.08885792      -0.48001282      -1.44602015
H        2.27811856       0.85832575      -0.68745314
H        1.73441340      -2.18180943       0.03908172
H        1.15925463      -1.78999573       1.66377682
H        2.63254308      -1.03055903       1.05920003
15
Frame=5 idx=009891 GeodesicLength=0.390032438622523 rxn_smarts="[C:1]([C@@:2]1([H:11])[C@:3]([C:4]#[N:5])([H:12])[N:6]1[C:7]([H:13])([H:14])[H:15])([H:8])([H:9])[H:10]>>[C:1]([C@:2]1([H:11])[C:4](/[C:3](=[N:6]/[C:7]([H:13])([H:14])[H:15])[H:12])=[N:5]1)([H:8])([H:9])[H:10]"
C       -2.05001526       0.39910593       0.30592820
C       -0.90385805       0.24531475      -0.63593630
C        1.22342554       0.65193771      -0.44900604
C        0.05537917       1.48062503      -0.86516392
N       -0.45130472       2.29834229      -1.60031762
N        0.80593752      -0.31332186       0.29277373
C        1.64500038      -1.37804007       0.77707118
H       -1.81371880       1.11250341       1.09549712
H       -2.93122477       0.75242455      -0.23451275
H       -2.32587413      -0.56102246       0.74584704
H       -1.07498733      -0.48521195      -1.42837941
H        2.25786567       0.80655046      -0.75101862
H        1.77884871      -2.14248564       0.00686922
H        1.15929296      -1.84363063       1.63604529
H        2.62523311      -1.02309152       1.10430289
15
Frame=6 idx=009891 GeodesicLength=0.4677570640028846 rxn_smarts="[C:1]([C@@:2]1([H:11])[C@:3]([C:4]#[N:5])([H:12])[N:6]1[C:7]([H:13])([H:14])[H:15])([H:8])([H:9])[H:10]>>[C:1]([C@:2]1([H:11])[C:4](/[C:3](=[N:6]/[C:7]([H:13])([H:14])[H:15])[H:12])=[N:5]1)([H:8])([H:9])[H:10]"
C       -2.05629627       0.40831334       0.30087437
C       -0.89551726       0.24668913      -0.62409150
C        1.21236150       0.64294956      -0.44681649
C        0.06918569       1.50529735      -0.84236755
N       -0.45736674       2.29289005      -1.59333526
N        0.80469009      -0.30366597       0.33206757
C        1.65263771      -1.37797661       0.77959812
H       -1.83525306       1.14190294       1.07623591
H       -2.93725504       0.73709329      -0.25514263
H       -2.32666386      -0.54358216       0.76162468
H       -1.06117975      -0.49249867      -1.40999091
H        2.23324111       0.75796810      -0.80721044
H        1.82003320      -2.10203815      -0.02308384
H        1.15991806      -1.89362866       1.60527547
H        2.61746463      -1.01971353       1.14636249
15
Frame=7 idx=009891 GeodesicLength=0.5453224324993957 rxn_smarts="[C:1]([C@@:2]1([H:11])[C@:3]([C:4]#[N:5])([H:12])[N:6]1[C:7]([H:13])([H:14])[H:15])([H:8])([H:9])[H:10]>>[C:1]([C@:2]1([H:11])[C:4](/[C:3](=[N:6]/[C:7]([H:13])([H:14])[H:15])[H:12])=[N:5]1)([H:8])([H:9])[H:10]"
C       -2.06129516       0.41725562       0.29626572
C       -0.88821674       0.24749550      -0.61408037
C        1.20047069       0.63300802      -0.44615853
C        0.08369118       1.52837048      -0.82233329
N       -0.46293910       2.28810669      -1.58479510
N        0.80351439      -0.29749398       0.36529990
C        1.66046830      -1.37755894       0.78204000
H       -1.85227112       1.16874934       1.05769165
H       -2.94198643       0.72401317      -0.27249694
H       -2.32758407      -0.52607970       0.77659343
H       -1.05073020      -0.49938955      -1.39368019
H        2.20517404       0.71085551      -0.85844255
H        1.86461347      -2.06117166      -0.04776812
H        1.15992333      -1.93998926       1.57162360
H        2.60716741      -1.01617124       1.19024081
15
Frame=8 idx=009891 GeodesicLength=0.6232791592488556 rxn_smarts="[C:1]([C@@:2]1([H:11])[C@:3]([C:4]#[N:5])([H:12])[N:6]1[C:7]([H:13])([H:14])[H:15])([H:8])([H:9])[H:10]>>[C:1]([C@:2]1([H:11])[C:4](/[C:3](=[N:6]/[C:7]([H:13])([H:14])[H:15])[H:12])=[N:5]1)([H:8])([H:9])[H:10]"
C       -2.06561266       0.42622331       0.29158097
C       -0.88076628       0.24737282      -0.60416817
C        1.18839989       0.62466980      -0.44336904
C        0.09877456       1.55036768      -0.80440955
N       -0.46813424       2.28210896      -1.57676539
N        0.80299579      -0.29149171       0.39758759
C        1.66795680      -1.37719030       0.78353742
H       -1.86796401       1.19581704       1.03781790
H       -2.94576256       0.71058687      -0.28941426
H       -2.32835473      -0.50746105       0.79228241
H       -1.04029527      -0.50795826      -1.37656108
H        2.17385915       0.66611437      -0.90471610
H        1.90734389      -2.01902760      -0.07050936
H        1.16119643      -1.98401974       1.53528876
H        2.59636325      -1.01611219       1.23181793
15
Frame=9 idx=009891 GeodesicLength=0.7013377067596087 rxn_smarts="[C:1]([C@@:2]1([H:11])[C@:3]([C:4]#[N:5])([H:12])[N:6]1[C:7]([H:13])([H:14])[H:15])([H:8])([H:9])[H:10]>>[C:1]([C@:2]1([H:11])[C:4](/[C:3](=[N:6]/[C:7]([H:13])([H:14])[H:15])[H:12])=[N:5]1)([H:8])([H:9])[H:10]"
C       -2.06953405       0.43577873       0.28744232
C       -0.87503407       0.24676194      -0.59583504
C        1.17521700       0.61437074      -0.44255340
C        0.11450502       1.57051846      -0.78892451
N       -0.47264029       2.27646098      -1.56767729
N        0.80167061      -0.28982419       0.42430525
C        1.67648446      -1.37695435       0.78488532
H       -1.88047286       1.22215194       1.01825469
H       -2.94945108       0.69947497      -0.30346700
H       -2.32969206      -0.48761844       0.80817486
H       -1.03405239      -0.51610375      -1.36124141
H        2.14054081       0.62302277      -0.94658690
H        1.95690454      -1.97563070      -0.08842085
H        1.16340261      -2.02716433       1.49483633
H        2.58215176      -1.01524477       1.27680764
15
Frame=10 idx=009891 GeodesicLength=0.7796479084760026 rxn_smarts="[C:1]([C@@:2]1([H:11])[C@:3]([C:4]#[N:5])([H:12])[N:6]1[C:7]([H:13])([H:14])[H:15])([H:8])([H:9])[H:10]>>[C:1]([C@:2]1([H:11])[C:4](/[C:3](=[N:6]/[C:7]([H:13])([H:14])[H:15])[H:12])=[N:5]1)([H:8])([H:9])[H:10]"
C       -2.07289510       0.44513524       0.28319424
C       -0.86899743       0.24518565      -0.58736582
C        1.16210259       0.60575226      -0.44000405
C        0.13073781       1.58984840      -0.77542449
N       -0.47696672       2.26953231      -1.55939144
N        0.80105632      -0.28732898       0.45124358
C        1.68445062      -1.37661124       0.78530346
H       -1.89199800       1.24846694       0.99744458
H       -2.95237254       0.68766681      -0.31726257
H       -2.33086622      -0.46691922       0.82459918
H       -1.02725277      -0.52618850      -1.34469922
H        2.10550634       0.58261194      -0.98385209
H        2.00298560      -1.93093294      -0.10466888
H        1.16681978      -2.06755246       1.45208216
H        2.56768972      -1.01866623       1.31880136
15
Frame=11 idx=009891 GeodesicLength=0.8580513538133859 rxn_smarts="[C:1]([C@@:2]1([H:11])[C@:3]([C:4]#[N:5])([H:12])[N:6]1[C:7]([H:13])([H:14])[H:15])([H:8])([H:9])[H:10]>>[C:1]([C@:2]1([H:11])[C:4](/[C:3](=[N:6]/[C:7]([H:13])([H:14])[H:15])[H:12])=[N:5]1)([H:8])([H:9])[H:10]"
C       -2.07600876       0.45477687       0.27921319
C       -0.86399576       0.24292999      -0.57975680
C        1.14828552       0.59641090      -0.43815398
C        0.14753563       1.60776031      -0.76405359
N       -0.48085899       2.26232403      -1.55082545
N        0.80000664      -0.28696465       0.47539107
C        1.69290958      -1.37624252       0.78539421
H       -1.90133684       1.27416368       0.97658105
H       -2.95520848       0.67725434      -0.32926686
H       -2.33256135      -0.44523600       0.84106524
H       -1.02279126      -0.53676085      -1.32874615
H        2.06943436       0.54409597      -1.01733690
H        2.05170097      -1.88470288      -0.11716477
H        1.17193285      -2.10638327       1.40612325
H        2.55095590      -1.02342592       1.36153649
15
Frame=12 idx=009891 GeodesicLength=0.9365495937267212 rxn_smarts="[C:1]([C@@:2]1([H:11])[C@:3]([C:4]#[N:5])([H:12])[N:6]1[C:7]([H:13])([H:14])[H:15])([H:8])([H:9])[H:10]>>[C:1]([C@:2]1([H:11])[C:4](/[C:3](=[N:6]/[C:7]([H:13])([H:14])[H:15])[H:12])=[N:5]1)([H:8])([H:9])[H:10]"
C       -2.07868091       0.46440741       0.27543604
C       -0.85926227       0.23973064      -0.57230153
C        1.13423209       0.58773260      -0.43585624
C        0.16472923       1.62459101      -0.75506461
N       -0.48470183       2.25388985      -1.54319744
N        0.79920897      -0.28657882       0.49887070
C        1.70104388      -1.37576668       0.78474981
H       -1.90908899       1.29959707       0.95509224
H       -2.95767972       0.66696333      -0.34015568
H       -2.33423513      -0.42259737       0.85805332
H       -1.01893935      -0.54894360      -1.31195837
H        2.03316195       0.50845176      -1.04641521
H        2.09954023      -1.83670532      -0.12723887
H        1.17792602      -2.14307156       1.35685878
H        2.53274585      -1.03170033       1.40312707
15
Frame=13 idx=009891 GeodesicLength=1.0151609799952934 rxn_smarts="[C:1]([C@@:2]1([H:11])[C@:3]([C:4]#[N:5])([H:12])[N:6]1[C:7]([H:13])([H:14])[H:15])([H:8])([H:9])[H:10]>>[C:1]([C@:2]1([H:11])[C:4](/[C:3](=[N:6]/[C:7]([H:13])([H:14])[H:15])[H:12])=[N:5]1)([H:8])([H:9])[H:10]"
C       -2.08100808       0.47400729       0.27182270
C       -0.85485734       0.23574054      -0.56501829
C        1.11995165       0.57953808      -0.43322560
C        0.18239965       1.64046904      -0.74814603
N       -0.48834217       2.24459379      -1.53603960
N        0.79854691      -0.28638157       0.52158274
C        1.70887226      -1.37518460       0.78346193
H       -1.91557482       1.32481885       0.93288024
H       -2.95996198       0.65652193      -0.34997278
H       -2.33573044      -0.39899623       0.87557858
H       -1.01574946      -0.56238218      -1.29451308
H        1.99670973       0.47496876      -1.07196183
H        2.14684984      -1.78695009      -0.13452128
H        1.18502191      -2.17748095       1.30451847
H        2.51287233      -1.04328264       1.44355384
15
Frame=14 idx=009891 GeodesicLength=1.093879832976993 rxn_smarts="[C:1]([C@@:2]1([H:11])[C@:3]([C:4]#[N:5])([H:12])[N:6]1[C:7]([H:13])([H:14])[H:15])([H:8])([H:9])[H:10]>>[C:1]([C@:2]1([H:11])[C:4](/[C:3](=[N:6]/[C:7]([H:13])([H:14])[H:15])[H:12])=[N:5]1)([H:8])([H:9])[H:10]"
C       -2.08317018       0.48371667       0.26842204
C       -0.85112945       0.23100448      -0.55808199
C        1.10522743       0.57120642      -0.43080119
C        0.20058207       1.65520526      -0.74327245
N       -0.49173748       2.23472777      -1.52896489
N        0.79771127      -0.28697464       0.54305234
C        1.71684898      -1.37438213       0.78185745
H       -1.92045375       1.34944674       0.91052548
H       -2.96223696       0.64692932      -0.35846472
H       -2.33759358      -0.37452885       0.89311329
H       -1.01390649      -0.57671316      -1.27681401
H        1.95998206       0.44278542      -1.09492127
H        2.19512467      -1.73497948      -0.13815385
H        1.19386282      -2.20984195       1.24874861
H        2.49088859      -1.05760187       1.48375517
15
Frame=15 idx=009891 GeodesicLength=1.1727156362553048 rxn_smarts="[C:1]([C@@:2]1([H:11])[C@:3]([C:4]#[N:5])([H:12])[N:6]1[C:7]([H:13])([H:14])[H:15])([H:8])([H:9])[H:10]>>[C:1]([C@:2]1([H:11])[C:4](/[C:3](=[N:6]/[C:7]([H:13])([H:14])[H:15])[H:12])=[N:5]1)([H:8])([H:9])[H:10]"
C       -2.08560644       0.49408035       0.26538165
C       -0.84915646       0.22569594      -0.55217610
C        1.08934741       0.56090914      -0.42988266
C        0.21953077       1.66810977      -0.74027059
N       -0.49445564       2.22506919      -1.52091939
N        0.79561577      -0.29073626       0.56145387
C        1.72619540      -1.37326615       0.78052264
H       -1.92294464       1.37314122       0.88913641
H       -2.96512534       0.64038069      -0.36493584
H       -2.34081207      -0.34912102       0.90993740
H       -1.01559220      -0.59088387      -1.26025090
H        1.92236533       0.40999871      -1.11691686
H        2.24862531      -1.67930016      -0.13584338
H        1.20698300      -2.24114679       1.18866312
H        2.46502980      -1.07293076       1.52610064
15
Frame=16 idx=009891 GeodesicLength=1.2516909413830597 rxn_smarts="[C:1]([C@@:2]1([H:11])[C@:3]([C:4]#[N:5])([H:12])[N:6]1[C:7]([H:13])([H:14])[H:15])([H:8])([H:9])[H:10]>>[C:1]([C@:2]1([H:11])[C:4](/[C:3](=[N:6]/[C:7]([H:13])([H:14])[H:15])[H:12])=[N:5]1)([H:8])([H:9])[H:10]"
C       -2.08819839       0.50483750       0.26248897
C       -0.84833021       0.21965360      -0.54680577
C        1.07269268       0.54963177      -0.42945549
C        0.23923157       1.67941845      -0.73915925
N       -0.49664944       2.21514339      -1.51240218
N        0.79272413      -0.29620084       0.57837174
C        1.73630257      -1.37174114       0.77930688
H       -1.92343704       1.39588165       0.86845399
H       -2.96828864       0.63627794      -0.37019901
H       -2.34524784      -0.32305638       0.92589229
H       -1.01944271      -0.60553899      -1.24395336
H        1.88391631       0.37680257      -1.13752839
H        2.30379972      -1.61996002      -0.12832622
H        1.22435883      -2.27041985       1.12506126
H        2.43656846      -1.09072965       1.56825454
