17
Frame=0 idx=008495 GeodesicLength=0.0 rxn_smarts="[C:1]([C@@:2]1([H:11])[C:3]([H:12])([H:13])[C@@:4]2([H:14])[O:5][C:6]([H:15])([H:16])[C@@:7]12[H:17])([H:8])([H:9])[H:10]>>[C:1]([C@@:2]1([H:11])[C:3]([H:12])([H:13])[C@:7]1([C:6]([O+:5]=[C-:4][H:14])([H:15])[H:16])[H:17])([H:8])([H:9])[H:10]"
C        1.89274074      -0.59682163      -0.37012896
C        1.02426322       0.09542030       0.63351517
C       -0.11454870       1.23969703      -0.11321011
C       -1.75348814       1.06778144      -0.72248275
O       -1.71266292      -0.28099178      -1.14127664
C       -1.25330893      -1.04425604      -0.06464365
C       -0.37893739      -0.07561517       0.74537386
H        2.37836808      -1.45850622       0.09498312
H        2.67827731       0.06569422      -0.73770059
H        1.31760656      -0.95433521      -1.22452901
H        1.52746108       0.55769718       1.47476141
H       -0.05540512       2.17334503       0.42725904
H        0.37281534       1.21693170      -1.07506454
H       -2.34622468       1.08776667       0.22002716
H       -0.71110403      -1.92066347      -0.43247278
H       -2.07346867      -1.38640830       0.58125990
H       -0.79238381       0.21326417       1.70432931
17
Frame=1 idx=008495 GeodesicLength=0.08628341994360211 rxn_smarts="[C:1]([C@@:2]1([H:11])[C:3]([H:12])([H:13])[C@@:4]2([H:14])[O:5][C:6]([H:15])([H:16])[C@@:7]12[H:17])([H:8])([H:9])[H:10]>>[C:1]([C@@:2]1([H:11])[C:3]([H:12])([H:13])[C@:7]1([C:6]([O+:5]=[C-:4][H:14])([H:15])[H:16])[H:17])([H:8])([H:9])[H:10]"
C        1.89360987      -0.60024562      -0.36218946
C        1.01792663       0.10900498       0.62395208
C       -0.09942333       1.24598132      -0.12274861
C       -1.76661069       1.06264697      -0.70113442
O       -1.74172897      -0.27823339      -1.13046155
C       -1.25026350      -1.04908049      -0.06912907
C       -0.38923767      -0.07303607       0.74160318
H        2.36332182      -1.46449989       0.11428713
H        2.69099815       0.05249470      -0.72176306
H        1.32811197      -0.95540486      -1.22403792
H        1.51815894       0.56547304       1.47042528
H       -0.03358098       2.18625971       0.40635070
H        0.36898632       1.21982334      -1.09460232
H       -2.34806800       1.10207059       0.24615794
H       -0.69717171      -1.90780295      -0.46072325
H       -2.05799404      -1.41794920       0.57699055
H       -0.79703480       0.20249782       1.70702282
17
Frame=2 idx=008495 GeodesicLength=0.17251023136326255 rxn_smarts="[C:1]([C@@:2]1([H:11])[C:3]([H:12])([H:13])[C@@:4]2([H:14])[O:5][C:6]([H:15])([H:16])[C@@:7]12[H:17])([H:8])([H:9])[H:10]>>[C:1]([C@@:2]1([H:11])[C:3]([H:12])([H:13])[C@:7]1([C:6]([O+:5]=[C-:4][H:14])([H:15])[H:16])[H:17])([H:8])([H:9])[H:10]"
C        1.89440773      -0.60364833      -0.35401537
C        1.01164242       0.12235556       0.61433079
C       -0.08441586       1.25202484      -0.13263949
C       -1.77956606       1.05734500      -0.67959995
O       -1.77124470      -0.27573231      -1.11858544
C       -1.24713719      -1.05378809      -0.07371523
C       -0.39949378      -0.07045036       0.73782805
H        2.34791775      -1.47032654       0.13356579
H        2.70350760       0.03930249      -0.70508404
H        1.33889981      -0.95649878      -1.22335140
H        1.50877154       0.57344854       1.46582759
H       -0.01203760       2.19887330       0.38480562
H        0.36493209       1.22258903      -1.11408721
H       -2.34950271       1.11688313       0.27206878
H       -0.68383931      -1.89392663      -0.48943845
H       -2.04155331      -1.44949691       0.57228509
H       -0.80128842       0.19104606       1.70980486
17
Frame=3 idx=008495 GeodesicLength=0.2586370776574956 rxn_smarts="[C:1]([C@@:2]1([H:11])[C:3]([H:12])([H:13])[C@@:4]2([H:14])[O:5][C:6]([H:15])([H:16])[C@@:7]12[H:17])([H:8])([H:9])[H:10]>>[C:1]([C@@:2]1([H:11])[C:3]([H:12])([H:13])[C@:7]1([C:6]([O+:5]=[C-:4][H:14])([H:15])[H:16])[H:17])([H:8])([H:9])[H:10]"
C        1.89509282      -0.60700693      -0.34561525
C        1.00540950       0.13547456       0.60465599
C       -0.06950526       1.25780738      -0.14284968
C       -1.79231800       1.05181570      -0.65791610
O       -1.80110358      -0.27353054      -1.10561040
C       -1.24393380      -1.05836609      -0.07839349
C       -0.40970426      -0.06786757       0.73406707
H        2.33215204      -1.47593969       0.15276788
H        2.71572075       0.02615663      -0.68771332
H        1.34989925      -0.95761426      -1.22242041
H        1.49932387       0.58161252       1.46095264
H        0.00922547       2.21112653       0.36269243
H        0.36069244       1.22524991      -1.13346408
H       -2.35046457       1.13214345       0.29765830
H       -0.67116242      -1.87900723      -0.51852694
H       -2.02418247      -1.48096710       0.56707901
H       -0.80514180       0.17891274       1.71263637
17
Frame=4 idx=008495 GeodesicLength=0.34467224308315725 rxn_smarts="[C:1]([C@@:2]1([H:11])[C:3]([H:12])([H:13])[C@@:4]2([H:14])[O:5][C:6]([H:15])([H:16])[C@@:7]12[H:17])([H:8])([H:9])[H:10]>>[C:1]([C@@:2]1([H:11])[C:3]([H:12])([H:13])[C@:7]1([C:6]([O+:5]=[C-:4][H:14])([H:15])[H:16])[H:17])([H:8])([H:9])[H:10]"
C        1.89566840      -0.61034360      -0.33700055
C        0.99922904       0.14836983       0.59493290
C       -0.05470687       1.26335518      -0.15337604
C       -1.80490201       1.04607654      -0.63610138
O       -1.83126138      -0.27165892      -1.09152297
C       -1.24063536      -1.06282056      -0.08317213
C       -0.41987077      -0.06530221       0.73035903
H        2.31603798      -1.48137396       0.17189163
H        2.72763105       0.01303556      -0.66967790
H        1.36111706      -0.95878776      -1.22126111
H        1.48981786       0.58997720       1.45583084
H        0.03017379       2.22304346       0.34004894
H        0.35626385       1.22782972      -1.15275316
H       -2.35095734       1.14789323       0.32290848
H       -0.65913702      -1.86304450      -0.54796641
H       -2.00586370      -1.51234454       0.56132789
H       -0.80860457       0.16609534       1.71553195
17
Frame=5 idx=008495 GeodesicLength=0.4306129220126 rxn_smarts="[C:1]([C@@:2]1([H:11])[C:3]([H:12])([H:13])[C@@:4]2([H:14])[O:5][C:6]([H:15])([H:16])[C@@:7]12[H:17])([H:8])([H:9])[H:10]>>[C:1]([C@@:2]1([H:11])[C:3]([H:12])([H:13])[C@:7]1([C:6]([O+:5]=[C-:4][H:14])([H:15])[H:16])[H:17])([H:8])([H:9])[H:10]"
C        1.89611472      -0.61365591      -0.32817300
C        0.99310063       0.16105317       0.58515901
C       -0.04001510       1.26866651      -0.16420776
C       -1.81732795       1.04010445      -0.61416157
O       -1.86166145      -0.27015040      -1.07628473
C       -1.23723329      -1.06714449      -0.08805672
C       -0.42999148      -0.06276522       0.72672389
H        2.29955697      -1.48662414       0.19092411
H        2.73920679      -0.00005924      -0.65099138
H        1.37252615      -0.96002695      -1.21985150
H        1.48026384       0.59854947       1.45045771
H        0.05080910       2.23460328       0.31691042
H        0.35165655       1.23033688      -1.17194350
H       -2.35095016       1.16411401       0.34777599
H       -0.64778646      -1.84600704      -0.57772031
H       -1.98659320      -1.54359321       0.55497358
H       -0.81167566       0.15259882       1.71846576
17
Frame=6 idx=008495 GeodesicLength=0.5164584570425509 rxn_smarts="[C:1]([C@@:2]1([H:11])[C:3]([H:12])([H:13])[C@@:4]2([H:14])[O:5][C:6]([H:15])([H:16])[C@@:7]12[H:17])([H:8])([H:9])[H:10]>>[C:1]([C@@:2]1([H:11])[C:3]([H:12])([H:13])[C@:7]1([C:6]([O+:5]=[C-:4][H:14])([H:15])[H:16])[H:17])([H:8])([H:9])[H:10]"
C        1.89641393      -0.61694556      -0.31913905
C        0.98702452       0.17353443       0.57533423
C       -0.02542604       1.27374647      -0.17533178
C       -1.82960845       1.03387911      -0.59210686
O       -1.89223944      -0.26904262      -1.05986701
C       -1.23371759      -1.07133282      -0.09305117
C       -0.44006399      -0.06026669       0.72318525
H        2.28269695      -1.49169221       0.20984915
H        2.75041759      -0.01312950      -0.63167465
H        1.38409814      -0.96134448      -1.21817703
H        1.47067312       0.60733132       1.44483636
H        0.07112746       2.24579557       0.29332136
H        0.34688034       1.23278906      -1.19102638
H       -2.35042111       1.18078644       0.37221068
H       -0.63712988      -1.82787144      -0.60774123
H       -1.96637009      -1.57467375       0.54796033
H       -0.81435544       0.13843664       1.72141779
17
Frame=7 idx=008495 GeodesicLength=0.6022034318104516 rxn_smarts="[C:1]([C@@:2]1([H:11])[C:3]([H:12])([H:13])[C@@:4]2([H:14])[O:5][C:6]([H:15])([H:16])[C@@:7]12[H:17])([H:8])([H:9])[H:10]>>[C:1]([C@@:2]1([H:11])[C:3]([H:12])([H:13])[C@:7]1([C:6]([O+:5]=[C-:4][H:14])([H:15])[H:16])[H:17])([H:8])([H:9])[H:10]"
C        1.89654809      -0.62021589      -0.30990831
C        0.98100113       0.18582323       0.56545976
C       -0.01093650       1.27860428      -0.18673272
C       -1.84175279       1.02737856      -0.56995026
O       -1.92291890      -0.26837415      -1.04224327
C       -1.23007707      -1.07538053      -0.09815735
C       -0.45008630      -0.05781516       0.71976798
H        2.26544826      -1.49658277       0.22864795
H        2.76123276      -0.02617998      -0.61175544
H        1.39580138      -0.96275420      -1.21622678
H        1.46105730       0.61632057       1.43897354
H        0.09112020       2.25661407       0.26933198
H        0.34194386       1.23521289      -1.20999069
H       -2.34934886       1.19788210       0.39615274
H       -0.62719267      -1.80861939      -0.63797044
H       -1.94519431      -1.60554444       0.54023253
H       -0.81664555       0.12363080       1.72436876
17
Frame=8 idx=008495 GeodesicLength=0.687851505866938 rxn_smarts="[C:1]([C@@:2]1([H:11])[C:3]([H:12])([H:13])[C@@:4]2([H:14])[O:5][C:6]([H:15])([H:16])[C@@:7]12[H:17])([H:8])([H:9])[H:10]>>[C:1]([C@@:2]1([H:11])[C:3]([H:12])([H:13])[C@:7]1([C:6]([O+:5]=[C-:4][H:14])([H:15])[H:16])[H:17])([H:8])([H:9])[H:10]"
C        1.89649749      -0.62346732      -0.30049875
C        0.97503132       0.19792255       0.55553589
C        0.00346287       1.28325160      -0.19838710
C       -1.85377155       1.02057952      -0.54771169
O       -1.95361138      -0.26819325      -1.02341150
C       -1.22630393      -1.07928399      -0.10336981
C       -0.46005487      -0.05542040       0.71649800
H        2.24780986      -1.50129539       0.24728962
H        2.77161617      -0.03920589      -0.59127445
H        1.40759434      -0.96427011      -1.21399347
H        1.45143132       0.62550047       1.43287591
H        0.11078589       2.26705470       0.24501133
H        0.33686770       1.23764319      -1.22881866
H       -2.34773281       1.21537154       0.41952753
H       -0.61798115      -1.78825214      -0.66831908
H       -1.92309086      -1.63614541       0.53174510
H       -0.81855042       0.10821031       1.72730113
17
Frame=9 idx=008495 GeodesicLength=0.7734040659124619 rxn_smarts="[C:1]([C@@:2]1([H:11])[C:3]([H:12])([H:13])[C@@:4]2([H:14])[O:5][C:6]([H:15])([H:16])[C@@:7]12[H:17])([H:8])([H:9])[H:10]>>[C:1]([C@@:2]1([H:11])[C:3]([H:12])([H:13])[C@:7]1([C:6]([O+:5]=[C-:4][H:14])([H:15])[H:16])[H:17])([H:8])([H:9])[H:10]"
C        1.89624714      -0.62670463      -0.29093222
C        0.96911642       0.20983547       0.54556582
C        0.01778002       1.28770701      -0.21027091
C       -1.86567519       1.01345997      -0.52541329
O       -1.98421884      -0.26854531      -1.00337381
C       -1.22238973      -1.08304067      -0.10868018
C       -0.46996860      -0.05308949       0.71340308
H        2.22978846      -1.50583860       0.26574226
H        2.78153763      -0.05220772      -0.57028127
H        1.41943754      -0.96590830      -1.21147657
H        1.44180918       0.63485083       1.42655675
H        0.13011771       2.27712364       0.22043160
H        0.33167060       1.24012746      -1.24749518
H       -2.34557801       1.23321660       0.44225407
H       -0.60950758      -1.76678044      -0.69869016
H       -1.90008797      -1.66641843       0.52245768
H       -0.82007880       0.09221262       1.73020232
17
Frame=10 idx=008495 GeodesicLength=0.8588661048659313 rxn_smarts="[C:1]([C@@:2]1([H:11])[C:3]([H:12])([H:13])[C@@:4]2([H:14])[O:5][C:6]([H:15])([H:16])[C@@:7]12[H:17])([H:8])([H:9])[H:10]>>[C:1]([C@@:2]1([H:11])[C:3]([H:12])([H:13])[C@:7]1([C:6]([O+:5]=[C-:4][H:14])([H:15])[H:16])[H:17])([H:8])([H:9])[H:10]"
C        1.89580994      -0.62995165      -0.28123864
C        0.96326218       0.22155883       0.53556086
C        0.03201002       1.29200470      -0.22236610
C       -1.87750285       1.00602146      -0.50308580
O       -2.01465188      -0.26945964      -0.98215440
C       -1.21832447      -1.08664963      -0.11407636
C       -0.47983336      -0.05082685       0.71052317
H        2.21143145      -1.51025272       0.28398060
H        2.79099870      -0.06520607      -0.54884225
H        1.43131920      -0.96769951      -1.20870203
H        1.43220542       0.64433917       1.42005475
H        0.14908347       2.28685168       0.19566691
H        0.32636297       1.24273356      -1.26603185
H       -2.34293455       1.25139842       0.46425479
H       -0.60176715      -1.74423523      -0.72899112
H       -1.87621614      -1.69630816       0.51235298
H       -0.82125295       0.07568164       1.73309450
17
Frame=11 idx=008495 GeodesicLength=0.9442475715972763 rxn_smarts="[C:1]([C@@:2]1([H:11])[C:3]([H:12])([H:13])[C@@:4]2([H:14])[O:5][C:6]([H:15])([H:16])[C@@:7]12[H:17])([H:8])([H:9])[H:10]>>[C:1]([C@@:2]1([H:11])[C:3]([H:12])([H:13])[C@:7]1([C:6]([O+:5]=[C-:4][H:14])([H:15])[H:16])[H:17])([H:8])([H:9])[H:10]"
C        1.89505408      -0.63311929      -0.27142511
C        0.95746950       0.23312319       0.52546499
C        0.04621682       1.29610141      -0.23460423
C       -1.88918303       0.99815696      -0.48071989
O       -2.04478217      -0.27099871      -0.95981021
C       -1.21409796      -1.09010757      -0.11955248
C       -0.48959610      -0.04864859       0.70781941
H        2.19253094      -1.51439464       0.30193115
H        2.79986409      -0.07813681      -0.52690614
H        1.44307833      -0.96956166      -1.20560650
H        1.42266124       0.65396788       1.41326264
H        0.16781976       2.29611572       0.17082193
H        0.32095905       1.24542766      -1.28428062
H       -2.33972204       1.26981926       0.48540672
H       -0.59472340      -1.72069594      -0.75907108
H       -1.85155486      -1.72569098       0.50141053
H       -0.82199424       0.05864211       1.73585888
17
Frame=12 idx=008495 GeodesicLength=1.0295016961704744 rxn_smarts="[C:1]([C@@:2]1([H:11])[C:3]([H:12])([H:13])[C@@:4]2([H:14])[O:5][C:6]([H:15])([H:16])[C@@:7]12[H:17])([H:8])([H:9])[H:10]>>[C:1]([C@@:2]1([H:11])[C:3]([H:12])([H:13])[C@:7]1([C:6]([O+:5]=[C-:4][H:14])([H:15])[H:16])[H:17])([H:8])([H:9])[H:10]"
C        1.89403209      -0.63627013      -0.26151854
C        0.95172707       0.24450367       0.51534431
C        0.06039743       1.30004762      -0.24698398
C       -1.90073859       0.98985656      -0.45834018
O       -2.07449073      -0.27326242      -0.93626713
C       -1.20973010      -1.09338418      -0.12510223
C       -0.49929472      -0.04654489       0.70534595
H        2.17329928      -1.51834495       0.31959647
H        2.80813997      -0.09101442      -0.50463643
H        1.45470212      -0.97159599      -1.20219509
H        1.41316401       0.66369724       1.40628582
H        0.18626027       2.30502866       0.14595407
H        0.31551558       1.24831190      -1.30229950
H       -2.33596444       1.28836024       0.50563995
H       -0.58854554      -1.69605609      -0.78881231
H       -1.82610657      -1.75452899       0.48950267
H       -0.82236712       0.04119619       1.73848616
17
Frame=13 idx=008495 GeodesicLength=1.1147011732163707 rxn_smarts="[C:1]([C@@:2]1([H:11])[C:3]([H:12])([H:13])[C@@:4]2([H:14])[O:5][C:6]([H:15])([H:16])[C@@:7]12[H:17])([H:8])([H:9])[H:10]>>[C:1]([C@@:2]1([H:11])[C:3]([H:12])([H:13])[C@:7]1([C:6]([O+:5]=[C-:4][H:14])([H:15])[H:16])[H:17])([H:8])([H:9])[H:10]"
C        1.89276433      -0.63942135      -0.25156628
C        0.94605260       0.25569848       0.50518351
C        0.07455021       1.30389185      -0.25948350
C       -1.91225032       0.98116561      -0.43597307
O       -2.10372225      -0.27620943      -0.91167017
C       -1.20519890      -1.09650381      -0.13069681
C       -0.50892511      -0.04452684       0.70314077
H        2.15373960      -1.52215014       0.33693794
H        2.81586319      -0.10387106      -0.48207092
H        1.46620432      -0.97380727      -1.19853390
H        1.40373809       0.67348155       1.39914003
H        0.20440639       2.31361758       0.12114465
H        0.31002546       1.25146400      -1.32009979
H       -2.33181623       1.30706851       0.52488566
H       -0.58308085      -1.67049338      -0.81812723
H       -1.79995529      -1.78276871       0.47673114
H       -0.82239522       0.02336442       1.74105798
17
Frame=14 idx=008495 GeodesicLength=1.1998440065049323 rxn_smarts="[C:1]([C@@:2]1([H:11])[C:3]([H:12])([H:13])[C@@:4]2([H:14])[O:5][C:6]([H:15])([H:16])[C@@:7]12[H:17])([H:8])([H:9])[H:10]>>[C:1]([C@@:2]1([H:11])[C:3]([H:12])([H:13])[C@:7]1([C:6]([O+:5]=[C-:4][H:14])([H:15])[H:16])[H:17])([H:8])([H:9])[H:10]"
C        1.89122040      -0.64255930      -0.24159759
C        0.94044492       0.26671138       0.49498030
C        0.08870817       1.30765168      -0.27206395
C       -1.92370352       0.97203967      -0.41363098
O       -2.13235122      -0.27989309      -0.88607094
C       -1.20050914      -1.09946239      -0.13631548
C       -0.51847999      -0.04259442       0.70120854
H        2.13384679      -1.52578899       0.35391107
H        2.82298921      -0.11668776      -0.45927047
H        1.47751037      -0.97619010      -1.19462222
H        1.39439868       0.68328810       1.39182665
H        0.22229914       2.32188909       0.09648507
H        0.30451747       1.25493975      -1.33763523
H       -2.32729115       1.32585173       0.54304094
H       -0.57834470      -1.64407615      -0.84686969
H       -1.77318105      -1.81032704       0.46308789
H       -0.82207436       0.00520783       1.74353607
17
Frame=15 idx=008495 GeodesicLength=1.2849186558502808 rxn_smarts="[C:1]([C@@:2]1([H:11])[C:3]([H:12])([H:13])[C@@:4]2([H:14])[O:5][C:6]([H:15])([H:16])[C@@:7]12[H:17])([H:8])([H:9])[H:10]>>[C:1]([C@@:2]1([H:11])[C:3]([H:12])([H:13])[C@:7]1([C:6]([O+:5]=[C-:4][H:14])([H:15])[H:16])[H:17])([H:8])([H:9])[H:10]"
C        1.88942929      -0.64571064      -0.23165389
C        0.93491150       0.27753099       0.48475002
C        0.10287505       1.31137069      -0.28470363
C       -1.93515355       0.96249587      -0.39134016
O       -2.16029703      -0.28432025      -0.85957502
C       -1.19565932      -1.10226152      -0.14193575
C       -0.52796456      -0.04074406       0.69958308
H        2.11370739      -1.52930508       0.37048984
H        2.82953696      -0.12948446      -0.43632024
H        1.48861024      -0.97877633      -1.19051211
H        1.38516303       0.69306544       1.38440004
H        0.23992972       2.32989256       0.07206238
H        0.29899818       1.25882186      -1.35492242
H       -2.32250525       1.34468660       0.56002992
H       -0.57429903      -1.61691768      -0.87493351
H       -1.74585817      -1.83713529       0.44861551
H       -0.82142444      -0.01320871       1.74596594
17
Frame=16 idx=008495 GeodesicLength=1.3699650992583445 rxn_smarts="[C:1]([C@@:2]1([H:11])[C:3]([H:12])([H:13])[C@@:4]2([H:14])[O:5][C:6]([H:15])([H:16])[C@@:7]12[H:17])([H:8])([H:9])[H:10]>>[C:1]([C@@:2]1([H:11])[C:3]([H:12])([H:13])[C@:7]1([C:6]([O+:5]=[C-:4][H:14])([H:15])[H:16])[H:17])([H:8])([H:9])[H:10]"
C        1.88721191      -0.64872633      -0.22174715
C        0.92944106       0.28817979       0.47444144
C        0.11717944       1.31496842      -0.29730109
C       -1.94641828       0.95232883      -0.36907857
O       -2.18736098      -0.28962161      -0.83222453
C       -1.19068415      -1.10487322      -0.14752578
C       -0.53732274      -0.03898452       0.69817658
H        2.09311251      -1.53245123       0.38656916
H        2.83530154      -0.14210865      -0.41322251
H        1.49923996      -0.98142963      -1.18607407
H        1.37607534       0.70279275       1.37670954
H        0.25752253       2.33747006       0.04800933
H        0.29354128       1.26306014      -1.37171894
H       -2.31728942       1.36329874       0.57566287
H       -0.57103488      -1.58906578      -0.90204903
H       -1.71816309      -1.86300739       0.43326999
H       -0.82035203      -0.03183035       1.74810274
