8
Frame=0 idx=006177 GeodesicLength=0.0 rxn_smarts="[C:1]([C:2]#[C:3][C:4]#[N:5])([H:6])([H:7])[H:8]>>[C:1]([C:2](=[C:3])[C:4]#[N:5])([H:6])([H:7])[H:8]"
C       -1.07965570       0.05660977       0.00151228
C        0.34260186       0.47000342      -0.09636198
C        1.28457081       1.33190809      -0.28012758
C        1.50330926      -0.43177338       0.06881163
N        2.25027969      -1.29880116       0.23110832
H       -1.71028765       0.92477052      -0.17845555
H       -1.28942368      -0.34254368       0.99314422
H       -1.30139456      -0.71017356      -0.73963134
8
Frame=1 idx=006177 GeodesicLength=0.067006749927127 rxn_smarts="[C:1]([C:2]#[C:3][C:4]#[N:5])([H:6])([H:7])[H:8]>>[C:1]([C:2](=[C:3])[C:4]#[N:5])([H:6])([H:7])[H:8]"
C       -1.08915888       0.06008620       0.00096072
C        0.33633318       0.45934126      -0.09357185
C        1.27531738       1.31948785      -0.27775015
C        1.52560431      -0.43699596       0.06963137
N        2.28310290      -1.29500158       0.22966025
H       -1.71135108       0.93419816      -0.18053781
H       -1.30405332      -0.33653636       0.99253453
H       -1.31579450      -0.70457956      -0.74092706
8
Frame=2 idx=006177 GeodesicLength=0.13400306808492662 rxn_smarts="[C:1]([C:2]#[C:3][C:4]#[N:5])([H:6])([H:7])[H:8]>>[C:1]([C:2](=[C:3])[C:4]#[N:5])([H:6])([H:7])[H:8]"
C       -1.09892601       0.06364044       0.00039707
C        0.32989566       0.44792165      -0.09108833
C        1.26592561       1.30637428      -0.27545751
C        1.54843646      -0.44251537       0.06864437
N        2.31678580      -1.29027778       0.23020897
H       -1.71222147       0.94409341      -0.18167981
H       -1.31871745      -0.33105393       0.99169146
H       -1.33117860      -0.69818269      -0.74271622
8
Frame=3 idx=006177 GeodesicLength=0.20100055022456054 rxn_smarts="[C:1]([C:2]#[C:3][C:4]#[N:5])([H:6])([H:7])[H:8]>>[C:1]([C:2](=[C:3])[C:4]#[N:5])([H:6])([H:7])[H:8]"
C       -1.10895897       0.06727302      -0.00018796
C        0.32329446       0.43602145      -0.08730867
C        1.25639445       1.29270423      -0.27233274
C        1.57190236      -0.44704257       0.07229871
N        2.35125617      -1.28611783       0.22506941
H       -1.71288669       0.95369237      -0.18553938
H       -1.33514657      -0.32336977       0.99129800
H       -1.34585521      -0.69316089      -0.74329737
8
Frame=4 idx=006177 GeodesicLength=0.2679887779475524 rxn_smarts="[C:1]([C:2]#[C:3][C:4]#[N:5])([H:6])([H:7])[H:8]>>[C:1]([C:2](=[C:3])[C:4]#[N:5])([H:6])([H:7])[H:8]"
C       -1.11925330       0.07099067      -0.00077047
C        0.31649903       0.42313491      -0.08446310
C        1.24668912       1.27818280      -0.26966737
C        1.59591822      -0.45235835       0.07156636
N        2.38663948      -1.28035441       0.22495021
H       -1.71329174       0.96406865      -0.18702654
H       -1.35096604      -0.31721401       0.99042276
H       -1.36223478      -0.68645026      -0.74501183
8
Frame=5 idx=006177 GeodesicLength=0.33498577917063654 rxn_smarts="[C:1]([C:2]#[C:3][C:4]#[N:5])([H:6])([H:7])[H:8]>>[C:1]([C:2](=[C:3])[C:4]#[N:5])([H:6])([H:7])[H:8]"
C       -1.12981417       0.07479554      -0.00136241
C        0.30950145       0.40939769      -0.08163287
C        1.23680251       1.26286425      -0.26690381
C        1.62053077      -0.45772991       0.07011459
N        2.42294063      -1.27381764       0.22547565
H       -1.71341606       0.97479163      -0.18822412
H       -1.36719014      -0.31103830       0.98944259
H       -1.37935499      -0.67926326      -0.74690962
8
Frame=6 idx=006177 GeodesicLength=0.40197062923765325 rxn_smarts="[C:1]([C:2]#[C:3][C:4]#[N:5])([H:6])([H:7])[H:8]>>[C:1]([C:2](=[C:3])[C:4]#[N:5])([H:6])([H:7])[H:8]"
C       -1.14062730       0.07867886      -0.00200499
C        0.30230360       0.39502401      -0.07744104
C        1.22672585       1.24686337      -0.26321574
C        1.64583361      -0.46207294       0.07329944
N        2.46003695      -1.26769961       0.22034975
H       -1.71322382       0.98523633      -0.19207565
H       -1.38519034      -0.30268548       0.98881122
H       -1.39585856      -0.67334455      -0.74772298
8
Frame=7 idx=006177 GeodesicLength=0.46898241805962765 rxn_smarts="[C:1]([C:2]#[C:3][C:4]#[N:5])([H:6])([H:7])[H:8]>>[C:1]([C:2](=[C:3])[C:4]#[N:5])([H:6])([H:7])[H:8]"
C       -1.15170739       0.08266472      -0.00260785
C        0.29485711       0.37944569      -0.07450043
C        1.21644445       1.22979133      -0.26018694
C        1.67168900      -0.46740957       0.07093928
N        2.49817230      -1.25958915       0.22150568
H       -1.71267632       0.99658741      -0.19299714
H       -1.40239292      -0.29615800       0.98768123
H       -1.41438623      -0.66533243      -0.74983383
8
Frame=8 idx=006177 GeodesicLength=0.535992709838147 rxn_smarts="[C:1]([C:2]#[C:3][C:4]#[N:5])([H:6])([H:7])[H:8]>>[C:1]([C:2](=[C:3])[C:4]#[N:5])([H:6])([H:7])[H:8]"
C       -1.16302751       0.08672053      -0.00333084
C        0.28716880       0.36332814      -0.06917585
C        1.20595266       1.21205634      -0.25552905
C        1.69829021      -0.47094579       0.07692924
N        2.53706669      -1.25266386       0.21268142
H       -1.71173423       1.00723307      -0.19854421
H       -1.42229305      -0.28601161       0.98709516
H       -1.43142357      -0.65971683      -0.75012588
8
Frame=9 idx=006177 GeodesicLength=0.6030158982867699 rxn_smarts="[C:1]([C:2]#[C:3][C:4]#[N:5])([H:6])([H:7])[H:8]>>[C:1]([C:2](=[C:3])[C:4]#[N:5])([H:6])([H:7])[H:8]"
C       -1.17455959       0.09089851      -0.00392227
C        0.27917303       0.34558249      -0.06645269
C        1.19523578       1.19291929      -0.25239925
C        1.72543637      -0.47642365       0.07235692
N        2.57685412      -1.24240479       0.21588942
H       -1.71030468       1.01930322      -0.19853378
H       -1.44014274      -0.27946441       0.98574348
H       -1.45169230      -0.65041066      -0.75268185
8
Frame=10 idx=006177 GeodesicLength=0.6700169422750504 rxn_smarts="[C:1]([C:2]#[C:3][C:4]#[N:5])([H:6])([H:7])[H:8]>>[C:1]([C:2](=[C:3])[C:4]#[N:5])([H:6])([H:7])[H:8]"
C       -1.18631855       0.09515824      -0.00458335
C        0.27087810       0.32692815      -0.06272219
C        1.18430559       1.17282026      -0.24841990
C        1.75322974      -0.48111242       0.07088949
N        2.61750465      -1.23200733       0.21522899
H       -1.70839838       1.03125450      -0.20028573
H       -1.45939688      -0.27131981       0.98451924
H       -1.47180426      -0.64172160      -0.75462654
8
Frame=11 idx=006177 GeodesicLength=0.7370162421669537 rxn_smarts="[C:1]([C:2]#[C:3][C:4]#[N:5])([H:6])([H:7])[H:8]>>[C:1]([C:2](=[C:3])[C:4]#[N:5])([H:6])([H:7])[H:8]"
C       -1.19828859       0.09947874      -0.00541884
C        0.26226000       0.30761186      -0.05662830
C        1.17316982       1.15186641      -0.24267675
C        1.78171522      -0.48405317       0.07730964
N        2.65891578      -1.22250851       0.20517015
H       -1.70597843       1.04254054      -0.20627476
H       -1.48114822      -0.25981311       0.98361192
H       -1.49064557      -0.63512276      -0.75509306
8
Frame=12 idx=006177 GeodesicLength=0.8039609092749248 rxn_smarts="[C:1]([C:2]#[C:3][C:4]#[N:5])([H:6])([H:7])[H:8]>>[C:1]([C:2](=[C:3])[C:4]#[N:5])([H:6])([H:7])[H:8]"
C       -1.21040689       0.10391308      -0.00609799
C        0.25326003       0.28666698      -0.05269485
C        1.16179781       1.12940381      -0.23822922
C        1.81069715      -0.48840879       0.07540147
N        2.70107964      -1.21010316       0.20450504
H       -1.70294957       1.05491151      -0.20798875
H       -1.50138246      -0.25083471       0.98224753
H       -1.51209571      -0.62554873      -0.75714323
8
Frame=13 idx=006177 GeodesicLength=0.8708808919902137 rxn_smarts="[C:1]([C:2]#[C:3][C:4]#[N:5])([H:6])([H:7])[H:8]>>[C:1]([C:2](=[C:3])[C:4]#[N:5])([H:6])([H:7])[H:8]"
C       -1.22269055       0.10840859      -0.00688642
C        0.24386857       0.26479374      -0.04758744
C        1.15024421       1.10582822      -0.23271190
C        1.84027007      -0.49181075       0.07696577
N        2.74391483      -1.19752070       0.19952141
H       -1.69932574       1.06704303      -0.21160513
H       -1.52297522      -0.24010795       0.98092560
H       -1.53330617      -0.61663417      -0.75862190
8
Frame=14 idx=006177 GeodesicLength=0.9377579079620662 rxn_smarts="[C:1]([C:2]#[C:3][C:4]#[N:5])([H:6])([H:7])[H:8]>>[C:1]([C:2](=[C:3])[C:4]#[N:5])([H:6])([H:7])[H:8]"
C       -1.23508624       0.11300904      -0.00754732
C        0.23401370       0.24142251      -0.04400620
C        1.13850276       1.08068090      -0.22805588
C        1.87027709      -0.49604689       0.07294202
N        2.78738596      -1.18257116       0.20077408
H       -1.69503387       1.07988615      -0.21239228
H       -1.54368204      -0.23083601       0.97936358
H       -1.55637737      -0.60554455      -0.76107801
8
Frame=15 idx=006177 GeodesicLength=1.0046097426588734 rxn_smarts="[C:1]([C:2]#[C:3][C:4]#[N:5])([H:6])([H:7])[H:8]>>[C:1]([C:2](=[C:3])[C:4]#[N:5])([H:6])([H:7])[H:8]"
C       -1.24762543       0.11767488      -0.00830266
C        0.22367761       0.21705500      -0.03960216
C        1.12665209       1.05420559      -0.22253002
C        1.90075408      -0.49952326       0.07139276
N        2.83148609      -1.16706676       0.19894119
H       -1.69008504       1.09256550      -0.21444121
H       -1.56542786      -0.22024101       0.97776598
H       -1.57943154      -0.59466993      -0.76322388
8
Frame=16 idx=006177 GeodesicLength=1.071431483816054 rxn_smarts="[C:1]([C:2]#[C:3][C:4]#[N:5])([H:6])([H:7])[H:8]>>[C:1]([C:2](=[C:3])[C:4]#[N:5])([H:6])([H:7])[H:8]"
C       -1.26025012       0.12238036      -0.00921828
C        0.21281563       0.19183124      -0.03383095
C        1.11472174       1.02642519      -0.21575733
C        1.93170918      -0.50181072       0.07415556
N        2.87593516      -1.15138573       0.19197117
H       -1.68443227       1.10483946      -0.21854574
H       -1.58847933      -0.20777189       0.97609720
H       -1.60201999      -0.58450790      -0.76487163
