9
Frame=0 idx=006703 GeodesicLength=0.0 rxn_smarts="[O:1]=[C:2]([c:3]1[n:4][c:5]([H:9])[n:6][o:7]1)[H:8]>>[O:1]([C+:2]=[C:3]1[N-:4][C+:5]([H:9])[N-:6][O:7]1)[H:8]"
O       -2.48232194      -0.47156194      -0.16557136
C       -1.64368331       0.49424803      -0.01490822
C       -0.20805332       0.14187954       0.00757508
N        0.78705034       0.95771226       0.13878366
C        1.84988170       0.10443064       0.09135333
N        1.53033034      -1.14680589      -0.05781913
O        0.16504857      -1.13312586      -0.11475809
H       -2.87734159       0.63562314      -0.05389135
H        2.87908918       0.41760010       0.16923609
9
Frame=1 idx=006703 GeodesicLength=0.030094829926933044 rxn_smarts="[O:1]=[C:2]([c:3]1[n:4][c:5]([H:9])[n:6][o:7]1)[H:8]>>[O:1]([C+:2]=[C:3]1[N-:4][C+:5]([H:9])[N-:6][O:7]1)[H:8]"
O       -2.48016209      -0.47199511      -0.15699907
C       -1.64525626       0.48583070       0.03663207
C       -0.20803829       0.14080359      -0.00774635
N        0.78603805       0.95835454       0.12208178
C        1.84956639       0.10489629       0.09141874
N        1.53175822      -1.14733895      -0.05378197
O        0.16711329      -1.13382526      -0.12837705
H       -2.87896232       0.64479376      -0.08245849
H        2.87794302       0.41848045       0.17923034
9
Frame=2 idx=006703 GeodesicLength=0.06062125857828762 rxn_smarts="[O:1]=[C:2]([c:3]1[n:4][c:5]([H:9])[n:6][o:7]1)[H:8]>>[O:1]([C+:2]=[C:3]1[N-:4][C+:5]([H:9])[N-:6][O:7]1)[H:8]"
O       -2.47876194      -0.47275823      -0.14321650
C       -1.64637307       0.47618686       0.08353533
C       -0.20953466       0.13807384      -0.01029032
N        0.78353192       0.95833054       0.11007045
C        1.84821963       0.10593693       0.08918140
N        1.53282786      -1.14670311      -0.05712958
O        0.16851218      -1.13482017      -0.13921162
H       -2.87386969       0.65547413      -0.11981598
H        2.87544777       0.42027921       0.18687683
9
Frame=3 idx=006703 GeodesicLength=0.09099534169592162 rxn_smarts="[O:1]=[C:2]([c:3]1[n:4][c:5]([H:9])[n:6][o:7]1)[H:8]>>[O:1]([C+:2]=[C:3]1[N-:4][C+:5]([H:9])[N-:6][O:7]1)[H:8]"
O       -2.47763631      -0.47303123      -0.13274614
C       -1.64721309       0.46723237       0.12008745
C       -0.21142961       0.13516533      -0.01056077
N        0.78041995       0.95770132       0.10429132
C        1.84624477       0.10657828       0.09177048
N        1.53345024      -1.14611593      -0.05865255
O        0.16959589      -1.13576445      -0.14880854
H       -2.86652191       0.66518897      -0.15126624
H        2.87309007       0.42304535       0.18588499
9
Frame=4 idx=006703 GeodesicLength=0.12153969167556436 rxn_smarts="[O:1]=[C:2]([c:3]1[n:4][c:5]([H:9])[n:6][o:7]1)[H:8]>>[O:1]([C+:2]=[C:3]1[N-:4][C+:5]([H:9])[N-:6][O:7]1)[H:8]"
O       -2.47657228      -0.47303081      -0.12489949
C       -1.64832861       0.45878155       0.15109177
C       -0.21369357       0.13174514      -0.00642714
N        0.77675647       0.95672346       0.10302900
C        1.84440637       0.10777755       0.08961443
N        1.53407533      -1.14534659      -0.06201952
O        0.17016979      -1.13730714      -0.15336091
H       -2.85748065       0.67461759      -0.18096667
H        2.87066714       0.42603925       0.18393852
9
Frame=5 idx=006703 GeodesicLength=0.15256248363451663 rxn_smarts="[O:1]=[C:2]([c:3]1[n:4][c:5]([H:9])[n:6][o:7]1)[H:8]>>[O:1]([C+:2]=[C:3]1[N-:4][C+:5]([H:9])[N-:6][O:7]1)[H:8]"
O       -2.47574311      -0.47295884      -0.11697693
C       -1.64945628       0.45093101       0.17806334
C       -0.21599021       0.12824517      -0.00162118
N        0.77305095       0.95576713       0.10160679
C        1.84256532       0.10910507       0.08641457
N        1.53470946      -1.14444695      -0.06652541
O        0.17060779      -1.13899185      -0.15656632
H       -2.84781809       0.68345821      -0.20802479
H        2.86807417       0.42889105       0.18362993
9
Frame=6 idx=006703 GeodesicLength=0.18347541176932644 rxn_smarts="[O:1]=[C:2]([c:3]1[n:4][c:5]([H:9])[n:6][o:7]1)[H:8]>>[O:1]([C+:2]=[C:3]1[N-:4][C+:5]([H:9])[N-:6][O:7]1)[H:8]"
O       -2.47503696      -0.47267028      -0.11146864
C       -1.65105205       0.44324551       0.20242146
C       -0.21846901       0.12449874       0.00585376
N        0.76906433       0.95441824       0.10499126
C        1.84046938       0.11006954       0.08679668
N        1.53519219      -1.14352332      -0.07059819
O        0.17082952      -1.14065672      -0.15857137
H       -2.83691231       0.69212105      -0.23522781
H        2.86591492       0.43249724       0.17580283
9
Frame=7 idx=006703 GeodesicLength=0.21439334139423194 rxn_smarts="[O:1]=[C:2]([c:3]1[n:4][c:5]([H:9])[n:6][o:7]1)[H:8]>>[O:1]([C+:2]=[C:3]1[N-:4][C+:5]([H:9])[N-:6][O:7]1)[H:8]"
O       -2.47433519      -0.47229479      -0.10605856
C       -1.65256470       0.43585951       0.22462044
C       -0.22090354       0.12070120       0.01294418
N        0.76501324       0.95315962       0.10697692
C        1.83838167       0.11128499       0.08509420
N        1.53564062      -1.14253510      -0.07504589
O        0.17097011      -1.14247790      -0.15977792
H       -2.82559247       0.70043057      -0.25979777
H        2.86339026       0.43587190       0.17104440
9
Frame=8 idx=006703 GeodesicLength=0.2454367260110254 rxn_smarts="[O:1]=[C:2]([c:3]1[n:4][c:5]([H:9])[n:6][o:7]1)[H:8]>>[O:1]([C+:2]=[C:3]1[N-:4][C+:5]([H:9])[N-:6][O:7]1)[H:8]"
O       -2.47367814      -0.47186813      -0.10086339
C       -1.65406951       0.42869338       0.24510355
C       -0.22332528       0.11689833       0.01971539
N        0.76093675       0.95194005       0.10841055
C        1.83628773       0.11260153       0.08259585
N        1.53605348      -1.14154330      -0.07941859
O        0.17106635      -1.14436969      -0.16064445
H       -2.81401664       0.70848184      -0.28244940
H        2.86074527       0.43916599       0.16755047
9
Frame=9 idx=006703 GeodesicLength=0.27653577004680613 rxn_smarts="[O:1]=[C:2]([c:3]1[n:4][c:5]([H:9])[n:6][o:7]1)[H:8]>>[O:1]([C+:2]=[C:3]1[N-:4][C+:5]([H:9])[N-:6][O:7]1)[H:8]"
O       -2.47305118      -0.47137615      -0.09614068
C       -1.65565082       0.42169865       0.26421318
C       -0.22574783       0.11303027       0.02671547
N        0.75679207       0.95068964       0.11014664
C        1.83414548       0.11395227       0.07996652
N        1.53642551      -1.14052147      -0.08386781
O        0.17109988      -1.14633913      -0.16095231
H       -2.80206029       0.71635724      -0.30400080
H        2.85804719       0.44250869       0.16391979
9
Frame=10 idx=006703 GeodesicLength=0.307678172726368 rxn_smarts="[O:1]=[C:2]([c:3]1[n:4][c:5]([H:9])[n:6][o:7]1)[H:8]>>[O:1]([C+:2]=[C:3]1[N-:4][C+:5]([H:9])[N-:6][O:7]1)[H:8]"
O       -2.47246015      -0.47088882      -0.09069366
C       -1.65713701       0.41506179       0.28222874
C       -0.22812599       0.10916578       0.03343638
N        0.75263170       0.94958682       0.11028276
C        1.83202067       0.11556488       0.07515129
N        1.53678338      -1.13937355      -0.08933725
O        0.17105212      -1.14844647      -0.16055939
H       -2.78985147       0.72384409      -0.32430147
H        2.85508676       0.44548547       0.16379260
9
Frame=11 idx=006703 GeodesicLength=0.33886140002446097 rxn_smarts="[O:1]=[C:2]([c:3]1[n:4][c:5]([H:9])[n:6][o:7]1)[H:8]>>[O:1]([C+:2]=[C:3]1[N-:4][C+:5]([H:9])[N-:6][O:7]1)[H:8]"
O       -2.47188587      -0.47036960      -0.08509941
C       -1.65864352       0.40871408       0.29930632
C       -0.23047575       0.10525790       0.04043618
N        0.74842022       0.94852078       0.11007173
C        1.82984647       0.11727382       0.06968561
N        1.53709699      -1.13810185      -0.09561284
O        0.17092889      -1.15064774      -0.15946914
H       -2.77725929       0.73102593      -0.34401387
H        2.85197187       0.44832668       0.16469543
9
Frame=12 idx=006703 GeodesicLength=0.37009977392558413 rxn_smarts="[O:1]=[C:2]([c:3]1[n:4][c:5]([H:9])[n:6][o:7]1)[H:8]>>[O:1]([C+:2]=[C:3]1[N-:4][C+:5]([H:9])[N-:6][O:7]1)[H:8]"
O       -2.47133037      -0.46979940      -0.07948982
C       -1.66020762       0.40262258       0.31561447
C       -0.23279777       0.10127624       0.04792544
N        0.74413659       0.94747214       0.10969222
C        1.82761054       0.11907756       0.06368437
N        1.53736313      -1.13668383      -0.10281786
O        0.17074025      -1.15297603      -0.15753192
H       -2.76421414       0.73794354      -0.36338397
H        2.84869940       0.45106719       0.16630708
9
Frame=13 idx=006703 GeodesicLength=0.401391518689741 rxn_smarts="[O:1]=[C:2]([c:3]1[n:4][c:5]([H:9])[n:6][o:7]1)[H:8]>>[O:1]([C+:2]=[C:3]1[N-:4][C+:5]([H:9])[N-:6][O:7]1)[H:8]"
O       -2.47078709      -0.46914638      -0.07419428
C       -1.66192388       0.39673414       0.33126939
C       -0.23510197       0.09716054       0.05635071
N        0.73974042       0.94637982       0.10974869
C        1.82527585       0.12094546       0.05752009
N        1.53755257      -1.13508000      -0.11109131
O        0.17048627      -1.15546361      -0.15446463
H       -2.75054264       0.74465996      -0.38281628
H        2.84530048       0.45381008       0.16767763
9
Frame=14 idx=006703 GeodesicLength=0.4327262992951167 rxn_smarts="[O:1]=[C:2]([c:3]1[n:4][c:5]([H:9])[n:6][o:7]1)[H:8]>>[O:1]([C+:2]=[C:3]1[N-:4][C+:5]([H:9])[N-:6][O:7]1)[H:8]"
O       -2.47022626      -0.46843950      -0.06891854
C       -1.66375722       0.39118959       0.34623345
C       -0.23736079       0.09296882       0.06557981
N        0.73526657       0.94528990       0.10997868
C        1.82284989       0.12289597       0.05103476
N        1.53762939      -1.13319810      -0.12101632
O        0.17017318      -1.15813589      -0.14994861
H       -2.73632586       0.75102607      -0.40238200
H        2.84175110       0.45640314       0.16943876
9
Frame=15 idx=006703 GeodesicLength=0.46411375974033653 rxn_smarts="[O:1]=[C:2]([c:3]1[n:4][c:5]([H:9])[n:6][o:7]1)[H:8]>>[O:1]([C+:2]=[C:3]1[N-:4][C+:5]([H:9])[N-:6][O:7]1)[H:8]"
O       -2.46963119      -0.46766315      -0.06391979
C       -1.66579382       0.38596014       0.36059249
C       -0.23957701       0.08865962       0.07603519
N        0.73068100       0.94417244       0.11084342
C        1.82029619       0.12494195       0.04428269
N        1.53751165      -1.13095932      -0.13286513
O        0.16981884      -1.16103303      -0.14359654
H       -2.72137316       0.75705558      -0.42242499
H        2.83806750       0.45886577       0.17105266
9
Frame=16 idx=006703 GeodesicLength=0.4955577098672439 rxn_smarts="[O:1]=[C:2]([c:3]1[n:4][c:5]([H:9])[n:6][o:7]1)[H:8]>>[O:1]([C+:2]=[C:3]1[N-:4][C+:5]([H:9])[N-:6][O:7]1)[H:8]"
O       -2.46896159      -0.46680373      -0.05963287
C       -1.66816870       0.38099723       0.37437682
C       -0.24176944       0.08417580       0.08827555
N        0.72594630       0.94295821       0.11329774
C        1.81755168       0.12709025       0.03736664
N        1.53705417      -1.12828909      -0.14673781
O        0.16943872      -1.16418180      -0.13499888
H       -2.70540650       0.76277636      -0.44339045
H        2.83431536       0.46127677       0.17144326
