16
Frame=0 idx=006766 GeodesicLength=0.0 rxn_smarts="[C:1](/[N:2]=[C:3](/[O:4][C:5]([C:6]([O:7][H:16])([H:14])[H:15])([H:12])[H:13])[H:11])([H:8])([H:9])[H:10]>>[C:1](/[N:2]=[C:3](/[O:4][C:5]([C:6](=[O:7])[H:15])([H:13])[H:14])[H:11])([H:8])([H:9])[H:10].[H:12][H:16]"
C        2.81615755      -0.02138363      -1.14927341
N        1.47944007      -0.13867600      -0.61199705
C        1.19961103       0.46313894       0.43549204
O       -0.06048179       0.40655097       1.01101415
C       -1.06909658      -0.07935923       0.31714156
C       -2.23640171      -0.64296693       1.00326049
O       -3.33616008      -0.70724123       0.31692568
H        3.24954559      -1.01820689      -1.23408457
H        2.75509918       0.39544102      -2.15500217
H        3.47773595       0.60671425      -0.54220179
H        1.84558966       1.08805385       1.05144275
H       -2.36864652       1.25826485      -0.45017708
H       -0.87086778      -0.34528185      -0.71715205
H       -1.64922334      -1.63965125       0.99033407
H       -2.26051698      -0.34208081       2.06846833
H       -2.97178431       0.71668396      -0.33419088
16
Frame=1 idx=006766 GeodesicLength=0.12070728435989844 rxn_smarts="[C:1](/[N:2]=[C:3](/[O:4][C:5]([C:6]([O:7][H:16])([H:14])[H:15])([H:12])[H:13])[H:11])([H:8])([H:9])[H:10]>>[C:1](/[N:2]=[C:3](/[O:4][C:5]([C:6](=[O:7])[H:15])([H:13])[H:14])[H:11])([H:8])([H:9])[H:10].[H:12][H:16]"
C        2.80576739      -0.04011083      -1.14698752
N        1.48067119      -0.16700106      -0.58418096
C        1.21297875       0.44361845       0.46281942
O       -0.05430764       0.44655560       1.01837722
C       -1.07423927      -0.02921282       0.32093833
C       -2.22344250      -0.63937617       1.00230755
O       -3.31117975      -0.75789241       0.30410390
H        3.24127726      -1.03473722      -1.24655021
H        2.72575993       0.38323871      -2.14870932
H        3.47652783       0.58584975      -0.54766664
H        1.87434824       1.05849385       1.07277511
H       -2.41940780       1.24652646      -0.46109271
H       -0.87469742      -0.21564833      -0.73036973
H       -1.56523379      -1.60581095       0.97284524
H       -2.27101088      -0.34325301       2.06723698
H       -3.02381153       0.66875997      -0.35584667
16
Frame=2 idx=006766 GeodesicLength=0.24060777275353498 rxn_smarts="[C:1](/[N:2]=[C:3](/[O:4][C:5]([C:6]([O:7][H:16])([H:14])[H:15])([H:12])[H:13])[H:11])([H:8])([H:9])[H:10]>>[C:1](/[N:2]=[C:3](/[O:4][C:5]([C:6](=[O:7])[H:15])([H:13])[H:14])[H:11])([H:8])([H:9])[H:10].[H:12][H:16]"
C        2.79229607      -0.05614508      -1.14657484
N        1.47671332      -0.18604364      -0.56293823
C        1.22350214       0.42690725       0.48776878
O       -0.04590924       0.48122228       1.02916736
C       -1.07812377       0.01670231       0.32869097
C       -2.21167458      -0.63463838       1.00270595
O       -3.28192296      -0.80648466       0.28867190
H        3.22200139      -1.05114424      -1.26648066
H        2.69945647       0.38116030      -2.14122158
H        3.47544829       0.55832599      -0.54919614
H        1.90170250       1.02683499       1.09438599
H       -2.45999447       1.23136194      -0.47545005
H       -0.87611471      -0.09410156      -0.73288873
H       -1.48692280      -1.56851739       0.96329800
H       -2.28592580      -0.34034870       2.06580100
H       -3.06453184       0.61490858      -0.38573971
16
Frame=3 idx=006766 GeodesicLength=0.3600460606369198 rxn_smarts="[C:1](/[N:2]=[C:3](/[O:4][C:5]([C:6]([O:7][H:16])([H:14])[H:15])([H:12])[H:13])[H:11])([H:8])([H:9])[H:10]>>[C:1](/[N:2]=[C:3](/[O:4][C:5]([C:6](=[O:7])[H:15])([H:13])[H:14])[H:11])([H:8])([H:9])[H:10].[H:12][H:16]"
C        2.77629009      -0.06976719      -1.14792297
N        1.46949611      -0.20041061      -0.54539616
C        1.23210489       0.41132914       0.51119207
O       -0.03572550       0.51033460       1.04350598
C       -1.08097859       0.05872243       0.33996185
C       -2.20163205      -0.62908697       1.00391773
O       -3.24945621      -0.85205057       0.27089803
H        3.19706646      -1.06575048      -1.29002911
H        2.67312370       0.38412205      -2.13413988
H        3.47288780       0.52975112      -0.55070788
H        1.92756879       0.99392011       1.11542201
H       -2.49081796       1.21492006      -0.49163646
H       -0.87560301       0.02097561      -0.72624254
H       -1.41494218      -1.52913611       0.95990620
H       -2.30540303      -0.33516692       2.06383215
H       -3.09397931       0.55729373      -0.42256102
16
Frame=4 idx=006766 GeodesicLength=0.4792140399425169 rxn_smarts="[C:1](/[N:2]=[C:3](/[O:4][C:5]([C:6]([O:7][H:16])([H:14])[H:15])([H:12])[H:13])[H:11])([H:8])([H:9])[H:10]>>[C:1](/[N:2]=[C:3](/[O:4][C:5]([C:6](=[O:7])[H:15])([H:13])[H:14])[H:11])([H:8])([H:9])[H:10].[H:12][H:16]"
C        2.75880218      -0.08220804      -1.15030420
N        1.45906315      -0.20898998      -0.53225596
C        1.23865670       0.39881920       0.53176567
O       -0.02457888       0.53569122       1.06029443
C       -1.08346135       0.09795460       0.35398946
C       -2.19281084      -0.62366889       1.00571498
O       -3.21413739      -0.89560571       0.25197762
H        3.16619148      -1.08032199      -1.31527750
H        2.64983350       0.39036895      -2.12712891
H        3.47002250       0.49809717      -0.55117542
H        1.95158848       0.96202231       1.13427256
H       -2.51483380       1.19814970      -0.50763019
H       -0.87478451       0.13221092      -0.71192189
H       -1.34779306      -1.48850511       0.96054365
H       -2.32802108      -0.33016605       2.06139345
H       -3.11373707       0.49615169      -0.46425774
16
Frame=5 idx=006766 GeodesicLength=0.5982818983835734 rxn_smarts="[C:1](/[N:2]=[C:3](/[O:4][C:5]([C:6]([O:7][H:16])([H:14])[H:15])([H:12])[H:13])[H:11])([H:8])([H:9])[H:10]>>[C:1](/[N:2]=[C:3](/[O:4][C:5]([C:6](=[O:7])[H:15])([H:13])[H:14])[H:11])([H:8])([H:9])[H:10].[H:12][H:16]"
C        2.73917457      -0.09314307      -1.15405514
N        1.44660321      -0.21550396      -0.52063960
C        1.24411520       0.38690900       0.55150092
O       -0.01241948       0.55684600       1.08022097
C       -1.08525356       0.13427882       0.37095827
C       -2.18569358      -0.61803322       1.00780632
O       -3.17628826      -0.93635930       0.23139298
H        3.13226994      -1.09306789      -1.34173132
H        2.62505466       0.39804590      -2.12111801
H        3.46511658       0.46735629      -0.55355610
H        1.97424137       0.93093330       1.15127234
H       -2.53100757       1.18179728      -0.52398203
H       -0.87284041       0.23951216      -0.68984655
H       -1.28618605      -1.44718169       0.96561249
H       -2.35467895      -0.32482871       2.05789036
H       -3.12220766       0.43243908      -0.51172591
16
Frame=6 idx=006766 GeodesicLength=0.7173659231124683 rxn_smarts="[C:1](/[N:2]=[C:3](/[O:4][C:5]([C:6]([O:7][H:16])([H:14])[H:15])([H:12])[H:13])[H:11])([H:8])([H:9])[H:10]>>[C:1](/[N:2]=[C:3](/[O:4][C:5]([C:6](=[O:7])[H:15])([H:13])[H:14])[H:11])([H:8])([H:9])[H:10].[H:12][H:16]"
C        2.71801870      -0.10326422      -1.15873840
N        1.43165722      -0.21796225      -0.51175374
C        1.24815150       0.37742025       0.56921690
O        0.00013405       0.57557549       1.10220905
C       -1.08691672       0.16860027       0.39031995
C       -2.17976184      -0.61265058       1.01020454
O       -3.13603195      -0.97520265       0.21031719
H        3.09394806      -1.10543097      -1.36877987
H        2.60174092       0.40702506      -2.11565941
H        3.45922359       0.43499698      -0.55636995
H        1.99559119       0.90075524       1.16628982
H       -2.54157013       1.16582639      -0.54006742
H       -0.87122495       0.34430968      -0.66079264
H       -1.22878645      -1.40533160       0.97394246
H       -2.38408026      -0.32035068       2.05344755
H       -3.12009291       0.36568359      -0.56378602
16
Frame=7 idx=006766 GeodesicLength=0.836593079379898 rxn_smarts="[C:1](/[N:2]=[C:3](/[O:4][C:5]([C:6]([O:7][H:16])([H:14])[H:15])([H:12])[H:13])[H:11])([H:8])([H:9])[H:10]>>[C:1](/[N:2]=[C:3](/[O:4][C:5]([C:6](=[O:7])[H:15])([H:13])[H:14])[H:11])([H:8])([H:9])[H:10].[H:12][H:16]"
C        2.69496118      -0.11255458      -1.16443578
N        1.41449608      -0.21743793      -0.50458101
C        1.25105572       0.36966324       0.58561968
O        0.01303323       0.59206273       1.12639503
C       -1.08843209       0.20112930       0.41214157
C       -2.17510014      -0.60739819       1.01277766
O       -3.09349444      -1.01192644       0.18879921
H        3.05188546      -1.11697194      -1.39618582
H        2.57830356       0.41656471      -2.11108630
H        3.45165552       0.40216442      -0.56058586
H        2.01584897       0.87134793       1.17949844
H       -2.54629792       1.15038169      -0.55633988
H       -0.86992055       0.44671103      -0.62469512
H       -1.17557859      -1.36317930       0.98553447
H       -2.41632819      -0.31665875       2.04775342
H       -3.10608778       0.29610209      -0.62060970
16
Frame=8 idx=006766 GeodesicLength=0.9561329957294902 rxn_smarts="[C:1](/[N:2]=[C:3](/[O:4][C:5]([C:6]([O:7][H:16])([H:14])[H:15])([H:12])[H:13])[H:11])([H:8])([H:9])[H:10]>>[C:1](/[N:2]=[C:3](/[O:4][C:5]([C:6](=[O:7])[H:15])([H:13])[H:14])[H:11])([H:8])([H:9])[H:10].[H:12][H:16]"
C        2.67046797      -0.12193054      -1.17073877
N        1.39438988      -0.21118504      -0.50052788
C        1.25239484       0.36587457       0.59950910
O        0.02580711       0.60759273       1.15221676
C       -1.09041017       0.23269149       0.43636283
C       -2.17116849      -0.60305760       1.01536562
O       -3.04831069      -1.04748175       0.16713327
H        3.00372915      -1.12945544      -1.42368993
H        2.55832379       0.42667818      -2.10684787
H        3.44350219       0.36506316      -0.56441599
H        2.03466085       0.84443075       1.18989609
H       -2.54703531       1.13548381      -0.57178249
H       -0.87055808       0.54831797      -0.58154120
H       -1.12521105      -1.32077949       0.99912997
H       -2.45050717      -0.31559270       2.04084480
H       -3.08007481       0.22334988      -0.68091432
16
Frame=9 idx=006766 GeodesicLength=1.076153552597771 rxn_smarts="[C:1](/[N:2]=[C:3](/[O:4][C:5]([C:6]([O:7][H:16])([H:14])[H:15])([H:12])[H:13])[H:11])([H:8])([H:9])[H:10]>>[C:1](/[N:2]=[C:3](/[O:4][C:5]([C:6](=[O:7])[H:15])([H:13])[H:14])[H:11])([H:8])([H:9])[H:10].[H:12][H:16]"
C        2.64300107      -0.13046033      -1.17824834
N        1.37223863      -0.20350007      -0.49647484
C        1.25292707       0.36282764       0.61330569
O        0.03895259       0.62103951       1.18068809
C       -1.09224666       0.26281561       0.46352900
C       -2.16868830      -0.59861911       1.01791033
O       -3.00077111      -1.08053378       0.14489211
H        2.95177462      -1.14044664      -1.45195859
H        2.53537994       0.43685299      -2.10374000
H        3.43240450       0.32846093      -0.57095973
H        2.05257485       0.81890264       1.19835883
H       -2.54058033       1.12105401      -0.58880150
H       -0.87140516       0.64694502      -0.53089194
H       -1.07906772      -1.27834620       1.01648602
H       -2.48808903      -0.31497151       2.03190759
H       -3.03840496       0.14797928      -0.74600273
16
Frame=10 idx=006766 GeodesicLength=1.1968697666037245 rxn_smarts="[C:1](/[N:2]=[C:3](/[O:4][C:5]([C:6]([O:7][H:16])([H:14])[H:15])([H:12])[H:13])[H:11])([H:8])([H:9])[H:10]>>[C:1](/[N:2]=[C:3](/[O:4][C:5]([C:6](=[O:7])[H:15])([H:13])[H:14])[H:11])([H:8])([H:9])[H:10].[H:12][H:16]"
C        2.61314204      -0.13893651      -1.18649240
N        1.34707490      -0.19079129      -0.49451194
C        1.25185253       0.36345517       0.62514644
O        0.05177598       0.63426255       1.21061484
C       -1.09475791       0.29242792       0.49326813
C       -2.16688860      -0.59487418       1.02019023
O       -2.95057113      -1.11194390       0.12264616
H        2.89380894      -1.15171721      -1.47976584
H        2.51378454       0.44657897      -2.10157507
H        3.41921180       0.28900095      -0.57830736
H        2.06925534       0.79424094       1.20497000
H       -2.52892363       1.10712789      -0.60626698
H       -0.87472936       0.74398663      -0.47320075
H       -1.03553938      -1.23564511       1.03580805
H       -2.52745528      -0.31687426       2.02107631
H       -2.98104079       0.06970143      -0.81359982
16
Frame=11 idx=006766 GeodesicLength=1.3187115639800915 rxn_smarts="[C:1](/[N:2]=[C:3](/[O:4][C:5]([C:6]([O:7][H:16])([H:14])[H:15])([H:12])[H:13])[H:11])([H:8])([H:9])[H:10]>>[C:1](/[N:2]=[C:3](/[O:4][C:5]([C:6](=[O:7])[H:15])([H:13])[H:14])[H:11])([H:8])([H:9])[H:10].[H:12][H:16]"
C        2.57876537      -0.14593171      -1.19627640
N        1.32022290      -0.18051249      -0.49000104
C        1.25026377       0.36241893       0.63853067
O        0.06515407       0.64506584       1.24349930
C       -1.09696793       0.32065640       0.52622487
C       -2.16712717      -0.59022041       1.02200569
O       -2.89858991      -1.13960399       0.09969784
H        2.83448860      -1.16012599      -1.50726909
H        2.48296195       0.45482659      -2.10187739
H        3.40080802       0.25553620      -0.59126279
H        2.08534809       0.76929675       1.21053534
H       -2.50676229       1.09410157      -0.62734584
H       -0.87732236       0.83607452      -0.40856498
H       -0.99711485      -1.19322260       1.05982248
H       -2.57103368      -0.31777025       2.00695832
H       -2.90309459      -0.01058935      -0.88467697
16
Frame=12 idx=006766 GeodesicLength=1.4421408594325413 rxn_smarts="[C:1](/[N:2]=[C:3](/[O:4][C:5]([C:6]([O:7][H:16])([H:14])[H:15])([H:12])[H:13])[H:11])([H:8])([H:9])[H:10]>>[C:1](/[N:2]=[C:3](/[O:4][C:5]([C:6](=[O:7])[H:15])([H:13])[H:14])[H:11])([H:8])([H:9])[H:10].[H:12][H:16]"
C        2.54121998      -0.15327830      -1.20662861
N        1.28988175      -0.16496776      -0.48728497
C        1.24665158       0.36588738       0.64978011
O        0.07785959       0.65647334       1.27741542
C       -1.10036759       0.34877078       0.56193001
C       -2.16780295      -0.58670665       1.02280429
O       -2.84346024      -1.16549070       0.07602244
H        2.76809005      -1.16939430      -1.53361955
H        2.45279491       0.46181090      -2.10338465
H        3.37953243       0.21882314      -0.60500348
H        2.09972939       0.74583198       1.21384956
H       -2.47799220       1.08242952      -0.64864031
H       -0.88330165       0.92581579      -0.33753794
H       -0.96074828      -1.15064519       1.08535097
H       -2.61619370      -0.32227427       1.98974614
H       -2.80589308      -0.09308566      -0.95479942
16
Frame=13 idx=006766 GeodesicLength=1.568064302259511 rxn_smarts="[C:1](/[N:2]=[C:3](/[O:4][C:5]([C:6]([O:7][H:16])([H:14])[H:15])([H:12])[H:13])[H:11])([H:8])([H:9])[H:10]>>[C:1](/[N:2]=[C:3](/[O:4][C:5]([C:6](=[O:7])[H:15])([H:13])[H:14])[H:11])([H:8])([H:9])[H:10].[H:12][H:16]"
C        2.49878216      -0.16017572      -1.21800110
N        1.25699757      -0.15064036      -0.48261892
C        1.24174694       0.36941309       0.66161612
O        0.09048136       0.66655882       1.31341798
C       -1.10429223       0.37595615       0.60082826
C       -2.16994678      -0.58326790       1.02199311
O       -2.78579155      -1.18772875       0.05056381
H        2.69861653      -1.17764577      -1.55840962
H        2.41447705       0.46628518      -2.10731628
H        3.35298974       0.18616113      -0.62322094
H        2.11257650       0.72479136       1.21463200
H       -2.43813284       1.07327117      -0.67161685
H       -0.88992536       1.01024156      -0.26079618
H       -0.92846838      -1.10856747       1.11432241
H       -2.66482236      -0.32795296       1.96769264
H       -2.68528835      -0.17669954      -1.02308645
16
Frame=14 idx=006766 GeodesicLength=1.6976042333841608 rxn_smarts="[C:1](/[N:2]=[C:3](/[O:4][C:5]([C:6]([O:7][H:16])([H:14])[H:15])([H:12])[H:13])[H:11])([H:8])([H:9])[H:10]>>[C:1](/[N:2]=[C:3](/[O:4][C:5]([C:6](=[O:7])[H:15])([H:13])[H:14])[H:11])([H:8])([H:9])[H:10].[H:12][H:16]"
C        2.45305017      -0.16886039      -1.22931732
N        1.21985081      -0.12778614      -0.48102539
C        1.23393853       0.38105813       0.66971434
O        0.10160964       0.67934920       1.34904189
C       -1.11045182       0.40334429       0.64220211
C       -2.17117849      -0.58275449       1.01874886
O       -2.72304344      -1.20872643       0.02255272
H        2.61889197      -1.18880785      -1.58068272
H        2.38029463       0.46793512      -2.11236865
H        3.32345298       0.14584437      -0.64028362
H        2.12271066       0.70716028       1.21227340
H       -2.39302582       1.06791350      -0.69131678
H       -0.90240417       1.09219760      -0.17906556
H       -0.89628770      -1.06620973       1.14314084
H       -2.71346614      -0.34104086       1.94094500
H       -2.54394180      -0.26061660      -1.08455913
16
Frame=15 idx=006766 GeodesicLength=1.8326459562878608 rxn_smarts="[C:1](/[N:2]=[C:3](/[O:4][C:5]([C:6]([O:7][H:16])([H:14])[H:15])([H:12])[H:13])[H:11])([H:8])([H:9])[H:10]>>[C:1](/[N:2]=[C:3](/[O:4][C:5]([C:6](=[O:7])[H:15])([H:13])[H:14])[H:11])([H:8])([H:9])[H:10].[H:12][H:16]"
C        2.40245786      -0.17876015      -1.24085146
N        1.17945918      -0.10303721      -0.47898865
C        1.22387710       0.39642510       0.67653158
O        0.11170814       0.69313957       1.38488998
C       -1.11819237       0.42996006       0.68607989
C       -2.17214456      -0.58413251       1.01215595
O       -2.65525129      -1.22649120      -0.00924154
H        2.53304930      -1.20127610      -1.59977224
H        2.34167548       0.46525428      -2.11962471
H        3.28863874       0.10489766      -0.65944439
H        2.13020615       0.69402532       1.20644667
H       -2.33966370       1.06814297      -0.70803482
H       -0.91793988       1.16872959      -0.09371234
H       -0.86608290      -1.02405147       1.17369207
H       -2.76346518      -0.35926116       1.90727792
H       -2.37833206      -0.34356475      -1.13740392
16
Frame=16 idx=006766 GeodesicLength=1.975792315049673 rxn_smarts="[C:1](/[N:2]=[C:3](/[O:4][C:5]([C:6]([O:7][H:16])([H:14])[H:15])([H:12])[H:13])[H:11])([H:8])([H:9])[H:10]>>[C:1](/[N:2]=[C:3](/[O:4][C:5]([C:6](=[O:7])[H:15])([H:13])[H:14])[H:11])([H:8])([H:9])[H:10].[H:12][H:16]"
C        2.34728773      -0.19042318      -1.25225030
N        1.13566807      -0.07436789      -0.47770769
C        1.21110701       0.41790615       0.68074104
O        0.12026141       0.70993518       1.41939829
C       -1.12800298       0.45594540       0.73143955
C       -2.17152095      -0.58814795       1.00142406
O       -2.58066299      -1.24144191      -0.04531153
H        2.43939416      -1.21572086      -1.61539372
H        2.30132647       0.45800441      -2.12874075
H        3.24868013       0.06044981      -0.67903776
H        2.13470069       0.68297757       1.19814337
H       -2.28159306       1.07543990      -0.71920345
H       -0.93793682       1.24000449      -0.00669640
H       -0.83650681      -0.98143118       1.20533954
H       -2.81313452      -0.38408328       1.86554613
H       -2.18906753      -0.42504665      -1.17769039
