13
Frame=0 idx=000706 GeodesicLength=0.0 rxn_smarts="[C:1]([N:2]1[C:3]([H:10])([H:11])[C:4](=[O:5])[C:6]1([H:12])[H:13])([H:7])([H:8])[H:9]>>[C:1]([N:2]1[C:3]([H:10])([H:11])[C:4]([O:5][H:12])=[C:6]1[H:13])([H:7])([H:8])[H:9]"
C       -1.73279350      -0.14669215      -0.35961929
N       -0.33901996       0.13853350      -0.61403735
C        0.44539573       1.04449354       0.25439649
C        1.49154690      -0.08678452       0.29852380
O        2.77008071      -0.14007755       0.69148305
C        0.64995668      -0.81931517      -0.54201587
H       -2.06546747      -0.93713818      -1.03307176
H       -1.90335569      -0.47410020       0.67555102
H       -2.33311709       0.74232217      -0.55249744
H        0.77577086       1.94692356      -0.25764474
H       -0.05425465       1.28918286       1.19327487
H        1.64319635      -0.76066137       1.25390274
H        0.65206112      -1.79668643      -1.00824549
13
Frame=1 idx=000706 GeodesicLength=0.09607533822902362 rxn_smarts="[C:1]([N:2]1[C:3]([H:10])([H:11])[C:4](=[O:5])[C:6]1([H:12])[H:13])([H:7])([H:8])[H:9]>>[C:1]([N:2]1[C:3]([H:10])([H:11])[C:4]([O:5][H:12])=[C:6]1[H:13])([H:7])([H:8])[H:9]"
C       -1.72900137      -0.14754734      -0.35235233
N       -0.33784136       0.13934334      -0.61897605
C        0.44329482       1.05399555       0.24387514
C        1.49437662      -0.06820396       0.29303185
O        2.75578324      -0.14925900       0.71702346
C        0.65127402      -0.82350583      -0.52780302
H       -2.06503403      -0.94365690      -1.01750614
H       -1.89316152      -0.46713963       0.68654327
H       -2.33276233       0.73867666      -0.54797130
H        0.77011389       1.95599771      -0.27145753
H       -0.05518964       1.30081227       1.18311002
H        1.62314513      -0.80527997       1.23894146
H        0.67500253      -1.78423290      -1.02645883
13
Frame=2 idx=000706 GeodesicLength=0.19216984575938695 rxn_smarts="[C:1]([N:2]1[C:3]([H:10])([H:11])[C:4](=[O:5])[C:6]1([H:12])[H:13])([H:7])([H:8])[H:9]>>[C:1]([N:2]1[C:3]([H:10])([H:11])[C:4]([O:5][H:12])=[C:6]1[H:13])([H:7])([H:8])[H:9]"
C       -1.72511077      -0.14845875      -0.34498516
N       -0.33665944       0.13995598      -0.62386699
C        0.44137289       1.06312964       0.23324256
C        1.49665540      -0.05074260       0.28828673
O        2.73992814      -0.15824880       0.74261361
C        0.65284323      -0.82745724      -0.51428138
H       -2.06450664      -0.95009107      -1.00183799
H       -1.88269533      -0.46036071       0.69751347
H       -2.33230747       0.73498920      -0.54313578
H        0.76500652       1.96446994      -0.28550988
H       -0.05614609       1.31254448       1.17260158
H        1.60367666      -0.84931825       1.22359932
H        0.69794290      -1.77041182      -1.04424009
13
Frame=3 idx=000706 GeodesicLength=0.288283104170124 rxn_smarts="[C:1]([N:2]1[C:3]([H:10])([H:11])[C:4](=[O:5])[C:6]1([H:12])[H:13])([H:7])([H:8])[H:9]>>[C:1]([N:2]1[C:3]([H:10])([H:11])[C:4]([O:5][H:12])=[C:6]1[H:13])([H:7])([H:8])[H:9]"
C       -1.72106489      -0.14942227      -0.33755580
N       -0.33546259       0.14052134      -0.62881211
C        0.43960999       1.07200563       0.22248121
C        1.49855146      -0.03410363       0.28396538
O        2.72249164      -0.16703432       0.76848513
C        0.65479670      -0.83095864      -0.50180022
H       -2.06382610      -0.95635576      -0.98621194
H       -1.87178332      -0.45394988       0.70838588
H       -2.33177952       0.73125145      -0.53784081
H        0.76032585       1.97256226      -0.29969305
H       -0.05710518       1.32428696       1.16180366
H        1.58474353      -0.89305314       1.20765346
H        0.72050243      -1.75574999      -1.06086078
13
Frame=4 idx=000706 GeodesicLength=0.3844156169627885 rxn_smarts="[C:1]([N:2]1[C:3]([H:10])([H:11])[C:4](=[O:5])[C:6]1([H:12])[H:13])([H:7])([H:8])[H:9]>>[C:1]([N:2]1[C:3]([H:10])([H:11])[C:4]([O:5][H:12])=[C:6]1[H:13])([H:7])([H:8])[H:9]"
C       -1.71682607      -0.15043204      -0.33006827
N       -0.33424300       0.14112398      -0.63385577
C        0.43799269       1.08070850       0.21157651
C        1.50021287      -0.01804253       0.27983547
O        2.70339293      -0.17562811       0.79485054
C        0.65719373      -0.83392057      -0.49046897
H       -2.06295181      -0.96242644      -0.97066649
H       -1.86033730      -0.44796349       0.71914825
H       -2.33118346       0.72745725      -0.53202213
H        0.75596868       1.98042813      -0.31396356
H       -0.05804613       1.33600574       1.15074973
H        1.56632358      -0.93668203       1.19095693
H        0.74250330      -1.74062838      -1.07607224
13
Frame=5 idx=000706 GeodesicLength=0.48056735367099546 rxn_smarts="[C:1]([N:2]1[C:3]([H:10])([H:11])[C:4](=[O:5])[C:6]1([H:12])[H:13])([H:7])([H:8])[H:9]>>[C:1]([N:2]1[C:3]([H:10])([H:11])[C:4]([O:5][H:12])=[C:6]1[H:13])([H:7])([H:8])[H:9]"
C       -1.71237052      -0.15148247      -0.32250369
N       -0.33299562       0.14179933      -0.63900633
C        0.43651530       1.08929979       0.20051062
C        1.50177194      -0.00236510       0.27572063
O        2.68249253      -0.18405733       0.82190817
C        0.66004721      -0.83633280      -0.48025170
H       -2.06185858      -0.96831795      -0.95516810
H       -1.84832207      -0.44237469       0.72982858
H       -2.33051151       0.72360039      -0.52566835
H        0.75185001       1.98816617      -0.32832797
H       -0.05894332       1.34770291       1.13945344
H        1.54841434      -0.98036597       1.17341425
H        0.76391030      -1.72527229      -1.08990955
13
Frame=6 idx=000706 GeodesicLength=0.5767390973675799 rxn_smarts="[C:1]([N:2]1[C:3]([H:10])([H:11])[C:4](=[O:5])[C:6]1([H:12])[H:13])([H:7])([H:8])[H:9]>>[C:1]([N:2]1[C:3]([H:10])([H:11])[C:4]([O:5][H:12])=[C:6]1[H:13])([H:7])([H:8])[H:9]"
C       -1.70768101      -0.15256799      -0.31483272
N       -0.33171441       0.14255103      -0.64425150
C        0.43517784       1.09782281       0.18926338
C        1.50335126       0.01308662       0.27147441
O        2.65959584      -0.19235262       0.84983550
C        0.66334733      -0.83822840      -0.47103412
H       -2.06052879      -0.97406058      -0.93965072
H       -1.83573148      -0.43711693       0.74047190
H       -2.32974589       0.71967680      -0.51879608
H        0.74789493       1.99583964      -0.34282064
H       -0.05976835       1.35939553       1.12791574
H        1.53104233      -1.02425502       1.15495114
H        0.78476041      -1.70979090      -1.10252629
13
Frame=7 idx=000706 GeodesicLength=0.6729330995924045 rxn_smarts="[C:1]([N:2]1[C:3]([H:10])([H:11])[C:4](=[O:5])[C:6]1([H:12])[H:13])([H:7])([H:8])[H:9]>>[C:1]([N:2]1[C:3]([H:10])([H:11])[C:4]([O:5][H:12])=[C:6]1[H:13])([H:7])([H:8])[H:9]"
C       -1.70273853      -0.15368528      -0.30701755
N       -0.33039059       0.14337105      -0.64957282
C        0.43398695       1.10631364       0.17780857
C        1.50506515       0.02844504       0.26697487
O        2.63443374      -0.20054403       0.87880623
C        0.66708448      -0.83964627      -0.46268602
H       -2.05894370      -0.97969207      -0.92402942
H       -1.82255918      -0.43211249       0.75113310
H       -2.32886463       0.71567836      -0.51142320
H        0.74404352       2.00349250      -0.35749590
H       -0.06049257       1.37111704       1.11612230
H        1.51425358      -1.06851785       1.13548127
H        0.80512177      -1.69421964      -1.11410145
13
Frame=8 idx=000706 GeodesicLength=0.7691465554268541 rxn_smarts="[C:1]([N:2]1[C:3]([H:10])([H:11])[C:4](=[O:5])[C:6]1([H:12])[H:13])([H:7])([H:8])[H:9]>>[C:1]([N:2]1[C:3]([H:10])([H:11])[C:4]([O:5][H:12])=[C:6]1[H:13])([H:7])([H:8])[H:9]"
C       -1.69752547      -0.15483246      -0.29901476
N       -0.32901189       0.14424583      -0.65495109
C        0.43295598       1.11480701       0.16611677
C        1.50702519       0.04382523       0.26213168
O        2.60665881      -0.20866005       0.90899071
C        0.67126116      -0.84061971      -0.45508115
H       -2.05708564      -0.98525462      -0.90821161
H       -1.80879866      -0.42727718       0.76187502
H       -2.32785183       0.71159194      -0.50356300
H        0.74025581       2.01115334      -0.37242190
H       -0.06109432       1.38292457       1.10404806
H        1.49813355      -1.11335190       1.11488737
H        0.82507730      -1.67855200      -1.12480610
13
Frame=9 idx=000706 GeodesicLength=0.8654080801591598 rxn_smarts="[C:1]([N:2]1[C:3]([H:10])([H:11])[C:4](=[O:5])[C:6]1([H:12])[H:13])([H:7])([H:8])[H:9]>>[C:1]([N:2]1[C:3]([H:10])([H:11])[C:4]([O:5][H:12])=[C:6]1[H:13])([H:7])([H:8])[H:9]"
C       -1.69199588      -0.15601400      -0.29076894
N       -0.32756158       0.14516622      -0.66035228
C        0.43209577       1.12334207       0.15414477
C        1.50930241       0.05933363       0.25689965
O        2.57582239      -0.21675666       0.94054442
C        0.67587229      -0.84116765      -0.44806961
H       -2.05490197      -0.99079654      -0.89207340
H       -1.79440660      -0.42254021       0.77276445
H       -2.32665857       0.70739382      -0.49523242
H        0.73650108       2.01885250      -0.38769386
H       -0.06155888       1.39489194       1.09162337
H        1.48279250      -1.15900588       1.09300928
H        0.84469705      -1.66269923      -1.13479543
13
Frame=10 idx=000706 GeodesicLength=0.9617040988696139 rxn_smarts="[C:1]([N:2]1[C:3]([H:10])([H:11])[C:4](=[O:5])[C:6]1([H:12])[H:13])([H:7])([H:8])[H:9]>>[C:1]([N:2]1[C:3]([H:10])([H:11])[C:4]([O:5][H:12])=[C:6]1[H:13])([H:7])([H:8])[H:9]"
C       -1.68613794      -0.15722740      -0.28222548
N       -0.32602151       0.14611303      -0.66575359
C        0.43142700       1.13196047       0.14185903
C        1.51198697       0.07505868       0.25130184
O        2.54138666      -0.22486380       0.97362082
C        0.68094708      -0.84130456      -0.44153034
H       -2.05237744      -0.99636308      -0.87551242
H       -1.77938176      -0.41779935       0.78388100
H       -2.32528594       0.70306331      -0.48643537
H        0.73279620       2.02658542      -0.40341042
H       -0.06190232       1.40714968       1.07879101
H        1.46847992      -1.20576743       1.06960253
H        0.86408307      -1.64660497      -1.14418862
13
Frame=11 idx=000706 GeodesicLength=1.0580455565894096 rxn_smarts="[C:1]([N:2]1[C:3]([H:10])([H:11])[C:4](=[O:5])[C:6]1([H:12])[H:13])([H:7])([H:8])[H:9]>>[C:1]([N:2]1[C:3]([H:10])([H:11])[C:4]([O:5][H:12])=[C:6]1[H:13])([H:7])([H:8])[H:9]"
C       -1.67991818      -0.15847731      -0.27330528
N       -0.32437126       0.14706787      -0.67111587
C        0.43096671       1.14071636       0.12920658
C        1.51510731       0.09107660       0.24547180
O        2.50266846      -0.23307741       1.00837466
C        0.68651351      -0.84102988      -0.43532129
H       -2.04946449      -1.00202129      -0.85837087
H       -1.76369076      -0.41293935       0.79532834
H       -2.32371860       0.69855840      -0.47717498
H        0.72920419       2.03432766      -0.41971958
H       -0.06217336       1.41989636       1.06542664
H        1.45551935      -1.25398646       1.04432816
H        0.88335712      -1.63011156      -1.15312831
13
Frame=12 idx=000706 GeodesicLength=1.154508074840044 rxn_smarts="[C:1]([N:2]1[C:3]([H:10])([H:11])[C:4](=[O:5])[C:6]1([H:12])[H:13])([H:7])([H:8])[H:9]>>[C:1]([N:2]1[C:3]([H:10])([H:11])[C:4]([O:5][H:12])=[C:6]1[H:13])([H:7])([H:8])[H:9]"
C       -1.67328939      -0.15978737      -0.26391053
N       -0.32258561       0.14801314      -0.67638493
C        0.43074039       1.14970191       0.11612762
C        1.51862504       0.10746230       0.23968723
O        2.45881670      -0.24156947       1.04493148
C        0.69258962      -0.84033900      -0.42928595
H       -2.04609988      -1.00788921      -0.84045309
H       -1.74728631      -0.40784452       0.80722984
H       -2.32192129       0.69381503      -0.46745260
H        0.72587388       2.04206899      -0.43680461
H       -0.06244950       1.43343650       1.05135186
H        1.44434686      -1.30405928       1.01671481
H        0.90263950      -1.61300901      -1.16175114
13
Frame=13 idx=000706 GeodesicLength=1.2511437354115311 rxn_smarts="[C:1]([N:2]1[C:3]([H:10])([H:11])[C:4](=[O:5])[C:6]1([H:12])[H:13])([H:7])([H:8])[H:9]>>[C:1]([N:2]1[C:3]([H:10])([H:11])[C:4]([O:5][H:12])=[C:6]1[H:13])([H:7])([H:8])[H:9]"
C       -1.66605192      -0.16108416      -0.25396064
N       -0.32063729       0.14896842      -0.68141365
C        0.43061020       1.15891049       0.10256569
C        1.52232681       0.12421171       0.23431840
O        2.40893541      -0.25070160       1.08303248
C        0.69915728      -0.83920716      -0.42310034
H       -2.04194965      -1.01388286      -0.82151252
H       -1.72995904      -0.40234550       0.81956098
H       -2.31971251       0.68885821      -0.45731976
H        0.72268708       2.04966811      -0.45478922
H       -0.06296756       1.44791015       1.03624946
H        1.43559302      -1.35627419       0.98624011
H        0.92196816      -1.59503163      -1.16987098
13
Frame=14 idx=000706 GeodesicLength=1.3480863663733502 rxn_smarts="[C:1]([N:2]1[C:3]([H:10])([H:11])[C:4](=[O:5])[C:6]1([H:12])[H:13])([H:7])([H:8])[H:9]>>[C:1]([N:2]1[C:3]([H:10])([H:11])[C:4]([O:5][H:12])=[C:6]1[H:13])([H:7])([H:8])[H:9]"
C       -1.65835145      -0.16248455      -0.24315076
N       -0.31857208       0.14986858      -0.68625698
C        0.43075939       1.16854126       0.08828336
C        1.52612145       0.14130486       0.23030164
O        2.35140347      -0.26095923       1.12360867
C        0.70638372      -0.83759559      -0.41692342
H       -2.03724372      -1.02039243      -0.80103703
H       -1.71167393      -0.39619484       0.83284490
H       -2.31741425       0.68343894      -0.44656466
H        0.72043154       2.05691174      -0.47434865
H       -0.06386480       1.46425806       1.01967054
H        1.43002920      -1.41121209       0.95192259
H        0.94199146      -1.57548471      -1.17835019
13
Frame=15 idx=000706 GeodesicLength=1.4455311851253008 rxn_smarts="[C:1]([N:2]1[C:3]([H:10])([H:11])[C:4](=[O:5])[C:6]1([H:12])[H:13])([H:7])([H:8])[H:9]>>[C:1]([N:2]1[C:3]([H:10])([H:11])[C:4]([O:5][H:12])=[C:6]1[H:13])([H:7])([H:8])[H:9]"
C       -1.65008844      -0.16395933      -0.23148228
N       -0.31632441       0.15066463      -0.69075876
C        0.43112979       1.17856323       0.07334825
C        1.52971031       0.15872831       0.22828781
O        2.28540757      -0.27288129       1.16568937
C        0.71413007      -0.83559055      -0.41028554
H       -2.03182213      -1.02735893      -0.77898048
H       -1.69251332      -0.38929222       0.84701909
H       -2.31480326       0.67757901      -0.43534976
H        0.71929560       2.06365865      -0.49546186
H       -0.06535852       1.48256174       1.00144108
H        1.42865306      -1.46845578       0.91328311
H        0.96258369      -1.55421747      -1.18675005
13
Frame=16 idx=000706 GeodesicLength=1.5437154503094126 rxn_smarts="[C:1]([N:2]1[C:3]([H:10])([H:11])[C:4](=[O:5])[C:6]1([H:12])[H:13])([H:7])([H:8])[H:9]>>[C:1]([N:2]1[C:3]([H:10])([H:11])[C:4]([O:5][H:12])=[C:6]1[H:13])([H:7])([H:8])[H:9]"
C       -1.64127072      -0.16547388      -0.21895549
N       -0.31386938       0.15127280      -0.69480500
C        0.43167002       1.18888125       0.05785560
C        1.53274546       0.17636067       0.22914286
O        2.21054972      -0.28723797       1.20805796
C        0.72231691      -0.83332619      -0.40288639
H       -2.02563695      -1.03477041      -0.75524536
H       -1.67261990      -0.38143642       0.86204632
H       -2.31184375       0.67128021      -0.42381940
H        0.71959477       2.06960887      -0.51807235
H       -0.06768785       1.50292116       0.98139810
H        1.43218660      -1.52705093       0.87014320
H        0.98386507      -1.53102916      -1.19486005
