23
Frame=0 idx=011680 GeodesicLength=0.0 rxn_smarts="[C:1]([C:2]([C@@:3]([C:4]([H:14])([H:15])[H:16])([C:5]([C:6]([H:18])([H:19])[H:20])([C:7]([H:21])([H:22])[H:23])[H:17])[H:13])([H:11])[H:12])([H:8])([H:9])[H:10]>>[C:1](/[C:2](=[C:3](/[C:4]([H:14])([H:15])[H:16])[H:13])[H:11])([H:8])([H:9])[H:10].[C:5](=[C:6]([H:19])[H:20])([C:7]([H:21])([H:22])[H:23])[H:17].[H:12][H:18]"
C        2.47623197       0.21530492      -0.85806499
C        1.60330495       0.06350752       0.36207132
C        0.58556133      -0.85935377       0.39740694
C       -0.00928837      -1.27837422       1.71145857
C       -1.23906138       0.19799130      -0.87376919
C       -1.03402582       1.55572975      -0.80564789
C       -2.39398379      -0.47228982      -0.18581921
H        3.23789759      -0.56729952      -0.89823974
H        2.98689632       1.17921329      -0.87450310
H        1.87697065       0.14027787      -1.76864310
H        2.05054620       0.35057425       1.31222608
H        0.91968314       1.40356074       0.34056754
H        0.47101597      -1.53828446      -0.43865216
H        0.65549178      -1.97193804       2.23608594
H       -0.16126917      -0.41612896       2.36603064
H       -0.96768522      -1.78330832       1.60078839
H       -0.85045956      -0.31719497      -1.74513276
H        0.20726461       1.79716231      -0.00347987
H       -0.59995153       2.07339027      -1.65385974
H       -1.68384139       2.16189309      -0.18043781
H       -3.31272124      -0.32359846      -0.76224681
H       -2.25244565      -1.54956308      -0.08959375
H       -2.56613136      -0.06127173       0.81145480
23
Frame=1 idx=011680 GeodesicLength=0.14325910334250655 rxn_smarts="[C:1]([C:2]([C@@:3]([C:4]([H:14])([H:15])[H:16])([C:5]([C:6]([H:18])([H:19])[H:20])([C:7]([H:21])([H:22])[H:23])[H:17])[H:13])([H:11])[H:12])([H:8])([H:9])[H:10]>>[C:1](/[C:2](=[C:3](/[C:4]([H:14])([H:15])[H:16])[H:13])[H:11])([H:8])([H:9])[H:10].[C:5](=[C:6]([H:19])[H:20])([C:7]([H:21])([H:22])[H:23])[H:17].[H:12][H:18]"
C        2.48016176       0.18935286      -0.86920594
C        1.60935755       0.05864614       0.35527583
C        0.58040571      -0.85652605       0.40096076
C        0.00206584      -1.26753254       1.72564536
C       -1.23135143       0.20869495      -0.85408997
C       -1.05920065       1.57341192      -0.79360887
C       -2.39181913      -0.48676507      -0.20113704
H        3.22740041      -0.60697047      -0.91179830
H        3.00934914       1.14322899      -0.89022888
H        1.87890001       0.12364774      -1.77902694
H        2.07881991       0.32703865       1.30040361
H        0.93225914       1.41036569       0.35169413
H        0.46714738      -1.55153381      -0.42250797
H        0.66516603      -1.96983897       2.24031769
H       -0.13174225      -0.40344432       2.38168960
H       -0.96464974      -1.75990067       1.63052298
H       -0.82959050      -0.29220598      -1.72846645
H        0.20882793       1.82680552       0.00057030
H       -0.59637061       2.17321993      -1.56924701
H       -1.79993080       2.15912116      -0.25233439
H       -3.29715216      -0.35762830      -0.80290881
H       -2.23865183      -1.56227933      -0.10311629
H       -2.59940170      -0.07890803       0.79059659
23
Frame=2 idx=011680 GeodesicLength=0.2860417057017661 rxn_smarts="[C:1]([C:2]([C@@:3]([C:4]([H:14])([H:15])[H:16])([C:5]([C:6]([H:18])([H:19])[H:20])([C:7]([H:21])([H:22])[H:23])[H:17])[H:13])([H:11])[H:12])([H:8])([H:9])[H:10]>>[C:1](/[C:2](=[C:3](/[C:4]([H:14])([H:15])[H:16])[H:13])[H:11])([H:8])([H:9])[H:10].[C:5](=[C:6]([H:19])[H:20])([C:7]([H:21])([H:22])[H:23])[H:17].[H:12][H:18]"
C        2.48443574       0.16181646      -0.88084883
C        1.61643653       0.05301429       0.34818650
C        0.57595477      -0.85378998       0.40477520
C        0.01376495      -1.25582113       1.73987758
C       -1.22347716       0.22161526      -0.83171693
C       -1.08526713       1.59316691      -0.77874415
C       -2.38846299      -0.50058549      -0.21655348
H        3.21642941      -0.64845556      -0.92584080
H        3.03256462       1.10491314      -0.90676182
H        1.88105644       0.10583612      -1.78975392
H        2.10810789       0.30164132       1.28769653
H        0.94749433       1.41684781       0.36329649
H        0.46241636      -1.56394133      -0.40619974
H        0.67405817      -1.96747180       2.24485440
H       -0.10075749      -0.38981179       2.39698340
H       -0.96147726      -1.73426581       1.66062532
H       -0.80853719      -0.26365245      -1.70949385
H        0.21150402       1.85661109       0.00661427
H       -0.60457836       2.27660890      -1.47011686
H       -1.91673083       2.14857988      -0.34297991
H       -3.27804090      -0.39174057      -0.84522282
H       -2.22335164      -1.57416732      -0.11692093
H       -2.63354229      -0.09694796       0.76824433
23
Frame=3 idx=011680 GeodesicLength=0.4282520931815764 rxn_smarts="[C:1]([C:2]([C@@:3]([C:4]([H:14])([H:15])[H:16])([C:5]([C:6]([H:18])([H:19])[H:20])([C:7]([H:21])([H:22])[H:23])[H:17])[H:13])([H:11])[H:12])([H:8])([H:9])[H:10]>>[C:1](/[C:2](=[C:3](/[C:4]([H:14])([H:15])[H:16])[H:13])[H:11])([H:8])([H:9])[H:10].[C:5](=[C:6]([H:19])[H:20])([C:7]([H:21])([H:22])[H:23])[H:17].[H:12][H:18]"
C        2.48910841       0.13308335      -0.89285148
C        1.62433922       0.04693920       0.34078899
C        0.57201409      -0.85095489       0.40872357
C        0.02581189      -1.24355308       1.75399870
C       -1.21600236       0.23665167      -0.80663699
C       -1.11309158       1.61494263      -0.76102277
C       -2.38432969      -0.51347349      -0.23174583
H        3.20515040      -0.69132121      -0.93997332
H        3.05658881       1.06470417      -0.92389527
H        1.88361319       0.08719144      -1.80080258
H        2.13792674       0.27483941       1.27417290
H        0.96506609       1.42330952       0.37506674
H        0.45671817      -1.57532454      -0.38994319
H        0.68231437      -1.96522838       2.24935188
H       -0.06836003      -0.37573438       2.41192724
H       -0.95812143      -1.70680490       1.69088547
H       -0.78794332      -0.23169347      -1.68812115
H        0.21512552       1.88704140       0.01361918
H       -0.62663009       2.38158711      -1.35525127
H       -2.02778071       2.12919653      -0.45367333
H       -3.25577962      -0.42526688      -0.88852363
H       -2.20720086      -1.58504979      -0.13063751
H       -2.66853720      -0.11508143       0.74454366
23
Frame=4 idx=011680 GeodesicLength=0.5687431863648689 rxn_smarts="[C:1]([C:2]([C@@:3]([C:4]([H:14])([H:15])[H:16])([C:5]([C:6]([H:18])([H:19])[H:20])([C:7]([H:21])([H:22])[H:23])[H:17])[H:13])([H:11])[H:12])([H:8])([H:9])[H:10]>>[C:1](/[C:2](=[C:3](/[C:4]([H:14])([H:15])[H:16])[H:13])[H:11])([H:8])([H:9])[H:10].[C:5](=[C:6]([H:19])[H:20])([C:7]([H:21])([H:22])[H:23])[H:17].[H:12][H:18]"
C        2.49406533       0.10318703      -0.90520318
C        1.63274623       0.04087367       0.33283563
C        0.56847721      -0.84763572       0.41254965
C        0.03800102      -1.23025491       1.76770680
C       -1.20933575       0.25316253      -0.77904886
C       -1.14337633       1.63788705      -0.74039001
C       -2.37982312      -0.52550156      -0.24693184
H        3.19348484      -0.73541161      -0.95371724
H        3.08116034       1.02258789      -0.94172290
H        1.88674736       0.06733937      -1.81228191
H        2.16749061       0.24752149       1.25967613
H        0.98452824       1.43005804       0.38609419
H        0.45024488      -1.58550437      -0.37389871
H        0.68978922      -1.96234719       2.25371808
H       -0.03509536      -0.36072097       2.42608354
H       -0.95452594      -1.67731890       1.72089733
H       -0.76802591      -0.19692200      -1.66441600
H        0.21978263       1.91826992       0.01952702
H       -0.66574714       2.48635567      -1.22141773
H       -2.12468650       2.10062002      -0.58192748
H       -3.23049601      -0.45785992      -0.93289416
H       -2.19063920      -1.59494567      -0.14431320
H       -2.70476665      -0.13343987       0.71907487
23
Frame=5 idx=011680 GeodesicLength=0.7059621584136473 rxn_smarts="[C:1]([C:2]([C@@:3]([C:4]([H:14])([H:15])[H:16])([C:5]([C:6]([H:18])([H:19])[H:20])([C:7]([H:21])([H:22])[H:23])[H:17])[H:13])([H:11])[H:12])([H:8])([H:9])[H:10]>>[C:1](/[C:2](=[C:3](/[C:4]([H:14])([H:15])[H:16])[H:13])[H:11])([H:8])([H:9])[H:10].[C:5](=[C:6]([H:19])[H:20])([C:7]([H:21])([H:22])[H:23])[H:17].[H:12][H:18]"
C        2.49887229       0.07239163      -0.91797464
C        1.64104054       0.03527295       0.32410119
C        0.56513317      -0.84342059       0.41602350
C        0.05009322      -1.21569533       1.78068872
C       -1.20350002       0.27012016      -0.74935804
C       -1.17604088       1.66045670      -0.71758432
C       -2.37502699      -0.53640335      -0.26191999
H        3.18124186      -0.78003244      -0.96678826
H        3.10534344       0.97884107      -0.96048150
H        1.89039103       0.04603094      -1.82433690
H        2.19572959       0.22042256       1.24405911
H        1.00485425       1.43709125       0.39579913
H        0.44335882      -1.59416025      -0.35812637
H        0.69616747      -1.95840544       2.25742086
H       -0.00141968      -0.34490616       2.43924437
H       -0.95063992      -1.64560929       1.75025999
H       -0.74889027      -0.16063309      -1.63855844
H        0.22571385       1.95062972       0.02147156
H       -0.72587344       2.58764681      -1.06245495
H       -2.19871853       2.06405814      -0.72826044
H       -3.20205729      -0.48875235      -0.97766829
H       -2.17407950      -1.60337041      -0.15742873
H       -2.74169298      -0.15157325       0.69187244
23
Frame=6 idx=011680 GeodesicLength=0.8407771791717497 rxn_smarts="[C:1]([C:2]([C@@:3]([C:4]([H:14])([H:15])[H:16])([C:5]([C:6]([H:18])([H:19])[H:20])([C:7]([H:21])([H:22])[H:23])[H:17])[H:13])([H:11])[H:12])([H:8])([H:9])[H:10]>>[C:1](/[C:2](=[C:3](/[C:4]([H:14])([H:15])[H:16])[H:13])[H:11])([H:8])([H:9])[H:10].[C:5](=[C:6]([H:19])[H:20])([C:7]([H:21])([H:22])[H:23])[H:17].[H:12][H:18]"
C        2.50623335       0.03901602      -0.93052677
C        1.64996970       0.03134265       0.31395500
C        0.56223910      -0.83737725       0.41858556
C        0.06190350      -1.19852007       1.79252843
C       -1.20018934       0.28640005      -0.71864131
C       -1.21183635       1.68166796      -0.69205575
C       -2.37229967      -0.54717550      -0.27825406
H        3.17062193      -0.82782318      -0.97593281
H        3.13290627       0.93154555      -0.97990573
H        1.89804544       0.02041972      -1.83739194
H        2.22245087       0.19658760       1.22751417
H        1.02640004       1.44646939       0.39934100
H        0.43646644      -1.60128116      -0.34270132
H        0.70181115      -1.95157726       2.26123920
H        0.03165395      -0.32609030       2.45028311
H       -0.94649790      -1.61179640       1.77812425
H       -0.73176467      -0.12359884      -1.61148912
H        0.23708645       1.98724473       0.00622234
H       -0.81864080       2.68126637      -0.86397967
H       -2.24251359       2.02398015      -0.88243316
H       -3.17285648      -0.51804434      -1.02470324
H       -2.15942342      -1.61171595      -0.17111862
H       -2.78176598      -0.17093995       0.66134045
23
Frame=7 idx=011680 GeodesicLength=0.9663429037897932 rxn_smarts="[C:1]([C:2]([C@@:3]([C:4]([H:14])([H:15])[H:16])([C:5]([C:6]([H:18])([H:19])[H:20])([C:7]([H:21])([H:22])[H:23])[H:17])[H:13])([H:11])[H:12])([H:8])([H:9])[H:10]>>[C:1](/[C:2](=[C:3](/[C:4]([H:14])([H:15])[H:16])[H:13])[H:11])([H:8])([H:9])[H:10].[C:5](=[C:6]([H:19])[H:20])([C:7]([H:21])([H:22])[H:23])[H:17].[H:12][H:18]"
C        2.51774023       0.00441375      -0.94144308
C        1.65872075       0.03133905       0.30191679
C        0.55965060      -0.82773680       0.41870405
C        0.07251068      -1.17748701       1.80110592
C       -1.20113482       0.29803157      -0.68961973
C       -1.24658701       1.69674331      -0.66465475
C       -2.37474593      -0.55740857      -0.29610657
H        3.16410328      -0.87657697      -0.97759837
H        3.16451123       0.88231963      -0.99825874
H        1.91300077      -0.01004679      -1.85083127
H        2.24444851       0.18087284       1.21050949
H        1.04590335       1.45992435       0.39193463
H        0.43156470      -1.60578975      -0.32869223
H        0.70642697      -1.93949148       2.26350403
H        0.06131871      -0.30321079       2.45717182
H       -0.94210128      -1.57619906       1.80166231
H       -0.71888723      -0.09165340      -1.58524019
H        0.25634167       2.03116379      -0.04101497
H       -0.94318649       2.74069349      -0.61622921
H       -2.24725925       1.99206632      -1.02744286
H       -3.14706630      -0.54212800      -1.07225463
H       -2.15030307      -1.61944832      -0.18538935
H       -2.82497007      -0.19039117       0.62826690
23
Frame=8 idx=011680 GeodesicLength=1.085798260590095 rxn_smarts="[C:1]([C:2]([C@@:3]([C:4]([H:14])([H:15])[H:16])([C:5]([C:6]([H:18])([H:19])[H:20])([C:7]([H:21])([H:22])[H:23])[H:17])[H:13])([H:11])[H:12])([H:8])([H:9])[H:10]>>[C:1](/[C:2](=[C:3](/[C:4]([H:14])([H:15])[H:16])[H:13])[H:11])([H:8])([H:9])[H:10].[C:5](=[C:6]([H:19])[H:20])([C:7]([H:21])([H:22])[H:23])[H:17].[H:12][H:18]"
C        2.52792381      -0.02606457      -0.95347578
C        1.66659066       0.03608409       0.28812707
C        0.55726198      -0.81406263       0.41742002
C        0.08019509      -1.14913440       1.80756710
C       -1.20545100       0.29996446      -0.66572089
C       -1.27262809       1.70031052      -0.63149396
C       -2.38346885      -0.56908622      -0.31844232
H        3.15619332      -0.92029657      -0.97994197
H        3.19430436       0.83646639      -1.01823471
H        1.92687241      -0.03713329      -1.86506196
H        2.26328750       0.17234996       1.19179204
H        1.06250794       1.47783505       0.37651140
H        0.42995712      -1.60881507      -0.31307486
H        0.70710600      -1.91852136       2.26664014
H        0.08697065      -0.27215411       2.45985476
H       -0.93989197      -1.53337177       1.82243511
H       -0.70897211      -0.06976195      -1.56284289
H        0.27100931       2.08304932      -0.09382669
H       -1.06454207       2.73050412      -0.35005674
H       -2.20997700       1.98178860      -1.14348394
H       -3.12552253      -0.56078672      -1.12320495
H       -2.14790069      -1.62804766      -0.20133948
H       -2.87182586      -0.21111618       0.58985350
23
Frame=9 idx=011680 GeodesicLength=1.2140638070498893 rxn_smarts="[C:1]([C:2]([C@@:3]([C:4]([H:14])([H:15])[H:16])([C:5]([C:6]([H:18])([H:19])[H:20])([C:7]([H:21])([H:22])[H:23])[H:17])[H:13])([H:11])[H:12])([H:8])([H:9])[H:10]>>[C:1](/[C:2](=[C:3](/[C:4]([H:14])([H:15])[H:16])[H:13])[H:11])([H:8])([H:9])[H:10].[C:5](=[C:6]([H:19])[H:20])([C:7]([H:21])([H:22])[H:23])[H:17].[H:12][H:18]"
C        2.53124027      -0.05068046      -0.96904863
C        1.67392223       0.04244929       0.27424041
C        0.55468157      -0.79918166       0.41742801
C        0.08542749      -1.11446162       1.81536903
C       -1.21013000       0.29455278      -0.64760293
C       -1.29059923       1.69590570      -0.59412695
C       -2.39395774      -0.58366040      -0.34666934
H        3.14119695      -0.95754879      -0.99117567
H        3.21668809       0.79623565      -1.04242763
H        1.93017030      -0.05579697      -1.88031181
H        2.28416280       0.16280487       1.17112503
H        1.07915967       1.49755543       0.36435595
H        0.42985591      -1.61355983      -0.29237378
H        0.70312496      -1.89115314       2.27412207
H        0.11220323      -0.23342057       2.46135505
H       -0.94100651      -1.48118475       1.84450400
H       -0.69855790      -0.05464607      -1.54499244
H        0.27062602       2.14224358      -0.11710000
H       -1.15879309       2.66509308      -0.11763899
H       -2.14773877       1.98999300      -1.22370049
H       -3.10386624      -0.57818786      -1.17957597
H       -2.14825528      -1.63930403      -0.21952553
H       -2.91955472      -0.23404723       0.54377059
23
Frame=10 idx=011680 GeodesicLength=1.3470510095156552 rxn_smarts="[C:1]([C:2]([C@@:3]([C:4]([H:14])([H:15])[H:16])([C:5]([C:6]([H:18])([H:19])[H:20])([C:7]([H:21])([H:22])[H:23])[H:17])[H:13])([H:11])[H:12])([H:8])([H:9])[H:10]>>[C:1](/[C:2](=[C:3](/[C:4]([H:14])([H:15])[H:16])[H:13])[H:11])([H:8])([H:9])[H:10].[C:5](=[C:6]([H:19])[H:20])([C:7]([H:21])([H:22])[H:23])[H:17].[H:12][H:18]"
C        2.52804894      -0.07067630      -0.98638963
C        1.67971529       0.04900499       0.26146988
C        0.55148220      -0.78464498       0.41882823
C        0.09013317      -1.07879152       1.82464098
C       -1.21464602       0.28616365      -0.63184180
C       -1.30625057       1.68789867      -0.55470140
C       -2.40329218      -0.59939560      -0.37660907
H        3.11947844      -0.98959892      -1.00894653
H        3.23157181       0.76050690      -1.06770686
H        1.92458241      -0.06696317      -1.89596986
H        2.30527027       0.15031648       1.15047657
H        1.09425503       1.51717734       0.35861963
H        0.43000104      -1.61909753      -0.26874661
H        0.69695154      -1.86375720       2.28346151
H        0.13924546      -0.19431460       2.46439240
H       -0.94302739      -1.42505717       1.86776832
H       -0.68804781      -0.04184857      -1.52890696
H        0.25817259       2.20556946      -0.11735737
H       -1.22920382       2.57576946       0.06905973
H       -2.07081717       2.00583882      -1.28173823
H       -3.07986191      -0.59501732      -1.23654695
H       -2.14884586      -1.65163066      -0.23769599
H       -2.96491546      -0.25745225       0.49444000
23
Frame=11 idx=011680 GeodesicLength=1.4831430756497161 rxn_smarts="[C:1]([C:2]([C@@:3]([C:4]([H:14])([H:15])[H:16])([C:5]([C:6]([H:18])([H:19])[H:20])([C:7]([H:21])([H:22])[H:23])[H:17])[H:13])([H:11])[H:12])([H:8])([H:9])[H:10]>>[C:1](/[C:2](=[C:3](/[C:4]([H:14])([H:15])[H:16])[H:13])[H:11])([H:8])([H:9])[H:10].[C:5](=[C:6]([H:19])[H:20])([C:7]([H:21])([H:22])[H:23])[H:17].[H:12][H:18]"
C        2.52114073      -0.08801651      -1.00476074
C        1.68431869       0.05575619       0.24917286
C        0.54757704      -0.77039970       0.42106393
C        0.09440374      -1.04271502       1.83465058
C       -1.21916523       0.27629017      -0.61768248
C       -1.32150466       1.67812582      -0.51587188
C       -2.41146993      -0.61561559      -0.40700865
H        3.09394227      -1.01860325      -1.03021645
H        3.24211356       0.72733989      -1.09387769
H        1.91422419      -0.07401456      -1.91183085
H        2.32572076       0.13622162       1.12936471
H        1.10781560       1.53684774       0.35643613
H        0.43005366      -1.62487401      -0.24318024
H        0.68896698      -1.83684116       2.29345843
H        0.16772748      -0.15563627       2.46836631
H       -0.94576983      -1.36588632       1.89154992
H       -0.67766381      -0.03055310      -1.51369366
H        0.23611228       2.27191196      -0.10268182
H       -1.28435756       2.47279687       0.22570425
H       -1.98264926       2.02450606      -1.32442737
H       -3.05399075      -0.61157657      -1.29238460
H       -2.14962689      -1.66446454      -0.25535382
H       -3.00791906      -0.28059973       0.44320312
23
Frame=12 idx=011680 GeodesicLength=1.621540727992637 rxn_smarts="[C:1]([C:2]([C@@:3]([C:4]([H:14])([H:15])[H:16])([C:5]([C:6]([H:18])([H:19])[H:20])([C:7]([H:21])([H:22])[H:23])[H:17])[H:13])([H:11])[H:12])([H:8])([H:9])[H:10]>>[C:1](/[C:2](=[C:3](/[C:4]([H:14])([H:15])[H:16])[H:13])[H:11])([H:8])([H:9])[H:10].[C:5](=[C:6]([H:19])[H:20])([C:7]([H:21])([H:22])[H:23])[H:17].[H:12][H:18]"
C        2.51110231      -0.10371950      -1.02388459
C        1.68785297       0.06258118       0.23710293
C        0.54303330      -0.75636073       0.42395933
C        0.09860165      -1.00618025       1.84522221
C       -1.22341438       0.26572764      -0.60518473
C       -1.33682756       1.66775929      -0.47956087
C       -2.41801843      -0.63181670      -0.43763728
H        3.06488794      -1.04565786      -1.05386246
H        3.24910805       0.69546494      -1.12086952
H        1.90008867      -0.07834433      -1.92782269
H        2.34528533       0.12075650       1.10755470
H        1.12018238       1.55636423       0.35676014
H        0.42976103      -1.63054674      -0.21600517
H        0.67942170      -1.81031835       2.30388448
H        0.19808706      -0.11752847       2.47306535
H       -0.94866620      -1.30348109       1.91563559
H       -0.66730662      -0.02046452      -1.49938734
H        0.20528084       2.34054368      -0.07452809
H       -1.32941467       2.35992160       0.35958292
H       -1.88479766       2.04322655      -1.35531596
H       -3.02615756      -0.62787406      -1.34674204
H       -2.15019304      -1.67728489      -0.27235151
H       -3.04789711      -0.30276812       0.39038460
23
Frame=13 idx=011680 GeodesicLength=1.7623413988616115 rxn_smarts="[C:1]([C:2]([C@@:3]([C:4]([H:14])([H:15])[H:16])([C:5]([C:6]([H:18])([H:19])[H:20])([C:7]([H:21])([H:22])[H:23])[H:17])[H:13])([H:11])[H:12])([H:8])([H:9])[H:10]>>[C:1](/[C:2](=[C:3](/[C:4]([H:14])([H:15])[H:16])[H:13])[H:11])([H:8])([H:9])[H:10].[C:5](=[C:6]([H:19])[H:20])([C:7]([H:21])([H:22])[H:23])[H:17].[H:12][H:18]"
C        2.49870380      -0.11879661      -1.04361274
C        1.69050180       0.06949033       0.22488262
C        0.53791236      -0.74226149       0.42718828
C        0.10262305      -0.96863607       1.85597826
C       -1.22758437       0.25488265      -0.59404278
C       -1.35298179       1.65713485      -0.44478486
C       -2.42289347      -0.64818059      -0.46871319
H        3.03296616      -1.07182027      -1.07869521
H        3.25340827       0.66370475      -1.14881806
H        1.88338875      -0.08154788      -1.94408014
H        2.36365919       0.10458638       1.08489883
H        1.13171224       1.57586439       0.35797424
H        0.42903892      -1.63576135      -0.18749898
H        0.66833433      -1.78316785       2.31485470
H        0.22967817      -0.07924951       2.47770304
H       -0.95150997      -1.23778157       1.93949756
H       -0.65697968      -0.01053570      -1.48578800
H        0.16598754       2.41075488      -0.03498469
H       -1.36540268       2.23947744       0.47465809
H       -1.77910240       2.06090342      -1.37306127
H       -2.99604381      -0.64424532      -1.40006429
H       -2.15016706      -1.69020178      -0.28915556
H       -3.08524932      -0.32461308       0.33566416
23
Frame=14 idx=011680 GeodesicLength=1.9055186334980037 rxn_smarts="[C:1]([C:2]([C@@:3]([C:4]([H:14])([H:15])[H:16])([C:5]([C:6]([H:18])([H:19])[H:20])([C:7]([H:21])([H:22])[H:23])[H:17])[H:13])([H:11])[H:12])([H:8])([H:9])[H:10]>>[C:1](/[C:2](=[C:3](/[C:4]([H:14])([H:15])[H:16])[H:13])[H:11])([H:8])([H:9])[H:10].[C:5](=[C:6]([H:19])[H:20])([C:7]([H:21])([H:22])[H:23])[H:17].[H:12][H:18]"
C        2.48446118      -0.13365631      -1.06376081
C        1.69243664       0.07639154       0.21240194
C        0.53231749      -0.72810968       0.43054527
C        0.10657882      -0.93017809       1.86665486
C       -1.23158367       0.24384434      -0.58436163
C       -1.36976110       1.64641081      -0.41193113
C       -2.42612815      -0.66456176      -0.50002855
H        2.99868223      -1.09749151      -1.10409189
H        3.25554209       0.63161648      -1.17754822
H        1.86488298      -0.08424973      -1.96057485
H        2.38074942       0.08786279       1.06143063
H        1.14266624       1.59530514       0.35965276
H        0.42798530      -1.64043147      -0.15792318
H        0.65584499      -1.75532823       2.32619572
H        0.26237210      -0.04095562       2.48197404
H       -0.95400437      -1.16905694       1.96273339
H       -0.64670705      -0.00085980      -1.47302101
H        0.11820375       2.48188560       0.01567127
H       -1.39370786       2.11470482       0.57147833
H       -1.66750206       2.07645293      -1.37719140
H       -2.96390674      -0.66068632      -1.45205456
H       -2.14962442      -1.70308426      -0.30562212
H       -3.11979782      -0.34582473       0.27937113
23
Frame=15 idx=011680 GeodesicLength=2.0509155041570217 rxn_smarts="[C:1]([C:2]([C@@:3]([C:4]([H:14])([H:15])[H:16])([C:5]([C:6]([H:18])([H:19])[H:20])([C:7]([H:21])([H:22])[H:23])[H:17])[H:13])([H:11])[H:12])([H:8])([H:9])[H:10]>>[C:1](/[C:2](=[C:3](/[C:4]([H:14])([H:15])[H:16])[H:13])[H:11])([H:8])([H:9])[H:10].[C:5](=[C:6]([H:19])[H:20])([C:7]([H:21])([H:22])[H:23])[H:17].[H:12][H:18]"
C        2.46886993      -0.14854554      -1.08414117
C        1.69387900       0.08315351       0.19963167
C        0.52641089      -0.71398316       0.43384563
C        0.11062350      -0.89104165       1.87700331
C       -1.23522166       0.23251484      -0.57634480
C       -1.38644773       1.63554288      -0.38149743
C       -2.42784259      -0.68078380      -0.53131463
H        2.96255912      -1.12289063      -1.12960219
H        3.25598920       0.59895443      -1.20679999
H        1.84525305      -0.08681614      -1.97724570
H        2.39657179       0.07058260       1.03726112
H        1.15339782       1.61459502       0.36174081
H        0.42681045      -1.64455050      -0.12753077
H        0.64210631      -1.72693096       2.33768888
H        0.29612373      -0.00298594       2.48566721
H       -0.95583287      -1.09766281       1.98495037
H       -0.63647697       0.00813301      -1.46133403
H        0.06180181       2.55324689       0.07715104
H       -1.41595972       1.98923936       0.65013273
H       -1.55228350       2.08904763      -1.36741969
H       -2.93018288      -0.67714479      -1.50233803
H       -2.14881041      -1.71577824      -0.32147873
H       -3.15133828      -0.36589603       0.22197439
23
Frame=16 idx=011680 GeodesicLength=2.198259149442672 rxn_smarts="[C:1]([C:2]([C@@:3]([C:4]([H:14])([H:15])[H:16])([C:5]([C:6]([H:18])([H:19])[H:20])([C:7]([H:21])([H:22])[H:23])[H:17])[H:13])([H:11])[H:12])([H:8])([H:9])[H:10]>>[C:1](/[C:2](=[C:3](/[C:4]([H:14])([H:15])[H:16])[H:13])[H:11])([H:8])([H:9])[H:10].[C:5](=[C:6]([H:19])[H:20])([C:7]([H:21])([H:22])[H:23])[H:17].[H:12][H:18]"
C        2.45240810      -0.16359891      -1.10456226
C        1.69506862       0.08965588       0.18659477
C        0.52037757      -0.69996866       0.43692930
C        0.11490722      -0.85151875       1.88679678
C       -1.23830713       0.22073331      -0.57012463
C       -1.40220555       1.62440568      -0.35380476
C       -2.42825141      -0.69668045      -0.56230766
H        2.92511956      -1.14811780      -1.15486998
H        3.25520455       0.56560276      -1.23626744
H        1.82512946      -0.08945329      -1.99401012
H        2.41119204       0.05269978       1.01255384
H        1.16433837       1.63364356       0.36439500
H        0.42575333      -1.64811432      -0.09657904
H        0.62724058      -1.69819975       2.34909509
H        0.33091424       0.03423786       2.48864752
H       -0.95669678      -1.02398312       2.00577947
H       -0.62627418       0.01597529      -1.45094857
H       -0.00358383       2.62426397       0.14824738
H       -1.43358889       1.86633755       0.71147334
H       -1.43549892       2.09808394      -1.34395959
H       -2.89538789      -0.69354545      -1.55059590
H       -2.14806784      -1.72813624      -0.33645555
H       -3.17979121      -0.38432282       0.16397301
