10
Frame=0 idx=004443 GeodesicLength=0.0 rxn_smarts="[N:1]#[C:2][C:3]1([H:6])[C:4]([H:7])([H:8])[C:5]1([H:9])[H:10]>>[N:1](=[C+:2][C@:3]1([H:6])[C:4]([H:7])([H:8])[C-:5]1[H:10])[H:9]"
N        1.99547859       1.09369278       0.21535255
C        1.47869153       0.02487369       0.12855354
C        0.24877400      -0.58511427       0.41749360
C       -1.08141762      -0.69247170      -0.34015038
C       -0.48943494       0.65689553      -0.14633827
H        0.17112424      -0.78042349       1.47935433
H       -1.84495890      -1.07344482       0.32963932
H       -1.11330052      -1.12277977      -1.33530917
H        0.72556702       1.56334571       0.37662659
H       -0.09052341       0.91542633      -1.12522210
10
Frame=1 idx=004443 GeodesicLength=0.07374809137196886 rxn_smarts="[N:1]#[C:2][C:3]1([H:6])[C:4]([H:7])([H:8])[C:5]1([H:9])[H:10]>>[N:1](=[C+:2][C@:3]1([H:6])[C:4]([H:7])([H:8])[C-:5]1[H:10])[H:9]"
N        2.00995963       1.07319695       0.20425866
C        1.47947720       0.01081589       0.12217716
C        0.24342363      -0.57805443       0.42706497
C       -1.07824602      -0.69269445      -0.34217183
C       -0.50161616       0.66124807      -0.13871936
H        0.16658765      -0.77440392       1.48865764
H       -1.84590619      -1.08057352       0.31882203
H       -1.08744710      -1.12940028      -1.33520637
H        0.72804066       1.57501902       0.37347552
H       -0.11427329       0.93484667      -1.11835844
10
Frame=2 idx=004443 GeodesicLength=0.1475028715541135 rxn_smarts="[N:1]#[C:2][C:3]1([H:6])[C:4]([H:7])([H:8])[C:5]1([H:9])[H:10]>>[N:1](=[C+:2][C@:3]1([H:6])[C:4]([H:7])([H:8])[C-:5]1[H:10])[H:9]"
N        2.02420845       1.05226358       0.19276939
C        1.48015185      -0.00356442       0.11624450
C        0.23819437      -0.57087346       0.43663982
C       -1.07478849      -0.69289953      -0.34422859
C       -0.51386562       0.66551706      -0.13120197
H        0.16195144      -0.76836185       1.49794176
H       -1.84642276      -1.08782270       0.30784393
H       -1.06154343      -1.13536172      -1.33486545
H        0.73022029       1.58700339       0.37011552
H       -0.13810610       0.95409965      -1.11125893
10
Frame=3 idx=004443 GeodesicLength=0.22126515419102138 rxn_smarts="[N:1]#[C:2][C:3]1([H:6])[C:4]([H:7])([H:8])[C:5]1([H:9])[H:10]>>[N:1](=[C+:2][C@:3]1([H:6])[C:4]([H:7])([H:8])[C-:5]1[H:10])[H:9]"
N        2.03823580       1.03088395       0.18090693
C        1.48073731      -0.01827070       0.11078503
C        0.23309588      -0.56356881       0.44619689
C       -1.07104813      -0.69307634      -0.34631207
C       -0.52618076       0.66970206      -0.12379632
H        0.15721779      -0.76231055       1.50718385
H       -1.84649630      -1.09518037       0.29672605
H       -1.03561703      -1.14066957      -1.33429671
H        0.73208442       1.59932136       0.36655256
H       -0.16202897       0.97316897      -1.10394621
10
Frame=4 idx=004443 GeodesicLength=0.2950462101795068 rxn_smarts="[N:1]#[C:2][C:3]1([H:6])[C:4]([H:7])([H:8])[C:5]1([H:9])[H:10]>>[N:1](=[C+:2][C@:3]1([H:6])[C:4]([H:7])([H:8])[C-:5]1[H:10])[H:9]"
N        2.05205496       1.00904483       0.16869084
C        1.48125509      -0.03331124       0.10582627
C        0.22813805      -0.55613955       0.45571873
C       -1.06702869      -0.69321488      -0.34841600
C       -0.53855955       0.67380734      -0.11651051
H        0.15239076      -0.75626271       1.51636874
H       -1.84611463      -1.10263609       0.28548788
H       -1.00969417      -1.14533553      -1.33351648
H        0.73361269       1.61200200       0.36279470
H       -0.18605451       0.99204581      -1.09644417
10
Frame=5 idx=004443 GeodesicLength=0.3688208972229389 rxn_smarts="[N:1]#[C:2][C:3]1([H:6])[C:4]([H:7])([H:8])[C:5]1([H:9])[H:10]>>[N:1](=[C+:2][C@:3]1([H:6])[C:4]([H:7])([H:8])[C-:5]1[H:10])[H:9]"
N        2.06568335       0.98672322       0.15615589
C        1.48172522      -0.04868383       0.10138933
C        0.22332857      -0.54857541       0.46518145
C       -1.06273059      -0.69330704      -0.35052891
C       -0.55100102       0.67782071      -0.10934932
H        0.14746697      -0.75021778       1.52546082
H       -1.84526224      -1.11018769       0.27414803
H       -0.98379560      -1.14934308      -1.33252474
H        0.73478091       1.62506138       0.35882996
H       -0.21019557       1.01070952      -1.08876251
10
Frame=6 idx=004443 GeodesicLength=0.4425883301681362 rxn_smarts="[N:1]#[C:2][C:3]1([H:6])[C:4]([H:7])([H:8])[C:5]1([H:9])[H:10]>>[N:1](=[C+:2][C@:3]1([H:6])[C:4]([H:7])([H:8])[C-:5]1[H:10])[H:9]"
N        2.07913353       0.96389473       0.14326959
C        1.48216312      -0.06440499       0.09749914
C        0.21866958      -0.54086953       0.47457847
C       -1.05815488      -0.69333543      -0.35264935
C       -0.56350615       0.68175067      -0.10230634
H        0.14243698      -0.74417974       1.53445168
H       -1.84393375      -1.11782491       0.26270511
H       -0.95790761      -1.15272236      -1.33133024
H        0.73557445       1.63852095       0.35468383
H       -0.23447528       1.02917061      -1.08090188
10
Frame=7 idx=004443 GeodesicLength=0.5163884386836232 rxn_smarts="[N:1]#[C:2][C:3]1([H:6])[C:4]([H:7])([H:8])[C:5]1([H:9])[H:10]>>[N:1](=[C+:2][C@:3]1([H:6])[C:4]([H:7])([H:8])[C-:5]1[H:10])[H:9]"
N        2.09242864       0.94052182       0.13006260
C        1.48259111      -0.08049148       0.09417699
C        0.21417453      -0.53302053       0.48389963
C       -1.05330338      -0.69329441      -0.35477425
C       -0.57607908       0.68560331      -0.09538438
H        0.13731006      -0.73815166       1.54333967
H       -1.84211237      -1.12554777       0.25117819
H       -0.93205252      -1.15547150      -1.32996142
H        0.73596756       1.65242267       0.35034955
H       -0.25892456       1.04742955      -1.07288658
10
Frame=8 idx=004443 GeodesicLength=0.5902083957822439 rxn_smarts="[N:1]#[C:2][C:3]1([H:6])[C:4]([H:7])([H:8])[C:5]1([H:9])[H:10]>>[N:1](=[C+:2][C@:3]1([H:6])[C:4]([H:7])([H:8])[C-:5]1[H:10])[H:9]"
N        2.10558811       0.91657016       0.11654714
C        1.48302749      -0.09694999       0.09144242
C        0.20985258      -0.52501876       0.49312889
C       -1.04817561      -0.69317341      -0.35689696
C       -0.58871915       0.68937508      -0.08858443
H        0.13208435      -0.73213367       1.55210221
H       -1.83978592      -1.13335025       0.23957855
H       -0.90624032      -1.15759037      -1.32842560
H        0.73593280       1.66679269       0.34583110
H       -0.28356432       1.06547852      -1.06472334
10
Frame=9 idx=004443 GeodesicLength=0.664053518435966 rxn_smarts="[N:1]#[C:2][C:3]1([H:6])[C:4]([H:7])([H:8])[C:5]1([H:9])[H:10]>>[N:1](=[C+:2][C@:3]1([H:6])[C:4]([H:7])([H:8])[C-:5]1[H:10])[H:9]"
N        2.11863263       0.89200054       0.10273276
C        1.48348988      -0.11379388       0.08931542
C        0.20571485      -0.51685746       0.50225426
C       -1.04277204      -0.69296342      -0.35901428
C       -0.60142545       0.69306923      -0.08190809
H        0.12676258      -0.72612833       1.56072666
H       -1.83694164      -1.14122610       0.22791815
H       -0.88048303      -1.15908760      -1.32673894
H        0.73544173       1.68166930       0.34113803
H       -0.30841950       1.08331771      -1.05642397
10
Frame=10 idx=004443 GeodesicLength=0.7379058812637179 rxn_smarts="[N:1]#[C:2][C:3]1([H:6])[C:4]([H:7])([H:8])[C:5]1([H:9])[H:10]>>[N:1](=[C+:2][C@:3]1([H:6])[C:4]([H:7])([H:8])[C-:5]1[H:10])[H:9]"
N        2.13158436       0.86675937       0.08863845
C        1.48399598      -0.13102814       0.08781308
C        0.20177262      -0.50852261       0.51125758
C       -1.03708895      -0.69265449      -0.36111984
C       -0.61419997       0.69667755      -0.07535466
H        0.12134423      -0.72012779       1.56918570
H       -1.83356221      -1.14916993       0.21621124
H       -0.85478530      -1.15994794      -1.32490813
H        0.73445633       1.69707759       0.33626708
H       -0.33351710       1.10093638      -1.04799050
10
Frame=11 idx=004443 GeodesicLength=0.8117889370764262 rxn_smarts="[N:1]#[C:2][C:3]1([H:6])[C:4]([H:7])([H:8])[C:5]1([H:9])[H:10]>>[N:1](=[C+:2][C@:3]1([H:6])[C:4]([H:7])([H:8])[C-:5]1[H:10])[H:9]"
N        2.14446188       0.84078322       0.07422587
C        1.48455426      -0.14868527       0.08695637
C        0.19803387      -0.50000265       0.52014251
C       -1.03111733      -0.69223214      -0.36321376
C       -0.62704717       0.70020845      -0.06891144
H        0.11582036      -0.71412023       1.57748176
H       -1.82963205      -1.15717972       0.20444601
H       -0.82911994      -1.16018231      -1.32294817
H        0.73294663       1.71306133       0.33123571
H       -0.35890050       1.11834931      -1.03941486
10
Frame=12 idx=004443 GeodesicLength=0.8856968741735493 rxn_smarts="[N:1]#[C:2][C:3]1([H:6])[C:4]([H:7])([H:8])[C:5]1([H:9])[H:10]>>[N:1](=[C+:2][C@:3]1([H:6])[C:4]([H:7])([H:8])[C-:5]1[H:10])[H:9]"
N        2.15729177       0.81402000       0.05953720
C        1.48518679      -0.16676763       0.08676044
C        0.19451907      -0.49128917       0.52888488
C       -1.02486142      -0.69169087      -0.36529315
C       -0.63996199       0.70366178      -0.06259222
H        0.11020837      -0.70811346       1.58559024
H       -1.82513748      -1.16524201       0.19265430
H       -0.80352239      -1.15979398      -1.32087886
H        0.73086342       1.72967007       0.32605918
H       -0.38458614       1.13554527      -1.03072202
10
Frame=13 idx=004443 GeodesicLength=0.9596334356743187 rxn_smarts="[N:1]#[C:2][C:3]1([H:6])[C:4]([H:7])([H:8])[C:5]1([H:9])[H:10]>>[N:1](=[C+:2][C@:3]1([H:6])[C:4]([H:7])([H:8])[C-:5]1[H:10])[H:9]"
N        2.17010030       0.78639428       0.04457418
C        1.48590602      -0.18529339       0.08723798
C        0.19124381      -0.48236589       0.53747342
C       -1.01831455      -0.69101843      -0.36735483
C       -0.65294664       0.70703730      -0.05639548
H        0.10451008      -0.70209794       1.59349424
H       -1.82006046      -1.17334940       0.18084405
H       -0.77798585      -1.15877829      -1.31871191
H        0.72815645       1.74695005       0.32075182
H       -0.41060916       1.15252170      -1.02191347
10
Frame=14 idx=004443 GeodesicLength=1.033592031678478 rxn_smarts="[N:1]#[C:2][C:3]1([H:6])[C:4]([H:7])([H:8])[C:5]1([H:9])[H:10]>>[N:1](=[C+:2][C@:3]1([H:6])[C:4]([H:7])([H:8])[C-:5]1[H:10])[H:9]"
N        2.18291056       0.75782072       0.02933682
C        1.48671846      -0.20428158       0.08840309
C        0.18822486      -0.47321465       0.54589606
C       -1.01146840      -0.69020348      -0.36939700
C       -0.66599976       0.71033577      -0.05031977
H        0.09872996      -0.69605959       1.60117527
H       -1.81437778      -1.18149537       0.16902304
H       -0.75250555      -1.15713084      -1.31646131
H        0.72477168       1.76495400       0.31533253
H       -0.43700403       1.16927503      -1.01298873
10
Frame=15 idx=004443 GeodesicLength=1.1075754013195591 rxn_smarts="[N:1]#[C:2][C:3]1([H:6])[C:4]([H:7])([H:8])[C:5]1([H:9])[H:10]>>[N:1](=[C+:2][C@:3]1([H:6])[C:4]([H:7])([H:8])[C-:5]1[H:10])[H:9]"
N        2.19575605       0.72822526       0.01384358
C        1.48763984      -0.22374470       0.09026009
C        0.18548767      -0.46382064       0.55413366
C       -1.00432474      -0.68923999      -0.37141831
C       -0.67911470       0.71355924      -0.04437967
H        0.09288560      -0.68999748       1.60861336
H       -1.80808265      -1.18966634       0.15721501
H       -0.72710288      -1.15486305      -1.31414429
H        0.72064403       1.78375175       0.30984924
H       -0.46378823       1.18579595      -1.00397266
10
Frame=16 idx=004443 GeodesicLength=1.1815569498686398 rxn_smarts="[N:1]#[C:2][C:3]1([H:6])[C:4]([H:7])([H:8])[C:5]1([H:9])[H:10]>>[N:1](=[C+:2][C@:3]1([H:6])[C:4]([H:7])([H:8])[C-:5]1[H:10])[H:9]"
N        2.20865081       0.69749087      -0.00187029
C        1.48867455      -0.24369651       0.09279545
C        0.18306043      -0.45416044       0.56214598
C       -0.99686420      -0.68810675      -0.37341111
C       -0.69229015       0.71670052      -0.03858437
H        0.08699704      -0.68388548       1.61575024
H       -1.80113928      -1.19780950       0.14544839
H       -0.70176886      -1.15197441      -1.31175679
H        0.71566409       1.80338697       0.30434369
H       -0.49098444       1.20205473      -0.99486119
