19
Frame=0 idx=010403 GeodesicLength=0.0 rxn_smarts="[C:1]([C:2]1([H:11])[C:3]([H:12])([H:13])[C:4]2([C:5]([H:14])([H:15])[C:6]2([H:16])[H:17])[C:7]1([H:18])[H:19])([H:8])([H:9])[H:10]>>[C:1]([H:8])([H:9])([H:10])[H:11].[C:2]1[C:3]([H:12])([H:13])[C:4]2([C:5]([H:14])([H:15])[C:6]2([H:16])[H:17])[C:7]1([H:18])[H:19]"
C       -2.86474314       0.04920586       0.11512623
C       -0.81720744      -0.80647823      -0.11732734
C       -0.09672523       0.10142817      -1.09381329
C        1.00619049       0.03430247      -0.03265405
C        2.28991406      -0.70672346      -0.16546429
C        2.29053248       0.78402274       0.05079852
C       -0.05404576      -0.20981537       1.04666958
H       -3.63983486      -0.14023439      -0.62725356
H       -2.44647642       1.04140777       0.00029033
H       -3.22552268      -0.12092155       1.12727322
H       -2.12170882      -0.90982014      -0.09950234
H        0.09190731      -0.29111283      -2.09409142
H       -0.46948333       1.12984510      -1.16258087
H        2.55965413      -1.07889568      -1.14586220
H        2.59346044      -1.34143795       0.65760564
H        2.55790778       1.42077653      -0.78324408
H        2.59458242       1.15858405       1.02024403
H       -0.42092381       0.75456877       1.41761363
H        0.17252241      -0.86870177       1.88617222
19
Frame=1 idx=010403 GeodesicLength=0.05376135706258726 rxn_smarts="[C:1]([C:2]1([H:11])[C:3]([H:12])([H:13])[C:4]2([C:5]([H:14])([H:15])[C:6]2([H:16])[H:17])[C:7]1([H:18])[H:19])([H:8])([H:9])[H:10]>>[C:1]([H:8])([H:9])([H:10])[H:11].[C:2]1[C:3]([H:12])([H:13])[C:4]2([C:5]([H:14])([H:15])[C:6]2([H:16])[H:17])[C:7]1([H:18])[H:19]"
C       -2.86904701       0.03819109       0.11248066
C       -0.81737173      -0.78702056      -0.11246086
C       -0.09451198       0.11344340      -1.09237826
C        1.00913360       0.03617895      -0.03224350
C        2.28893071      -0.71179656      -0.16657141
C        2.29840315       0.77866478       0.04859455
C       -0.05010934      -0.19692248       1.05086083
H       -3.64035948      -0.14761577      -0.63501368
H       -2.46937984       1.03977312       0.00715407
H       -3.23951967      -0.13441793       1.12099061
H       -2.12625950      -0.93663373      -0.10000247
H        0.08971057      -0.28136449      -2.09245757
H       -0.46092108       1.14414310      -1.15910606
H        2.55475834      -1.08627422      -1.14715803
H        2.58999217      -1.34779075       0.65642020
H        2.56761722       1.41353291      -0.78627963
H        2.60584959       1.15236176       1.01728644
H       -0.41040579       0.77053146       1.41980344
H        0.17349008      -0.85698408       1.89008067
19
Frame=2 idx=010403 GeodesicLength=0.10748724042407837 rxn_smarts="[C:1]([C:2]1([H:11])[C:3]([H:12])([H:13])[C:4]2([C:5]([H:14])([H:15])[C:6]2([H:16])[H:17])[C:7]1([H:18])[H:19])([H:8])([H:9])[H:10]>>[C:1]([H:8])([H:9])([H:10])[H:11].[C:2]1[C:3]([H:12])([H:13])[C:4]2([C:5]([H:14])([H:15])[C:6]2([H:16])[H:17])[C:7]1([H:18])[H:19]"
C       -2.87323908       0.02702887       0.10979744
C       -0.81778380      -0.76688703      -0.10748357
C       -0.09230462       0.12586025      -1.09088133
C        1.01198904       0.03816811      -0.03181871
C        2.28760735      -0.71706942      -0.16768773
C        2.30633035       0.77304816       0.04633139
C       -0.04614756      -0.18358710       1.05509825
H       -3.64042744      -0.15576930      -0.64294315
H       -2.49297534       1.03781550       0.01425522
H       -3.25356051      -0.14869141       1.11439452
H       -2.12967573      -0.96309570      -0.10039957
H        0.08732108      -0.27128535      -2.09073965
H       -0.45210022       1.15888017      -1.15559511
H        2.54938107      -1.09390707      -1.14845521
H        2.58606058      -1.35437309       0.65523492
H        2.57749399       1.40593572      -0.78939570
H        2.61730354       1.14580940       1.01424104
H       -0.39958802       0.78698291       1.42201387
H        0.17431531      -0.84486360       1.89403307
19
Frame=3 idx=010403 GeodesicLength=0.16121999593193384 rxn_smarts="[C:1]([C:2]1([H:11])[C:3]([H:12])([H:13])[C:4]2([C:5]([H:14])([H:15])[C:6]2([H:16])[H:17])[C:7]1([H:18])[H:19])([H:8])([H:9])[H:10]>>[C:1]([H:8])([H:9])([H:10])[H:11].[C:2]1[C:3]([H:12])([H:13])[C:4]2([C:5]([H:14])([H:15])[C:6]2([H:16])[H:17])[C:7]1([H:18])[H:19]"
C       -2.87734035       0.01574904       0.10710203
C       -0.81844648      -0.74610152      -0.10240081
C       -0.09009541       0.13865716      -1.08933332
C        1.01475398       0.04026015      -0.03138340
C        2.28596043      -0.72254179      -0.16881104
C        2.31430912       0.76718660       0.04400805
C       -0.04217644      -0.16982845       1.05937850
H       -3.64007833      -0.16461997      -0.65100928
H       -2.51725741       1.03551584       0.02158943
H       -3.26762755      -0.16374669       1.10751201
H       -2.13196070      -0.98920272      -0.10072720
H        0.08476460      -0.26090517      -2.08894677
H       -0.44300549       1.17404597      -1.15207359
H        2.54356053      -1.10179324      -1.14975234
H        2.58168350      -1.36118330       0.65405724
H        2.58753519       1.39800925      -0.79259494
H        2.62892168       1.13895191       1.01110933
H       -0.38847887       0.80391347       1.42424961
H        0.17497802      -0.83236655       1.89802649
19
Frame=4 idx=010403 GeodesicLength=0.21488419555543983 rxn_smarts="[C:1]([C:2]1([H:11])[C:3]([H:12])([H:13])[C:4]2([C:5]([H:14])([H:15])[C:6]2([H:16])[H:17])[C:7]1([H:18])[H:19])([H:8])([H:9])[H:10]>>[C:1]([H:8])([H:9])([H:10])[H:11].[C:2]1[C:3]([H:12])([H:13])[C:4]2([C:5]([H:14])([H:15])[C:6]2([H:16])[H:17])[C:7]1([H:18])[H:19]"
C       -2.88131287       0.00437431       0.10440335
C       -0.81934663      -0.72466552      -0.09721877
C       -0.08789470       0.15181654      -1.08773737
C        1.01740481       0.04244668      -0.03093600
C        2.28395706      -0.72819804      -0.16992906
C        2.32229198       0.76107193       0.04163176
C       -0.03819294      -0.15565851       1.06369369
H       -3.63928686      -0.17409708      -0.65919531
H       -2.54217124       1.03282447       0.02913789
H       -3.28162074      -0.17958397       1.10034542
H       -2.13307562      -1.01492617      -0.10101760
H        0.08202675      -0.25023601      -2.08707485
H       -0.43363526       1.18960905      -1.14855831
H        2.53726144      -1.10990634      -1.15103150
H        2.57683654      -1.36819192       0.65290125
H        2.59767679       1.38974073      -0.79586673
H        2.64065179       1.13177935       1.00789630
H       -0.37705748       0.82129617       1.42650432
H        0.17548718      -0.81949566       1.90205153
19
Frame=5 idx=010403 GeodesicLength=0.26851893743671124 rxn_smarts="[C:1]([C:2]1([H:11])[C:3]([H:12])([H:13])[C:4]2([C:5]([H:14])([H:15])[C:6]2([H:16])[H:17])[C:7]1([H:18])[H:19])([H:8])([H:9])[H:10]>>[C:1]([H:8])([H:9])([H:10])[H:11].[C:2]1[C:3]([H:12])([H:13])[C:4]2([C:5]([H:14])([H:15])[C:6]2([H:16])[H:17])[C:7]1([H:18])[H:19]"
C       -2.88515287      -0.00714160       0.10170593
C       -0.82046109      -0.70252365      -0.09193130
C       -0.08569862       0.16540660      -1.08608276
C        1.01993869       0.04476524      -0.03047132
C        2.28154675      -0.73406305      -0.17103882
C        2.33030191       0.75467050       0.03919309
C       -0.03420202      -0.14100247       1.06804947
H       -3.63803398      -0.18424569      -0.66750597
H       -2.56777055       1.02966745       0.03690685
H       -3.29551253      -0.19632558       1.09288607
H       -2.13295023      -1.04029656      -0.10130254
H        0.07910466      -0.23917950      -2.08512479
H       -0.42397428       1.20563378      -1.14502140
H        2.53040020      -1.11829750      -1.15228853
H        2.57143411      -1.37543549       0.65177153
H        2.60798105       1.38106514      -0.79923186
H        2.65254419       1.12424092       1.00458906
H       -0.36531995       0.83920887       1.42875996
H        0.17582457      -0.80614742       1.90613734
19
Frame=6 idx=010403 GeodesicLength=0.3221558100194411 rxn_smarts="[C:1]([C:2]1([H:11])[C:3]([H:12])([H:13])[C:4]2([C:5]([H:14])([H:15])[C:6]2([H:16])[H:17])[C:7]1([H:18])[H:19])([H:8])([H:9])[H:10]>>[C:1]([H:8])([H:9])([H:10])[H:11].[C:2]1[C:3]([H:12])([H:13])[C:4]2([C:5]([H:14])([H:15])[C:6]2([H:16])[H:17])[C:7]1([H:18])[H:19]"
C       -2.88887241      -0.01878495       0.09902324
C       -0.82179259      -0.67968107      -0.08654024
C       -0.08350599       0.17941869      -1.08437386
C        1.02235032       0.04721201      -0.02998997
C        2.27873179      -0.74013812      -0.17213662
C        2.33833448       0.74798575       0.03669198
C       -0.03021011      -0.12586469       1.07244325
H       -3.63634165      -0.19500912      -0.67592592
H       -2.59405215       1.02601336       0.04489786
H       -3.30927979      -0.21398752       1.08514090
H       -2.13157153      -1.06531012      -0.10160624
H        0.07600450      -0.22775030      -2.08309836
H       -0.41401067       1.22211879      -1.14147741
H        2.52298654      -1.12696755      -1.15351874
H        2.56547858      -1.38291383       0.65067501
H        2.61844172       1.37198947      -0.80269112
H        2.66458996       1.11634446       1.00118711
H       -0.35326198       0.85765270       1.43101666
H        0.17598098      -0.79232795       1.91028247
19
Frame=7 idx=010403 GeodesicLength=0.3757728530191252 rxn_smarts="[C:1]([C:2]1([H:11])[C:3]([H:12])([H:13])[C:4]2([C:5]([H:14])([H:15])[C:6]2([H:16])[H:17])[C:7]1([H:18])[H:19])([H:8])([H:9])[H:10]>>[C:1]([H:8])([H:9])([H:10])[H:11].[C:2]1[C:3]([H:12])([H:13])[C:4]2([C:5]([H:14])([H:15])[C:6]2([H:16])[H:17])[C:7]1([H:18])[H:19]"
C       -2.89244477      -0.03054758       0.09636130
C       -0.82333589      -0.65612347      -0.08104502
C       -0.08132043       0.19385034      -1.08261188
C        1.02462201       0.04978661      -0.02949066
C        2.27548121      -0.74641810      -0.17321449
C        2.34636014       0.74100703       0.03412888
C       -0.02621919      -0.11023997       1.07687243
H       -3.63418445      -0.20633214      -0.68444772
H       -2.62099097       1.02181355       0.05311846
H       -3.32285083      -0.23260060       1.07710466
H       -2.12889235      -1.08995206      -0.10195766
H        0.07271898      -0.21594891      -2.08099243
H       -0.40373380       1.23905317      -1.13793743
H        2.51498644      -1.13590856      -1.15471080
H        2.55893696      -1.39061314       0.64962272
H        2.62902497       1.36249512      -0.80624560
H        2.67675904       1.10807710       0.99768831
H       -0.34086865       0.87662477       1.43327000
H        0.17595159      -0.77802317       1.91448694
19
Frame=8 idx=010403 GeodesicLength=0.4293683374261877 rxn_smarts="[C:1]([C:2]1([H:11])[C:3]([H:12])([H:13])[C:4]2([C:5]([H:14])([H:15])[C:6]2([H:16])[H:17])[C:7]1([H:18])[H:19])([H:8])([H:9])[H:10]>>[C:1]([H:8])([H:9])([H:10])[H:11].[C:2]1[C:3]([H:12])([H:13])[C:4]2([C:5]([H:14])([H:15])[C:6]2([H:16])[H:17])[C:7]1([H:18])[H:19]"
C       -2.89585179      -0.04242445       0.09372824
C       -0.82508971      -0.63183662      -0.07544979
C       -0.07914338       0.20870483      -1.08080117
C        1.02673887       0.05248979      -0.02897291
C        2.27176944      -0.75290248      -0.17426689
C        2.35435765       0.73372564       0.03150716
C       -0.02223466      -0.09412349       1.08133425
H       -3.63155471      -0.21818553      -0.69305009
H       -2.64857524       1.01702314       0.06154947
H       -3.33615346      -0.25217694       1.06878567
H       -2.12486881      -1.11421241      -0.10237704
H        0.06924644      -0.20376864      -2.07881038
H       -0.39312960       1.25643765      -1.13441323
H        2.50637421      -1.14511730      -1.15585826
H        2.55177948      -1.39853071       0.64862246
H        2.63971085       1.35257049      -0.80989213
H        2.68902820       1.09942664       0.99409676
H       -0.32812986       0.89612555       1.43551783
H        0.17572608      -0.76322516       1.91875005
19
Frame=9 idx=010403 GeodesicLength=0.48294093139942096 rxn_smarts="[C:1]([C:2]1([H:11])[C:3]([H:12])([H:13])[C:4]2([C:5]([H:14])([H:15])[C:6]2([H:16])[H:17])[C:7]1([H:18])[H:19])([H:8])([H:9])[H:10]>>[C:1]([H:8])([H:9])([H:10])[H:11].[C:2]1[C:3]([H:12])([H:13])[C:4]2([C:5]([H:14])([H:15])[C:6]2([H:16])[H:17])[C:7]1([H:18])[H:19]"
C       -2.89907456      -0.05441506       0.09112942
C       -0.82705315      -0.60680077      -0.06975657
C       -0.07697685       0.22398966      -1.07894335
C        1.02868561       0.05532468      -0.02843558
C        2.26756749      -0.75959194      -0.17528823
C        2.36230737       0.72612968       0.02882882
C       -0.01826164      -0.07750492       1.08582604
H       -3.62844088      -0.23054353      -0.70171639
H       -2.67679509       1.01159130       0.07017941
H       -3.34911507      -0.27273743       1.06018592
H       -2.11945085      -1.13807835      -0.10288464
H        0.06558282      -0.19119742      -2.07655231
H       -0.38218445       1.27427563      -1.13091254
H        2.49711774      -1.15459339      -1.15695364
H        2.54397137      -1.40666470       0.64768132
H        2.65048279       1.34219768      -0.81362909
H        2.70137840       1.09037654       0.99041355
H       -0.31503480       0.91616035       1.43775610
H        0.17529374      -0.74791801       1.92307176
19
Frame=10 idx=010403 GeodesicLength=0.536489955768324 rxn_smarts="[C:1]([C:2]1([H:11])[C:3]([H:12])([H:13])[C:4]2([C:5]([H:14])([H:15])[C:6]2([H:16])[H:17])[C:7]1([H:18])[H:19])([H:8])([H:9])[H:10]>>[C:1]([H:8])([H:9])([H:10])[H:11].[C:2]1[C:3]([H:12])([H:13])[C:4]2([C:5]([H:14])([H:15])[C:6]2([H:16])[H:17])[C:7]1([H:18])[H:19]"
C       -2.90209130      -0.06651988       0.08856991
C       -0.82922651      -0.58099422      -0.06396803
C       -0.07482311       0.23971303      -1.07704100
C        1.03044559       0.05829451      -0.02787782
C        2.26284390      -0.76648762      -0.17627227
C        2.37018796       0.71820647       0.02609575
C       -0.01430594      -0.06037318       1.09034494
H       -3.62482821      -0.24337984      -0.71043085
H       -2.70563822       1.00546526       0.07900069
H       -3.36165690      -0.29430580       1.05130731
H       -2.11258360      -1.16153334      -0.10350108
H        0.06172348      -0.17822298      -2.07421939
H       -0.37088350       1.29257109      -1.12744456
H        2.48718173      -1.16433761      -1.15798883
H        2.53547422      -1.41501332       0.64680801
H        2.66132212       1.33135769      -0.81745553
H        2.71378771       1.08091010       0.98664006
H       -0.30157143       0.93673505       1.43998071
H        0.17464197      -0.73208542       1.92745198
19
Frame=11 idx=010403 GeodesicLength=0.5900168068031497 rxn_smarts="[C:1]([C:2]1([H:11])[C:3]([H:12])([H:13])[C:4]2([C:5]([H:14])([H:15])[C:6]2([H:16])[H:17])[C:7]1([H:18])[H:19])([H:8])([H:9])[H:10]>>[C:1]([H:8])([H:9])([H:10])[H:11].[C:2]1[C:3]([H:12])([H:13])[C:4]2([C:5]([H:14])([H:15])[C:6]2([H:16])[H:17])[C:7]1([H:18])[H:19]"
C       -2.90487785      -0.07874450       0.08605324
C       -0.83161039      -0.55438930      -0.05808667
C       -0.07268479       0.25588983      -1.07509550
C        1.03200135       0.06140553      -0.02729831
C        2.25756189      -0.77359287      -0.17721317
C        2.37797945       0.70993968       0.02330982
C       -0.01037367      -0.04271144       1.09488842
H       -3.62069843      -0.25668021      -0.71917851
H       -2.73509540       0.99858604       0.08800221
H       -3.37369467      -0.31690954       1.04215055
H       -2.10420365      -1.18455857      -0.10424382
H        0.05766190      -0.16482393      -2.07181264
H       -0.35921106       1.31133424      -1.12401506
H        2.47652250      -1.17435371      -1.15895629
H        2.52624134      -1.42357861       0.64601027
H        2.67221405       1.32002607      -0.82137058
H        2.72623827       1.07100428       0.98277754
H       -0.28772738       0.95786094       1.44218644
H        0.17375656      -0.71570394       1.93189205
19
Frame=12 idx=010403 GeodesicLength=0.6435251315610755 rxn_smarts="[C:1]([C:2]1([H:11])[C:3]([H:12])([H:13])[C:4]2([C:5]([H:14])([H:15])[C:6]2([H:16])[H:17])[C:7]1([H:18])[H:19])([H:8])([H:9])[H:10]>>[C:1]([H:8])([H:9])([H:10])[H:11].[C:2]1[C:3]([H:12])([H:13])[C:4]2([C:5]([H:14])([H:15])[C:6]2([H:16])[H:17])[C:7]1([H:18])[H:19]"
C       -2.90740711      -0.09109951       0.08358129
C       -0.83420586      -0.52695262      -0.05211450
C       -0.07056496       0.27254122      -1.07310701
C        1.03333427       0.06466692      -0.02669522
C        2.25167881      -0.78091308      -0.17810524
C        2.38566242       0.70130927       0.02047255
C       -0.00647143      -0.02449700       1.09945434
H       -3.61602889      -0.27043999      -0.72794621
H       -2.76515889       0.99088739       0.09717272
H       -3.38513757      -0.34058176       1.03271445
H       -2.09423819      -1.20713177      -0.10512890
H        0.05338974      -0.15097028      -2.06933289
H       -0.34715070       1.33058096      -1.12062669
H        2.46508711      -1.18464872      -1.15984866
H        2.51621714      -1.43236570       0.64529555
H        2.68314695       1.30817225      -0.82537426
H        2.73871529       1.06063009       0.97882665
H       -0.27348974       0.97955479       1.44436699
H        0.17262162      -0.69874248       1.93639505
19
Frame=13 idx=010403 GeodesicLength=0.6970198734008082 rxn_smarts="[C:1]([C:2]1([H:11])[C:3]([H:12])([H:13])[C:4]2([C:5]([H:14])([H:15])[C:6]2([H:16])[H:17])[C:7]1([H:18])[H:19])([H:8])([H:9])[H:10]>>[C:1]([H:8])([H:9])([H:10])[H:11].[C:2]1[C:3]([H:12])([H:13])[C:4]2([C:5]([H:14])([H:15])[C:6]2([H:16])[H:17])[C:7]1([H:18])[H:19]"
C       -2.90964787      -0.10359604       0.08115514
C       -0.83701520      -0.49864868      -0.04605438
C       -0.06846722       0.28969002      -1.07107567
C        1.03442381       0.06808807      -0.02606669
C        2.24514811      -0.78845358      -0.17894326
C        2.39321478       0.69229344       0.01758641
C       -0.00260652      -0.00570714       1.10404014
H       -3.61079369      -0.28466131      -0.73671942
H       -2.79581793       0.98229916       0.10649406
H       -3.39588585      -0.36534994       1.02299921
H       -2.08260776      -1.22922550      -0.10616755
H        0.04889758      -0.13662935      -2.06678122
H       -0.33468492       1.35032808      -1.11728160
H        2.45281837      -1.19522809      -1.16065934
H        2.50534140      -1.44138029       0.64467019
H        2.69410655       1.29576428      -0.82946484
H        2.75120130       1.04975500       0.97478941
H       -0.25884499       1.00183220       1.44651632
H        0.17122006      -0.68117032       1.94096309
19
Frame=14 idx=010403 GeodesicLength=0.7505088419846371 rxn_smarts="[C:1]([C:2]1([H:11])[C:3]([H:12])([H:13])[C:4]2([C:5]([H:14])([H:15])[C:6]2([H:16])[H:17])[C:7]1([H:18])[H:19])([H:8])([H:9])[H:10]>>[C:1]([H:8])([H:9])([H:10])[H:11].[C:2]1[C:3]([H:12])([H:13])[C:4]2([C:5]([H:14])([H:15])[C:6]2([H:16])[H:17])[C:7]1([H:18])[H:19]"
C       -2.91156455      -0.11624901       0.07877443
C       -0.84004136      -0.46943734      -0.03990884
C       -0.06639577       0.30736414      -1.06900066
C        1.03524767       0.07168093      -0.02541051
C        2.23791680      -0.79622111      -0.17972210
C        2.40061350       0.68286680       0.01465363
C        0.00121310       0.01368571       1.10864347
H       -3.60496103      -0.29935369      -0.74548556
H       -2.82706050       0.97274346       0.11594842
H       -3.40583131      -0.39124619       1.01300341
H       -2.06922305      -1.25080710      -0.10736925
H        0.04417432      -0.12176146      -2.06415860
H       -0.32179545       1.37059662      -1.11397963
H        2.43964964      -1.20609936      -1.16138183
H        2.49354447      -1.45063026       0.64414023
H        2.70507962       1.28276451      -0.83364119
H        2.76367983       1.03834062       0.97066743
H       -0.24377905       1.02471291       1.44862751
H        0.16953313      -0.66295018       1.94559964
19
Frame=15 idx=010403 GeodesicLength=0.8040040689101801 rxn_smarts="[C:1]([C:2]1([H:11])[C:3]([H:12])([H:13])[C:4]2([C:5]([H:14])([H:15])[C:6]2([H:16])[H:17])[C:7]1([H:18])[H:19])([H:8])([H:9])[H:10]>>[C:1]([H:8])([H:9])([H:10])[H:11].[C:2]1[C:3]([H:12])([H:13])[C:4]2([C:5]([H:14])([H:15])[C:6]2([H:16])[H:17])[C:7]1([H:18])[H:19]"
C       -2.91311620      -0.12907844       0.07643743
C       -0.84328765      -0.43927260      -0.03368045
C       -0.06435541       0.32559896      -1.06687979
C        1.03578154       0.07546095      -0.02472400
C        2.22992356      -0.80422436      -0.18043698
C        2.40783486       0.67299913       0.01167638
C        0.00497862       0.03371547       1.11326210
H       -3.59849211      -0.31453889      -0.75423316
H       -2.85887411       0.96213271       0.12551409
H       -3.41485481      -0.41830703       1.00272498
H       -2.05398274      -1.27183847      -0.10874046
H        0.03920705      -0.10631607      -2.06146602
H       -0.30846296       1.39141416      -1.11071688
H        2.42550194      -1.21727259      -1.16201005
H        2.48074429      -1.46012689       0.64371100
H        2.71605483       1.26912788      -0.83790249
H        2.77613630       1.02634019       0.96646218
H       -0.22827719       1.04822224       1.45069235
H        0.16754018      -0.64403634       1.95030976
19
Frame=16 idx=010403 GeodesicLength=0.8575216723554439 rxn_smarts="[C:1]([C:2]1([H:11])[C:3]([H:12])([H:13])[C:4]2([C:5]([H:14])([H:15])[C:6]2([H:16])[H:17])[C:7]1([H:18])[H:19])([H:8])([H:9])[H:10]>>[C:1]([H:8])([H:9])([H:10])[H:11].[C:2]1[C:3]([H:12])([H:13])[C:4]2([C:5]([H:14])([H:15])[C:6]2([H:16])[H:17])[C:7]1([H:18])[H:19]"
C       -2.91425533      -0.14210697       0.07414092
C       -0.84675814      -0.40810543      -0.02737175
C       -0.06235181       0.34443397      -1.06470995
C        1.03599852       0.07944563      -0.02400411
C        2.22109951      -0.81247257      -0.18108323
C        2.41485206       0.66265654       0.00865676
C        0.00868029       0.05441934       1.11789375
H       -3.59134008      -0.33024524      -0.76295246
H       -2.89124114       0.95037065       0.13516767
H       -3.42282535      -0.44657003       0.99216098
H       -2.03677508      -1.29227438      -0.11028462
H        0.03398130      -0.09023611      -2.05870441
H       -0.29466750       1.41281116      -1.10748720
H        2.41028581      -1.22875824      -1.16253804
H        2.46684865      -1.46988234       0.64338746
H        2.72701894       1.25480373      -0.84224817
H        2.78855438       1.01370072       0.96217503
H       -0.21232422       1.07238759       1.45270200
H        0.16521919      -0.62437803       1.95509938
