12
Frame=0 idx=008055 GeodesicLength=0.0 rxn_smarts="[N:1]#[C:2][C@@:3]1([H:8])[C:4]([H:9])([H:10])[N:5]=[C:6]([H:11])[N:7]1[H:12]>>[N:1]#[C:2]/[C:6](=[N:5]\[C:4](/[C:3](=[N:7]/[H:12])[H:8])([H:9])[H:10])[H:11]"
N        1.89053212      -0.38250430       2.31581288
C        0.90413431       0.10550812       1.95460988
C        0.29535310      -0.10240216      -1.18970701
C       -0.87547249      -0.90122327      -0.73609614
N       -1.46326938      -0.12500462       0.31524371
C       -0.58294603       0.73663702       0.69517271
N        0.44229238       0.86516318      -0.37571775
H        0.98722134      -0.29425911      -1.99936269
H       -1.57019103      -1.14412261      -1.54429158
H       -0.45789013      -1.86080067      -0.37253629
H       -0.81297193       1.62170438       1.26674219
H        1.24320774       1.48130406      -0.32986995
12
Frame=1 idx=008055 GeodesicLength=0.11072482323498313 rxn_smarts="[N:1]#[C:2][C@@:3]1([H:8])[C:4]([H:9])([H:10])[N:5]=[C:6]([H:11])[N:7]1[H:12]>>[N:1]#[C:2]/[C:6](=[N:5]\[C:4](/[C:3](=[N:7]/[H:12])[H:8])([H:9])[H:10])[H:11]"
N        1.90281610      -0.40185264       2.27094132
C        0.90693819       0.05737960       1.90056327
C        0.33487839      -0.12729875      -1.14643934
C       -0.86898452      -0.89859353      -0.72390229
N       -1.47943227      -0.10441442       0.30315289
C       -0.60224785       0.74966199       0.70264751
N        0.42290310       0.90421308      -0.39745843
H        1.02043997      -0.32551950      -1.95984724
H       -1.54200806      -1.13477420      -1.55186832
H       -0.48344198      -1.86146293      -0.33696082
H       -0.83441118       1.62023200       1.29566272
H        1.22255008       1.52242931      -0.35649127
12
Frame=2 idx=008055 GeodesicLength=0.22120218293191612 rxn_smarts="[N:1]#[C:2][C@@:3]1([H:8])[C:4]([H:9])([H:10])[N:5]=[C:6]([H:11])[N:7]1[H:12]>>[N:1]#[C:2]/[C:6](=[N:5]\[C:4](/[C:3](=[N:7]/[H:12])[H:8])([H:9])[H:10])[H:11]"
N        1.90891986      -0.42237350       2.23382112
C        0.90970687       0.01528858       1.84887719
C        0.36902424      -0.14598552      -1.10581614
C       -0.86162478      -0.89607232      -0.71193866
N       -1.49190546      -0.08748045       0.29423714
C       -0.61920867       0.76130293       0.71069798
N        0.40702250       0.93702982      -0.41881044
H        1.04685804      -0.35202269      -1.92392902
H       -1.51508820      -1.12625188      -1.55674190
H       -0.50388213      -1.86100399      -0.30632805
H       -0.85461590       1.61940905       1.32077596
H        1.20479365       1.55815996      -0.38484519
12
Frame=3 idx=008055 GeodesicLength=0.3313525664254824 rxn_smarts="[N:1]#[C:2][C@@:3]1([H:8])[C:4]([H:9])([H:10])[N:5]=[C:6]([H:11])[N:7]1[H:12]>>[N:1]#[C:2]/[C:6](=[N:5]\[C:4](/[C:3](=[N:7]/[H:12])[H:8])([H:9])[H:10])[H:11]"
N        1.91043463      -0.44379714       2.20268990
C        0.91246070      -0.02223181       1.79916632
C        0.39836684      -0.15931463      -1.06867263
C       -0.85381097      -0.89352587      -0.70025630
N       -1.50171520      -0.07325558       0.28782492
C       -0.63434527       0.77168742       0.71946985
N        0.39375062       0.96550506      -0.43982627
H        1.06917994      -0.37556490      -1.89025911
H       -1.48981417      -1.11855963      -1.55930084
H       -0.51990831      -1.85955549      -0.27957611
H       -0.87409877       1.61893854       1.34330841
H        1.18949996       1.58967403      -0.41456816
12
Frame=4 idx=008055 GeodesicLength=0.4411750210560428 rxn_smarts="[N:1]#[C:2][C@@:3]1([H:8])[C:4]([H:9])([H:10])[N:5]=[C:6]([H:11])[N:7]1[H:12]>>[N:1]#[C:2]/[C:6](=[N:5]\[C:4](/[C:3](=[N:7]/[H:12])[H:8])([H:9])[H:10])[H:11]"
N        1.90830293      -0.46586195       2.17643117
C        0.91522211      -0.05607980       1.75125252
C        0.42393944      -0.16848679      -1.03487481
C       -0.84573102      -0.89095739      -0.68882678
N       -1.50949687      -0.06107827       0.28339169
C       -0.64796367       0.78089736       0.72904007
N        0.38252740       0.99080379      -0.46056607
H        1.08858624      -0.39671657      -1.85863543
H       -1.46615250      -1.11153610      -1.55999543
H       -0.53239187      -1.85741511      -0.25577985
H       -0.89316154       1.61864069       1.36397905
H        1.17631935       1.61779014      -0.44541612
12
Frame=5 idx=008055 GeodesicLength=0.5507084499069681 rxn_smarts="[N:1]#[C:2][C@@:3]1([H:8])[C:4]([H:9])([H:10])[N:5]=[C:6]([H:11])[N:7]1[H:12]>>[N:1]#[C:2]/[C:6](=[N:5]\[C:4](/[C:3](=[N:7]/[H:12])[H:8])([H:9])[H:10])[H:11]"
N        1.90305785      -0.48839119       2.15425032
C        0.91803119      -0.08684110       1.70502660
C        0.44664880      -0.17448083      -1.00405837
C       -0.83745344      -0.88838065      -0.67760866
N       -1.51563987      -0.05049826       0.28057670
C       -0.66026348       0.78900178       0.73945781
N        0.37297614       1.01367409      -0.48109310
H        1.10565427      -0.41576696      -1.82908274
H       -1.44393718      -1.10499906      -1.55919297
H       -0.54202886      -1.85481936      -0.23427469
H       -0.91199464       1.61839835       1.38325949
H        1.16494922       1.64310319      -0.47726041
12
Frame=6 idx=008055 GeodesicLength=0.6599823057157167 rxn_smarts="[N:1]#[C:2][C@@:3]1([H:8])[C:4]([H:9])([H:10])[N:5]=[C:6]([H:11])[N:7]1[H:12]>>[N:1]#[C:2]/[C:6](=[N:5]\[C:4](/[C:3](=[N:7]/[H:12])[H:8])([H:9])[H:10])[H:11]"
N        1.89508828      -0.51126626       2.13554818
C        0.92094120      -0.11494481       1.66038870
C        0.46716927      -0.17800112      -0.97586512
C       -0.82901392      -0.88579130      -0.66658062
N       -1.52040896      -0.04119865       0.27912168
C       -0.67139499       0.79605988       0.75075871
N        0.36480627       1.03463076      -0.50147382
H        1.12078825      -0.43296640      -1.80153533
H       -1.42300597      -1.09878359      -1.55718767
H       -0.54935126      -1.85192186      -0.21460648
H       -0.93072772       1.61812662       1.40148186
H        1.15510954       1.66605673      -0.51005009
12
Frame=7 idx=008055 GeodesicLength=0.7690422417500409 rxn_smarts="[N:1]#[C:2][C@@:3]1([H:8])[C:4]([H:9])([H:10])[N:5]=[C:6]([H:11])[N:7]1[H:12]>>[N:1]#[C:2]/[C:6](=[N:5]\[C:4](/[C:3](=[N:7]/[H:12])[H:8])([H:9])[H:10])[H:11]"
N        1.88463937      -0.53442244       2.11975964
C        0.92399046      -0.14070646       1.61725824
C        0.48600608      -0.17954899      -0.94996779
C       -0.82042099      -0.88317462      -0.65571658
N       -1.52398957      -0.03294656       0.27884721
C       -0.68148162       0.80212703       0.76297097
N        0.35779348       1.05404338      -0.52176551
H        1.13431107      -0.44855123      -1.77586384
H       -1.40319864      -1.09274975      -1.55419493
H       -0.55475115      -1.84881694      -0.19644718
H       -0.94945714       1.61776091       1.41889106
H        1.14655864       1.68698565      -0.54377129
12
Frame=8 idx=008055 GeodesicLength=0.8779558067851169 rxn_smarts="[N:1]#[C:2][C@@:3]1([H:8])[C:4]([H:9])([H:10])[N:5]=[C:6]([H:11])[N:7]1[H:12]>>[N:1]#[C:2]/[C:6](=[N:5]\[C:4](/[C:3](=[N:7]/[H:12])[H:8])([H:9])[H:10])[H:11]"
N        1.87189771      -0.55785400       2.10631948
C        0.92721033      -0.16436406       1.57558701
C        0.50354383      -0.17948990      -0.92606737
C       -0.81167665      -0.88051998      -0.64499051
N       -1.52653302      -0.02556134       0.27961330
C       -0.69063881       0.80726625       0.77611680
N        0.35176003       1.07220188      -0.54201568
H        1.14650933      -0.46273871      -1.75187655
H       -1.38437338      -1.08680101      -1.55038259
H       -0.55852919      -1.84557703      -0.17954777
H       -0.96827002       1.61727235       1.43566539
H        1.13909984       1.70616557      -0.57842150
12
Frame=9 idx=008055 GeodesicLength=0.986709064897774 rxn_smarts="[N:1]#[C:2][C@@:3]1([H:8])[C:4]([H:9])([H:10])[N:5]=[C:6]([H:11])[N:7]1[H:12]>>[N:1]#[C:2]/[C:6](=[N:5]\[C:4](/[C:3](=[N:7]/[H:12])[H:8])([H:9])[H:10])[H:11]"
N        1.85709890      -0.58141309       2.09478582
C        0.93053900      -0.18616898       1.53533403
C        0.52005610      -0.17809025      -0.90392105
C       -0.80277978      -0.87778327      -0.63439711
N       -1.52814106      -0.01888633       0.28129534
C       -0.69895738       0.81149817       0.79021748
N        0.34656796       1.08927569      -0.56226225
H        1.15760365      -0.47571422      -1.72938182
H       -1.36638564      -1.08080833      -1.54590101
H       -0.56094861      -1.84220357      -0.16372839
H       -0.98720418       1.61658248       1.45195485
H        1.13255103       1.72371170      -0.61399589
12
Frame=10 idx=008055 GeodesicLength=1.0954207272072947 rxn_smarts="[N:1]#[C:2][C@@:3]1([H:8])[C:4]([H:9])([H:10])[N:5]=[C:6]([H:11])[N:7]1[H:12]>>[N:1]#[C:2]/[C:6](=[N:5]\[C:4](/[C:3](=[N:7]/[H:12])[H:8])([H:9])[H:10])[H:11]"
N        1.84042566      -0.60519798       2.08446102
C        0.93396091      -0.20624522       1.49654471
C        0.53579360      -0.17556906      -0.88324175
C       -0.79372795      -0.87497019      -0.62390054
N       -1.52894845      -0.01279146       0.28378233
C       -0.70657136       0.81490814       0.80528475
N        0.34210962       1.10547078      -0.58252284
H        1.16784442      -0.48766193      -1.70810446
H       -1.34910930      -1.07475063      -1.54085771
H       -0.56220653      -1.83875970      -0.14881512
H       -1.00637707       1.61573708       1.46783487
H        1.12680645       1.73983017      -0.65046526
12
Frame=11 idx=008055 GeodesicLength=1.2041229345535165 rxn_smarts="[N:1]#[C:2][C@@:3]1([H:8])[C:4]([H:9])([H:10])[N:5]=[C:6]([H:11])[N:7]1[H:12]>>[N:1]#[C:2]/[C:6](=[N:5]\[C:4](/[C:3](=[N:7]/[H:12])[H:8])([H:9])[H:10])[H:11]"
N        1.82217463      -0.62911908       2.07480889
C        0.93736031      -0.22477095       1.45925056
C        0.55093258      -0.17208845      -0.86378807
C       -0.78452674      -0.87204627      -0.61348951
N       -1.52905946      -0.00715134       0.28695713
C       -0.71359831       0.81752553       0.82133033
N        0.33830828       1.12089122      -0.60280835
H        1.17742292      -0.49873070      -1.68778845
H       -1.33241422      -1.06855032      -1.53536061
H       -0.56250658      -1.83523772      -0.13468317
H       -1.02586202       1.61470517       1.48337225
H        1.12176862       1.75457290      -0.68780099
12
Frame=12 idx=008055 GeodesicLength=1.312864500959388 rxn_smarts="[N:1]#[C:2][C@@:3]1([H:8])[C:4]([H:9])([H:10])[N:5]=[C:6]([H:11])[N:7]1[H:12]>>[N:1]#[C:2]/[C:6](=[N:5]\[C:4](/[C:3](=[N:7]/[H:12])[H:8])([H:9])[H:10])[H:11]"
N        1.80272455      -0.65307374       2.06528427
C        0.94059714      -0.24191669       1.42350870
C        0.56561375      -0.16778332      -0.84532052
C       -0.77519766      -0.86898224      -0.60315962
N       -1.52859404      -0.00184537       0.29069285
C       -0.72017462       0.81937745       0.83836345
N        0.33511340       1.13562169      -0.62311685
H        1.18652051      -0.50906042      -1.66815682
H       -1.31618788      -1.06214474      -1.52951610
H       -0.56204944      -1.83163334      -0.12123303
H       -1.04574898       1.61347074       1.49860735
H        1.11738327       1.76796999      -0.72595367
12
Frame=13 idx=008055 GeodesicLength=1.4216697092769752 rxn_smarts="[N:1]#[C:2][C@@:3]1([H:8])[C:4]([H:9])([H:10])[N:5]=[C:6]([H:11])[N:7]1[H:12]>>[N:1]#[C:2]/[C:6](=[N:5]\[C:4](/[C:3](=[N:7]/[H:12])[H:8])([H:9])[H:10])[H:11]"
N        1.78251910      -0.67690876       2.05543345
C        0.94350530      -0.25785279       1.38937088
C        0.57993650      -0.16276752      -0.82762094
C       -0.76577277      -0.86574413      -0.59292189
N       -1.52766712       0.00324362       0.29485537
C       -0.72643924       0.82047364       0.85639342
N        0.33249646       1.14971541      -0.64343431
H        1.19527885      -0.51877672      -1.64895027
H       -1.30033019      -1.05546963      -1.52343342
H       -0.56103083      -1.82792720      -0.10840001
H       -1.06611480       1.61200595       1.51357353
H        1.11361874       1.78000812      -0.76486581
12
Frame=14 idx=008055 GeodesicLength=1.5305811361880937 rxn_smarts="[N:1]#[C:2][C@@:3]1([H:8])[C:4]([H:9])([H:10])[N:5]=[C:6]([H:11])[N:7]1[H:12]>>[N:1]#[C:2]/[C:6](=[N:5]\[C:4](/[C:3](=[N:7]/[H:12])[H:8])([H:9])[H:10])[H:11]"
N        1.76195663      -0.70051740       2.04491306
C        0.94596562      -0.27272581       1.35687256
C        0.59397743      -0.15712165      -0.81050195
C       -0.75629115      -0.86230442      -0.58278431
N       -1.52639201       0.00821699       0.29932530
C       -0.73252905       0.82081218       0.87543115
N        0.33044080       1.16323078      -0.66376475
H        1.20381973      -0.52797047      -1.62993800
H       -1.28476951      -1.04847584      -1.51720252
H       -0.55961854      -1.82410809      -0.09612646
H       -1.08702351       1.61028013       1.52829337
H        1.11046355       1.79068360      -0.80451745
12
Frame=15 idx=008055 GeodesicLength=1.6396046552733887 rxn_smarts="[N:1]#[C:2][C@@:3]1([H:8])[C:4]([H:9])([H:10])[N:5]=[C:6]([H:11])[N:7]1[H:12]>>[N:1]#[C:2]/[C:6](=[N:5]\[C:4](/[C:3](=[N:7]/[H:12])[H:8])([H:9])[H:10])[H:11]"
N        1.74140042      -0.72376204       2.03356591
C        0.94787609      -0.28667184       1.32600557
C        0.60778186      -0.15090843      -0.79381931
C       -0.74679271      -0.85863166      -0.57276973
N       -1.52485915       0.01316630       0.30399360
C       -0.73856355       0.82036858       0.89549164
N        0.32893999       1.17620747      -0.68411294
H        1.21221464      -0.53670810      -1.61094997
H       -1.26945191      -1.04111082      -1.51090988
H       -0.55795630      -1.82015178      -0.08438918
H       -1.10849388       1.60823835       1.54280784
H        1.10790450       1.79996398      -0.84491354
12
Frame=16 idx=008055 GeodesicLength=1.7487410564123376 rxn_smarts="[N:1]#[C:2][C@@:3]1([H:8])[C:4]([H:9])([H:10])[N:5]=[C:6]([H:11])[N:7]1[H:12]>>[N:1]#[C:2]/[C:6](=[N:5]\[C:4](/[C:3](=[N:7]/[H:12])[H:8])([H:9])[H:10])[H:11]"
N        1.72114534      -0.74652724       2.02133706
C        0.94916940      -0.29980273       1.29673802
C        0.62137972      -0.14417008      -0.77745753
C       -0.73731564      -0.85469643      -0.56290169
N       -1.52314513       0.01817155       0.30876680
C       -0.74465284       0.81910375       0.91659347
N        0.32799336       1.18868539      -0.70449468
H        1.22051126      -0.54503059      -1.59185334
H       -1.25433947      -1.03332850      -1.50462871
H       -0.55615986      -1.81603407      -0.07317621
H       -1.13051714       1.60581723       1.55716464
H        1.10593098       1.80781173      -0.88608783
