16
Frame=0 idx=005858 GeodesicLength=0.0 rxn_smarts="[C:1]([C@@:2]1([H:10])[C:3]([H:11])([H:12])[C:4]([H:13])([H:14])[C:5]([H:15])([H:16])[O:6]1)([H:7])([H:8])[H:9]>>[C:1]([C:2]1([O:6][C:5]([H:10])([H:15])[H:16])[C:3]([H:11])([H:12])[C:4]1([H:13])[H:14])([H:7])([H:8])[H:9]"
C        2.08469519       0.10171279       0.38167932
C        0.60420279       0.17406491       0.18653498
C       -0.02985383      -0.45168999      -1.09723241
C       -1.46877116      -0.51036704      -0.97769568
C       -1.23064898       0.60948519       1.06038325
O       -0.10456658      -0.19494834       1.31470132
H        2.39028203       0.83654874       1.12806071
H        2.60744916       0.30924220      -0.55233433
H        2.39447110      -0.88425486       0.74638891
H       -0.60841550       1.15426619       0.10065226
H        0.34661051       0.07700641      -1.97244269
H        0.38458456      -1.46857668      -1.10005093
H       -1.91078931      -1.32408208      -0.41804069
H       -2.10371430      -0.05958985      -1.73134743
H       -2.18529769       0.12252370       1.24943616
H       -1.17023804       1.50865870       1.68130721
16
Frame=1 idx=005858 GeodesicLength=0.09610234945306405 rxn_smarts="[C:1]([C@@:2]1([H:10])[C:3]([H:11])([H:12])[C:4]([H:13])([H:14])[C:5]([H:15])([H:16])[O:6]1)([H:7])([H:8])[H:9]>>[C:1]([C:2]1([O:6][C:5]([H:10])([H:15])[H:16])[C:3]([H:11])([H:12])[C:4]1([H:13])[H:14])([H:7])([H:8])[H:9]"
C        2.07682463       0.08319300       0.38551617
C        0.59760365       0.16742527       0.17710500
C       -0.01837395      -0.44115172      -1.11540597
C       -1.45305586      -0.52551057      -0.94716770
C       -1.24185563       0.62281970       1.04896544
O       -0.11051006      -0.17021244       1.31691713
H        2.38583593       0.82891907       1.11961650
H        2.61455964       0.26678095      -0.54496314
H        2.37376792      -0.89887924       0.77014930
H       -0.59231027       1.18020059       0.09026955
H        0.32430528       0.12138279      -1.98278494
H        0.41174201      -1.45005580      -1.15327138
H       -1.87128292      -1.36995035      -0.41540188
H       -2.11071553      -0.06413004      -1.67465260
H       -2.18735201       0.12456977       1.25778315
H       -1.19918283       1.52459904       1.66732536
16
Frame=2 idx=005858 GeodesicLength=0.19218109830273233 rxn_smarts="[C:1]([C@@:2]1([H:10])[C:3]([H:11])([H:12])[C:4]([H:13])([H:14])[C:5]([H:15])([H:16])[O:6]1)([H:7])([H:8])[H:9]>>[C:1]([C:2]1([O:6][C:5]([H:10])([H:15])[H:16])[C:3]([H:11])([H:12])[C:4]1([H:13])[H:14])([H:7])([H:8])[H:9]"
C        2.06862978       0.06433784       0.38893560
C        0.59079996       0.16122511       0.16811252
C       -0.00743926      -0.42964851      -1.13311261
C       -1.43596517      -0.54047143      -0.91664114
C       -1.25329353       0.63573562       1.03791502
O       -0.11577146      -0.14416627       1.31953962
H        2.38234460       0.82006414       1.11073987
H        2.62042066       0.22402149      -0.53768543
H        2.35216230      -0.91382949       0.79249740
H       -0.57600418       1.20608311       0.08059186
H        0.30107958       0.16488640      -1.99135971
H        0.43738367      -1.42947122      -1.20579515
H       -1.83061193      -1.41351471      -0.41371547
H       -2.11555613      -0.07175643      -1.61907439
H       -2.18891107       0.12599242       1.26641320
H       -1.22926781       1.54051193       1.65263881
16
Frame=3 idx=005858 GeodesicLength=0.2882594224793141 rxn_smarts="[C:1]([C@@:2]1([H:10])[C:3]([H:11])([H:12])[C:4]([H:13])([H:14])[C:5]([H:15])([H:16])[O:6]1)([H:7])([H:8])[H:9]>>[C:1]([C:2]1([O:6][C:5]([H:10])([H:15])[H:16])[C:3]([H:11])([H:12])[C:4]1([H:13])[H:14])([H:7])([H:8])[H:9]"
C        2.06014568       0.04519716       0.39194617
C        0.58384728       0.15560993       0.15951841
C        0.00292465      -0.41724147      -1.15025827
C       -1.41755170      -0.55521710      -0.88615046
C       -1.26494561       0.64815050       1.02720747
O       -0.12029948      -0.11677653       1.32244349
H        2.37982602       0.81007799       1.10141122
H        2.62505963       0.18087218      -0.53055846
H        2.32968282      -0.92903187       0.81357801
H       -0.55955348       1.23195634       0.07159042
H        0.27699091       0.20730636      -1.99827769
H        0.46146568      -1.40695466      -1.25732459
H       -1.78889578      -1.45482669      -0.41298106
H       -2.11827234      -0.08204608      -1.56469876
H       -2.18990172       0.12667884       1.27533764
H       -1.26052258       1.55624511       1.63721645
16
Frame=4 idx=005858 GeodesicLength=0.38436239029358665 rxn_smarts="[C:1]([C@@:2]1([H:10])[C:3]([H:11])([H:12])[C:4]([H:13])([H:14])[C:5]([H:15])([H:16])[O:6]1)([H:7])([H:8])[H:9]>>[C:1]([C:2]1([O:6][C:5]([H:10])([H:15])[H:16])[C:3]([H:11])([H:12])[C:4]1([H:13])[H:14])([H:7])([H:8])[H:9]"
C        2.05140964       0.02583594       0.39456364
C        0.57681268       0.15073239       0.15127653
C        0.01269904      -0.40401394      -1.16675520
C       -1.39787790      -0.56969049      -0.85573554
C       -1.27678650       0.65997093       1.01682464
O       -0.12405451      -0.08804234       1.32548545
H        2.37829124       0.79906447       1.09161460
H        2.62850018       0.13726086      -0.52362013
H        2.30635839      -0.94438553       0.83354215
H       -0.54302288       1.25786637       0.06322731
H        0.25210363       0.24842277      -2.00367179
H        0.48394775      -1.38268598      -1.30756699
H       -1.74629008      -1.49389679      -0.41322403
H       -2.11889903      -0.09457443      -1.51159249
H       -2.19023596       0.12651677       1.28459004
H       -1.29295569       1.57161901       1.62104182
16
Frame=5 idx=005858 GeodesicLength=0.4805068383692224 rxn_smarts="[C:1]([C@@:2]1([H:10])[C:3]([H:11])([H:12])[C:4]([H:13])([H:14])[C:5]([H:15])([H:16])[O:6]1)([H:7])([H:8])[H:9]>>[C:1]([C:2]1([O:6][C:5]([H:10])([H:15])[H:16])[C:3]([H:11])([H:12])[C:4]1([H:13])[H:14])([H:7])([H:8])[H:9]"
C        2.04245014       0.00632143       0.39681535
C        0.56976884       0.14675236       0.14333310
C        0.02187503      -0.39005193      -1.18253302
C       -1.37701502      -0.58382970      -0.82543794
C       -1.28877774       0.67110730       1.00675365
O       -0.12701054      -0.05798880       1.32850738
H        2.37773604       0.78712095       1.08134537
H        2.63075446       0.09311068      -0.51688097
H        2.28219908      -0.95977273       0.85255301
H       -0.52648154       1.28386568       0.05545303
H        0.22647805       0.28804545      -2.00769544
H        0.50482401      -1.35685887      -1.35627587
H       -1.70295246      -1.53072024      -0.41446572
H       -2.11749816      -0.10896080      -1.45980195
H       -2.18981484       0.12542074       1.29420791
H       -1.32653534       1.58643847       1.60412211
16
Frame=6 idx=005858 GeodesicLength=0.5767147647956861 rxn_smarts="[C:1]([C@@:2]1([H:10])[C:3]([H:11])([H:12])[C:4]([H:13])([H:14])[C:5]([H:15])([H:16])[O:6]1)([H:7])([H:8])[H:9]>>[C:1]([C:2]1([O:6][C:5]([H:10])([H:15])[H:16])[C:3]([H:11])([H:12])[C:4]1([H:13])[H:14])([H:7])([H:8])[H:9]"
C        2.03329465      -0.01327046       0.39873533
C        0.56279492       0.14381842       0.13562961
C        0.03045419      -0.37545945      -1.19753748
C       -1.35503914      -0.59756298      -0.79529839
C       -1.30087437       0.68146902       0.99699197
O       -0.12916058      -0.02667452       1.33135084
H        2.37814125       0.77434420       1.07061226
H        2.63182692       0.04837678      -0.51033208
H        2.25722030      -0.97506142       0.87076635
H       -0.51000181       1.31000629       0.04820399
H        0.20017648       0.32599051      -2.01051681
H        0.52410415      -1.32970052      -1.40323570
H       -1.65906391      -1.56527219      -0.41673974
H       -2.11413170      -0.12483058      -1.40935545
H       -2.18853643       0.12332710       1.30424485
H       -1.36120492       1.60049981       1.58648046
16
Frame=7 idx=005858 GeodesicLength=0.6730042089297346 rxn_smarts="[C:1]([C@@:2]1([H:10])[C:3]([H:11])([H:12])[C:4]([H:13])([H:14])[C:5]([H:15])([H:16])[O:6]1)([H:7])([H:8])[H:9]>>[C:1]([C:2]1([O:6][C:5]([H:10])([H:15])[H:16])[C:3]([H:11])([H:12])[C:4]1([H:13])[H:14])([H:7])([H:8])[H:9]"
C        2.02396197      -0.03286287       0.40036602
C        0.55597040       0.14206070       0.12810454
C        0.03844825      -0.36034687      -1.21173755
C       -1.33202807      -0.61082103      -0.76535501
C       -1.31302172       0.69097276       0.98754469
O       -0.13051527       0.00581632       1.33386303
H        2.37946686       0.76082294       1.05944042
H        2.63170833       0.00303668      -0.50394240
H        2.23143347      -0.99011211       0.88833177
H       -0.49365192       1.33633714       0.04140132
H        0.17325823       0.36210195      -2.01231220
H        0.54182474      -1.30144849      -1.44828481
H       -1.61481039      -1.59752098      -0.42007336
H       -2.10887339      -0.14184024      -1.36026240
H       -2.18629752       0.12020545       1.31475678
H       -1.39687396       1.61359865       1.56815917
16
Frame=8 idx=005858 GeodesicLength=0.7693924258911263 rxn_smarts="[C:1]([C@@:2]1([H:10])[C:3]([H:11])([H:12])[C:4]([H:13])([H:14])[C:5]([H:15])([H:16])[O:6]1)([H:7])([H:8])[H:9]>>[C:1]([C:2]1([O:6][C:5]([H:10])([H:15])[H:16])[C:3]([H:11])([H:12])[C:4]1([H:13])[H:14])([H:7])([H:8])[H:9]"
C        2.01446433      -0.05238256       0.40175618
C        0.54937230       0.14158261       0.12069553
C        0.04587845      -0.34482466      -1.22512671
C       -1.30805960      -0.62354116      -0.73564188
C       -1.32515987       0.69954497       0.97842422
O       -0.13110240       0.03937923       1.33590659
H        2.38165631       0.74663583       1.04786865
H        2.63037899      -0.04291254      -0.49766366
H        2.20485032      -1.00478554       0.90539129
H       -0.47749108       1.36290344       0.03495191
H        0.14577631       0.39625814      -2.01325947
H        0.55804923      -1.27233783      -1.49131901
H       -1.57037456      -1.62743577      -0.42448187
H       -2.10180889      -0.15968115      -1.31251722
H       -2.18300188       0.11605799       1.32579976
H       -1.43342796       1.62553899       1.54921571
16
Frame=9 idx=005858 GeodesicLength=0.8659094896839559 rxn_smarts="[C:1]([C@@:2]1([H:10])[C:3]([H:11])([H:12])[C:4]([H:13])([H:14])[C:5]([H:15])([H:16])[O:6]1)([H:7])([H:8])[H:9]>>[C:1]([C:2]1([O:6][C:5]([H:10])([H:15])[H:16])[C:3]([H:11])([H:12])[C:4]1([H:13])[H:14])([H:7])([H:8])[H:9]"
C        2.00480648      -0.07176183       0.40295530
C        0.54307152       0.14245287       0.11334130
C        0.05277705      -0.32900387      -1.23772296
C       -1.28320197      -0.63566827      -0.70618665
C       -1.33723038       0.70712502       0.96964902
O       -0.13096797       0.07389663       1.33736149
H        2.38463251       0.73185261       1.03594351
H        2.62781214      -0.08945129      -0.49143713
H        2.17748639      -1.01895091       0.92206789
H       -0.46156842       1.38974676       0.02875033
H        0.11778843       0.42837225      -2.01352746
H        0.57286341      -1.24260257      -1.53229121
H       -1.52593734      -1.65498772      -0.42996192
H       -2.09302203      -0.17807269      -1.26609299
H       -2.17856412       0.11091386       1.33742729
H       -1.47074572       1.63613916       1.52972419
16
Frame=10 idx=005858 GeodesicLength=0.9625974847831987 rxn_smarts="[C:1]([C@@:2]1([H:10])[C:3]([H:11])([H:12])[C:4]([H:13])([H:14])[C:5]([H:15])([H:16])[O:6]1)([H:7])([H:8])[H:9]>>[C:1]([C:2]1([O:6][C:5]([H:10])([H:15])[H:16])[C:3]([H:11])([H:12])[C:4]1([H:13])[H:14])([H:7])([H:8])[H:9]"
C        1.99502959      -0.09095120       0.40401802
C        0.53714279       0.14471115       0.10598125
C        0.05918224      -0.31297023      -1.24956824
C       -1.25754909      -0.64715831      -0.67701250
C       -1.34920177       0.71366112       0.96124181
O       -0.13017120       0.10923615       1.33814254
H        2.38836751       0.71653180       1.02370521
H        2.62402266      -0.13656921      -0.48520027
H        2.14939761      -1.03250320       0.93850720
H       -0.44592276       1.41692181       0.02267217
H        0.08933521       0.45841874      -2.01329360
H        0.58638759      -1.21243959      -1.57120154
H       -1.48167994      -1.68017173      -0.43647557
H       -2.08265294      -0.19677171      -1.22097078
H       -2.17295658       0.10481396       1.34970022
H       -1.50873093       1.64524045       1.50975409
16
Frame=11 idx=005858 GeodesicLength=1.0593608358797402 rxn_smarts="[C:1]([C@@:2]1([H:10])[C:3]([H:11])([H:12])[C:4]([H:13])([H:14])[C:5]([H:15])([H:16])[O:6]1)([H:7])([H:8])[H:9]>>[C:1]([C:2]1([O:6][C:5]([H:10])([H:15])[H:16])[C:3]([H:11])([H:12])[C:4]1([H:13])[H:14])([H:7])([H:8])[H:9]"
C        1.98496419      -0.10984522       0.40499502
C        0.53159664       0.14832298       0.09858000
C        0.06510603      -0.29688070      -1.26067802
C       -1.23106230      -0.65797178      -0.64817063
C       -1.36087524       0.71909413       0.95321948
O       -0.12875687       0.14528907       1.33813125
H        2.39255266       0.70074819       1.01127431
H        2.61874654      -0.18410298      -0.47885044
H        2.12046106      -1.04523134       0.95468398
H       -0.43048937       1.44435798       0.01666994
H        0.06045670       0.48623439      -2.01258074
H        0.59861809      -1.18207128      -1.60806724
H       -1.43773134      -1.70288536      -0.44409263
H       -2.07059954      -0.21558084      -1.17710534
H       -2.16591414       0.09786738       1.36259238
H       -1.54707311       1.65265538       1.48939867
16
Frame=12 idx=005858 GeodesicLength=1.1564236538318315 rxn_smarts="[C:1]([C@@:2]1([H:10])[C:3]([H:11])([H:12])[C:4]([H:13])([H:14])[C:5]([H:15])([H:16])[O:6]1)([H:7])([H:8])[H:9]>>[C:1]([C:2]1([O:6][C:5]([H:10])([H:15])[H:16])[C:3]([H:11])([H:12])[C:4]1([H:13])[H:14])([H:7])([H:8])[H:9]"
C        1.97486300      -0.12845098       0.40592414
C        0.52654594       0.15330484       0.09106090
C        0.07063005      -0.28073375      -1.27117311
C       -1.20392793      -0.66804418      -0.61965180
C       -1.37240243       0.72336111       0.94565340
O       -0.12680709       0.18190744       1.33735374
H        2.39744932       0.68458573       0.99851839
H        2.61228450      -0.23229434      -0.47235058
H        2.09092913      -1.05708767       0.97097302
H       -0.41541382       1.47220335       0.01054181
H        0.03122257       0.51200890      -2.01166561
H        0.60982384      -1.15163542      -1.64298839
H       -1.39438577      -1.72319980      -0.45272571
H       -2.05720954      -0.23423288      -1.13446780
H       -2.15765406       0.09003532       1.37630239
H       -1.58594771       1.65827232       1.46869522
16
Frame=13 idx=005858 GeodesicLength=1.25340512075262 rxn_smarts="[C:1]([C@@:2]1([H:10])[C:3]([H:11])([H:12])[C:4]([H:13])([H:14])[C:5]([H:15])([H:16])[O:6]1)([H:7])([H:8])[H:9]>>[C:1]([C:2]1([O:6][C:5]([H:10])([H:15])[H:16])[C:3]([H:11])([H:12])[C:4]1([H:13])[H:14])([H:7])([H:8])[H:9]"
C        1.96425441      -0.14657590       0.40687429
C        0.52185848       0.15941266       0.08344763
C        0.07572648      -0.26480467      -1.28104198
C       -1.17606914      -0.67734144      -0.59160736
C       -1.38331672       0.72644957       0.93849971
O       -0.12439050       0.21887050       1.33565677
H        2.40225202       0.66812278       0.98579833
H        2.60393872      -0.28043641      -0.46558990
H        2.06056792      -1.06775873       0.98699646
H       -0.40034640       1.50014633       0.00436441
H        0.00173701       0.53533816      -2.01043950
H        0.61986364      -1.12142518      -1.67593428
H       -1.35165160      -1.74086731      -0.46230867
H       -2.04217422      -0.25257791      -1.09313066
H       -2.14769599       0.08162463       1.39049233
H       -1.62455414       1.66182292       1.44792244
16
Frame=14 idx=005858 GeodesicLength=1.3506436924965808 rxn_smarts="[C:1]([C@@:2]1([H:10])[C:3]([H:11])([H:12])[C:4]([H:13])([H:14])[C:5]([H:15])([H:16])[O:6]1)([H:7])([H:8])[H:9]>>[C:1]([C:2]1([O:6][C:5]([H:10])([H:15])[H:16])[C:3]([H:11])([H:12])[C:4]1([H:13])[H:14])([H:7])([H:8])[H:9]"
C        1.95353575      -0.16427643       0.40785913
C        0.51766883       0.16659505       0.07567300
C        0.08049778      -0.24906481      -1.29041873
C       -1.14771425      -0.68586086      -0.56399620
C       -1.39391419       0.72835382       0.93183580
O       -0.12163422       0.25602650       1.33311166
H        2.40736874       0.65140582       0.97300574
H        2.59424921      -0.32867565      -0.45857508
H        2.02979652      -1.07739433       1.00302585
H       -0.38540275       1.52842333      -0.00209580
H       -0.02789614       0.55655594      -2.00913539
H        0.62906224      -1.09155948      -1.70706395
H       -1.30992202      -1.75609976      -0.47266535
H       -2.02594523      -0.27038137      -1.05302350
H       -2.13647081       0.07259462       1.40539697
H       -1.66327944       1.66335761       1.42706585
16
Frame=15 idx=005858 GeodesicLength=1.4481075639681513 rxn_smarts="[C:1]([C@@:2]1([H:10])[C:3]([H:11])([H:12])[C:4]([H:13])([H:14])[C:5]([H:15])([H:16])[O:6]1)([H:7])([H:8])[H:9]>>[C:1]([C:2]1([O:6][C:5]([H:10])([H:15])[H:16])[C:3]([H:11])([H:12])[C:4]1([H:13])[H:14])([H:7])([H:8])[H:9]"
C        1.94259444      -0.18148777       0.40891167
C        0.51394186       0.17470700       0.06772036
C        0.08497021      -0.23359822      -1.29936906
C       -1.11888500      -0.69357359      -0.53689108
C       -1.40406492       0.72904622       0.92568310
O       -0.11861111       0.29325170       1.32969176
H        2.41256278       0.63453058       0.96017260
H        2.58303793      -0.37691416      -0.45123326
H        1.99858630      -1.08582219       1.01909596
H       -0.37045211       1.55695232      -0.00887237
H       -0.05759530       0.57564333      -2.00776242
H        0.63748497      -1.06215101      -1.73648941
H       -1.26929671      -1.76885616      -0.48372670
H       -2.00852597      -0.28751318      -1.01415346
H       -2.12385217       0.06304753       1.42096295
H       -1.70189521       1.66273758       1.40625936
16
Frame=16 idx=005858 GeodesicLength=1.5457907343196822 rxn_smarts="[C:1]([C@@:2]1([H:10])[C:3]([H:11])([H:12])[C:4]([H:13])([H:14])[C:5]([H:15])([H:16])[O:6]1)([H:7])([H:8])[H:9]>>[C:1]([C:2]1([O:6][C:5]([H:10])([H:15])[H:16])[C:3]([H:11])([H:12])[C:4]1([H:13])[H:14])([H:7])([H:8])[H:9]"
C        1.93140860      -0.19815203       0.41005705
C        0.51064855       0.18357084       0.05958047
C        0.08917590      -0.21848465      -1.30796189
C       -1.08967207      -0.70045422      -0.51036662
C       -1.41370733       0.72851123       0.92006587
O       -0.11540959       0.33038650       1.32539619
H        2.41768777       0.61760240       0.94732584
H        2.57025390      -0.42500080      -0.44351546
H        1.96703591      -1.09292961       1.03523453
H       -0.35535455       1.58567728      -0.01600995
H       -0.08723762       0.59262753      -2.00634913
H        0.64521868      -1.03333128      -1.76430562
H       -1.22995981      -1.77914414      -0.49537850
H       -1.99000963      -0.30381290      -0.97655183
H       -2.10983349       0.05306906       1.43714416
H       -1.74024521       1.65986480       1.38563489
