10
Frame=0 idx=007950 GeodesicLength=0.0 rxn_smarts="[O:1]([c:2]1[c:3]([H:9])[n:4][n:5][c:6]([H:10])[n:7]1)[H:8]>>[C:6](#[N:7])[H:10].[N:4]#[N:5].[O:1]([C:2]#[C:3][H:9])[H:8]"
O        2.24018354      -0.48948622       0.12198304
C        1.10605991       0.18672124       0.02824547
C        0.63579507       1.33383272      -0.07634634
N       -1.42101744       1.52458798      -0.17456792
N       -2.08224659       0.61924406      -0.13040340
C       -1.19926296      -1.17224451       0.04656540
N       -0.02418965      -1.17389093       0.09098789
H        2.01291805      -1.42770359       0.18352957
H        0.81175580       2.38141514      -0.15078045
H       -2.07999572      -1.78247590       0.06078675
10
Frame=1 idx=007950 GeodesicLength=0.04003295604331838 rxn_smarts="[O:1]([c:2]1[c:3]([H:9])[n:4][n:5][c:6]([H:10])[n:7]1)[H:8]>>[C:6](#[N:7])[H:10].[N:4]#[N:5].[O:1]([C:2]#[C:3][H:9])[H:8]"
O        2.23925851      -0.48327271       0.13183957
C        1.10533815       0.18581538      -0.00031274
C        0.63244519       1.33853805      -0.06756262
N       -1.41839799       1.52847203      -0.17002752
N       -2.07967900       0.61682554      -0.12716626
C       -1.20629137      -1.17301981       0.05628060
N       -0.02700034      -1.18364175       0.09014064
H        2.01355165      -1.42251639       0.18887505
H        0.82343629       2.38308580      -0.15430297
H       -2.08266109      -1.79028615       0.05223624
10
Frame=2 idx=007950 GeodesicLength=0.08005337580516653 rxn_smarts="[O:1]([c:2]1[c:3]([H:9])[n:4][n:5][c:6]([H:10])[n:7]1)[H:8]>>[C:6](#[N:7])[H:10].[N:4]#[N:5].[O:1]([C:2]#[C:3][H:9])[H:8]"
O        2.23779755      -0.47673546       0.14265534
C        1.10442513       0.18577320      -0.01955816
C        0.62948550       1.34283382      -0.06214768
N       -1.41572528       1.53254457      -0.16164508
N       -2.07714117       0.61460019      -0.12073136
C       -1.21298173      -1.17424347       0.06119613
N       -0.02955232      -1.19394093       0.08111926
H        2.01378048      -1.41692910       0.19645260
H        0.83516251       2.38385151      -0.16316700
H       -2.08525066      -1.79775434       0.04582594
10
Frame=3 idx=007950 GeodesicLength=0.12008717679416761 rxn_smarts="[O:1]([c:2]1[c:3]([H:9])[n:4][n:5][c:6]([H:10])[n:7]1)[H:8]>>[C:6](#[N:7])[H:10].[N:4]#[N:5].[O:1]([C:2]#[C:3][H:9])[H:8]"
O        2.23613493      -0.47022976       0.15207134
C        1.10355878       0.18603964      -0.03569909
C        0.62677481       1.34690052      -0.06055325
N       -1.41296590       1.53652259      -0.15340037
N       -2.07458011       0.61235966      -0.11314360
C       -1.21945668      -1.17570253       0.06414836
N       -0.03209648      -1.20430638       0.07084508
H        2.01357961      -1.41114726       0.20549368
H        0.84683855       2.38465139      -0.17039754
H       -2.08778751      -1.80508787       0.04063539
10
Frame=4 idx=007950 GeodesicLength=0.16010174042867545 rxn_smarts="[O:1]([c:2]1[c:3]([H:9])[n:4][n:5][c:6]([H:10])[n:7]1)[H:8]>>[C:6](#[N:7])[H:10].[N:4]#[N:5].[O:1]([C:2]#[C:3][H:9])[H:8]"
O        2.23424546      -0.46372328       0.16107823
C        1.10279440       0.18651450      -0.05011701
C        0.62426426       1.35094137      -0.06107402
N       -1.41013248       1.54055969      -0.14289234
N       -2.07192545       0.61009195      -0.10430150
C       -1.22567828      -1.17741433       0.06493708
N       -0.03456720      -1.21478484       0.05844988
H        2.01275448      -1.40509741       0.21699971
H        0.85848297       2.38529608      -0.17884557
H       -2.09023815      -1.81238374       0.03576554
10
Frame=5 idx=007950 GeodesicLength=0.2001208710432455 rxn_smarts="[O:1]([c:2]1[c:3]([H:9])[n:4][n:5][c:6]([H:10])[n:7]1)[H:8]>>[C:6](#[N:7])[H:10].[N:4]#[N:5].[O:1]([C:2]#[C:3][H:9])[H:8]"
O        2.23207376      -0.45710462       0.17063831
C        1.10225074       0.18705929      -0.06407657
C        0.62197438       1.35491514      -0.06454230
N       -1.40714619       1.54453331      -0.13114535
N       -2.06926891       0.60805029      -0.08945959
C       -1.23164604      -1.17945361       0.06329385
N       -0.03695841      -1.22537588       0.04400870
H        2.01108017      -1.39857801       0.23242765
H        0.87016287       2.38573332      -0.18961528
H       -2.09252236      -1.81977922       0.02847058
10
Frame=6 idx=007950 GeodesicLength=0.2402411296767638 rxn_smarts="[O:1]([c:2]1[c:3]([H:9])[n:4][n:5][c:6]([H:10])[n:7]1)[H:8]>>[C:6](#[N:7])[H:10].[N:4]#[N:5].[O:1]([C:2]#[C:3][H:9])[H:8]"
O        2.22931239      -0.45024386       0.18256358
C        1.10209245       0.18763288      -0.07817421
C        0.62000554       1.35884739      -0.07186859
N       -1.40388873       1.54862640      -0.11362287
N       -2.06630436       0.60609722      -0.06772409
C       -1.23720834      -1.18193355       0.05825040
N       -0.03912679      -1.23619319       0.02513268
H        2.00792187      -1.39129094       0.25402267
H        0.88176832       2.38572740      -0.20618895
H       -2.09457236      -1.82726974       0.01760938
10
Frame=7 idx=007950 GeodesicLength=0.28047639222853993 rxn_smarts="[O:1]([c:2]1[c:3]([H:9])[n:4][n:5][c:6]([H:10])[n:7]1)[H:8]>>[C:6](#[N:7])[H:10].[N:4]#[N:5].[O:1]([C:2]#[C:3][H:9])[H:8]"
O        2.22579997      -0.44294400       0.19743533
C        1.10240333       0.18805309      -0.09297394
C        0.61839195       1.36261635      -0.08472296
N       -1.40000515       1.55269917      -0.08796654
N       -2.06251872       0.60416263      -0.03452604
C       -1.24239064      -1.18496010       0.04939651
N       -0.04103098      -1.24722692       0.00367670
H        2.00272658      -1.38268969       0.28397699
H        0.89300672       2.38494608      -0.23213329
H       -2.09638307      -1.83465662      -0.00216275
10
Frame=8 idx=007950 GeodesicLength=0.32076661491727143 rxn_smarts="[O:1]([c:2]1[c:3]([H:9])[n:4][n:5][c:6]([H:10])[n:7]1)[H:8]>>[C:6](#[N:7])[H:10].[N:4]#[N:5].[O:1]([C:2]#[C:3][H:9])[H:8]"
O        2.22111342      -0.43483515       0.21684050
C        1.10323266       0.18821200      -0.10814010
C        0.61707718       1.36606841      -0.10341380
N       -1.39456208       1.55657868      -0.04838398
N       -2.05681288       0.60171607       0.01110290
C       -1.24715229      -1.18845379       0.03553773
N       -0.04249219      -1.25855585      -0.01902281
H        1.99488651      -1.37213024       0.32324695
H        0.90279600       2.38245517      -0.27311531
H       -2.09808633      -1.84105530      -0.03465207
10
Frame=9 idx=007950 GeodesicLength=0.3609669555113122 rxn_smarts="[O:1]([c:2]1[c:3]([H:9])[n:4][n:5][c:6]([H:10])[n:7]1)[H:8]>>[C:6](#[N:7])[H:10].[N:4]#[N:5].[O:1]([C:2]#[C:3][H:9])[H:8]"
O        2.21663581      -0.42725055       0.23064627
C        1.10377303       0.18868437      -0.12228609
C        0.61540412       1.36980740      -0.11675053
N       -1.38892959       1.55966077      -0.02136618
N       -2.05063435       0.59826870       0.04376577
C       -1.25200413      -1.19147952       0.02642324
N       -0.04420325      -1.26960203      -0.03788686
H        1.98728476      -1.36220480       0.35281056
H        0.91273197       2.38115828      -0.29952805
H       -2.10005838      -1.84704261      -0.05582812
10
Frame=10 idx=007950 GeodesicLength=0.4012816198866646 rxn_smarts="[O:1]([c:2]1[c:3]([H:9])[n:4][n:5][c:6]([H:10])[n:7]1)[H:8]>>[C:6](#[N:7])[H:10].[N:4]#[N:5].[O:1]([C:2]#[C:3][H:9])[H:8]"
O        2.21235184      -0.42012965       0.24103504
C        1.10416543       0.18947721      -0.13539406
C        0.61364629       1.37392619      -0.12644982
N       -1.38332991       1.56254406      -0.00043375
N       -2.04462857       0.59440173       0.06621290
C       -1.25691984      -1.19426483       0.01961247
N       -0.04609440      -1.28042469      -0.05504216
H        1.97983014      -1.35286100       0.37622123
H        0.92308082       2.38074350      -0.31728926
H       -2.10210179      -1.85341253      -0.06847259
10
Frame=11 idx=007950 GeodesicLength=0.44163369867776875 rxn_smarts="[O:1]([c:2]1[c:3]([H:9])[n:4][n:5][c:6]([H:10])[n:7]1)[H:8]>>[C:6](#[N:7])[H:10].[N:4]#[N:5].[O:1]([C:2]#[C:3][H:9])[H:8]"
O        2.20803366      -0.41333251       0.24948203
C        1.10450419       0.19053450      -0.14798475
C        0.61187757       1.37833310      -0.13443220
N       -1.37780476       1.56530190       0.01621070
N       -2.03873748       0.59030972       0.08301773
C       -1.26178651      -1.19695001       0.01376643
N       -0.04809749      -1.29109080      -0.07202895
H        1.97209443      -1.34381830       0.39621306
H        0.93398630       2.38103861      -0.32911070
H       -2.10406992      -1.86032621      -0.07513336
10
Frame=12 idx=007950 GeodesicLength=0.4820623397671972 rxn_smarts="[O:1]([c:2]1[c:3]([H:9])[n:4][n:5][c:6]([H:10])[n:7]1)[H:8]>>[C:6](#[N:7])[H:10].[N:4]#[N:5].[O:1]([C:2]#[C:3][H:9])[H:8]"
O        2.20340908      -0.40654441       0.25768973
C        1.10491784       0.19169892      -0.16047723
C        0.61014610       1.38284797      -0.14276667
N       -1.37187864       1.56794188       0.03356316
N       -2.03264134       0.58601640       0.09786226
C       -1.26657218      -1.19963414       0.00744531
N       -0.05010237      -1.30173487      -0.08905911
H        1.96360315      -1.33453895       0.41579363
H        0.94503241       2.38148374      -0.33993483
H       -2.10591404      -1.86753654      -0.08011624
10
Frame=13 idx=007950 GeodesicLength=0.522634082126221 rxn_smarts="[O:1]([c:2]1[c:3]([H:9])[n:4][n:5][c:6]([H:10])[n:7]1)[H:8]>>[C:6](#[N:7])[H:10].[N:4]#[N:5].[O:1]([C:2]#[C:3][H:9])[H:8]"
O        2.19817929      -0.39937092       0.26706521
C        1.10551371       0.19276195      -0.17333720
C        0.60839173       1.38723026      -0.15354689
N       -1.36513302       1.57024286       0.05375897
N       -2.02561551       0.58133713       0.11648443
C       -1.27126032      -1.20244655      -0.00027610
N       -0.05198349      -1.31257831      -0.10588816
H        1.95384723      -1.32434248       0.43763041
H        0.95583793       2.38161395      -0.35354813
H       -2.10777756      -1.87444789      -0.08834254
10
Frame=14 idx=007950 GeodesicLength=0.5633840376357013 rxn_smarts="[O:1]([c:2]1[c:3]([H:9])[n:4][n:5][c:6]([H:10])[n:7]1)[H:8]>>[C:6](#[N:7])[H:10].[N:4]#[N:5].[O:1]([C:2]#[C:3][H:9])[H:8]"
O        2.19213967      -0.39154599       0.27814253
C        1.10631574       0.19359040      -0.18676720
C        0.60649915       1.39130505      -0.16765894
N       -1.35732137       1.57197450       0.07678399
N       -2.01691997       0.57594833       0.14259152
C       -1.27582643      -1.20544125      -0.00958051
N       -0.05365138      -1.32379619      -0.12221256
H        1.94246639      -1.31271642       0.46294347
H        0.96615597       2.38114598      -0.37157335
H       -2.10985777      -1.88046440      -0.10266895
10
Frame=15 idx=007950 GeodesicLength=0.6044532561888194 rxn_smarts="[O:1]([c:2]1[c:3]([H:9])[n:4][n:5][c:6]([H:10])[n:7]1)[H:8]>>[C:6](#[N:7])[H:10].[N:4]#[N:5].[O:1]([C:2]#[C:3][H:9])[H:8]"
O        2.18514913      -0.38291179       0.29104377
C        1.10737170       0.19411918      -0.20093486
C        0.60435966       1.39495597      -0.18533029
N       -1.34796392       1.57295633       0.10423377
N       -2.00620876       0.56960975       0.17513380
C       -1.28024834      -1.20859748      -0.02024019
N       -0.05506856      -1.33550877      -0.13797340
H        1.92919166      -1.29935328       0.49193647
H        0.97569735       2.37997641      -0.39451528
H       -2.11227993      -1.88524632      -0.12335379
10
Frame=16 idx=007950 GeodesicLength=0.6457619727515946 rxn_smarts="[O:1]([c:2]1[c:3]([H:9])[n:4][n:5][c:6]([H:10])[n:7]1)[H:8]>>[C:6](#[N:7])[H:10].[N:4]#[N:5].[O:1]([C:2]#[C:3][H:9])[H:8]"
O        2.17751812      -0.37379748       0.30425816
C        1.10854159       0.19451890      -0.21535096
C        0.60193837       1.39835125      -0.20433169
N       -1.33734178       1.57329579       0.13363555
N       -1.99417929       0.56250561       0.20857483
C       -1.28457285      -1.21176182      -0.03102521
N       -0.05637146      -1.34754598      -0.15296056
H        1.91461788      -1.28485537       0.52171223
H        0.98476168       2.37848309      -0.41856076
H       -2.11491226      -1.88919399      -0.14595160
