15
Frame=0 idx=002543 GeodesicLength=0.0 rxn_smarts="[C:1]([C:2]([N:3]([C:4](=[O:5])[C:6]([H:13])([H:14])[H:15])[H:12])([H:10])[H:11])([H:7])([H:8])[H:9]>>[C:1]([C:2]([H:10])([H:11])[H:12])([H:7])([H:8])[H:9].[N:3](=[C:4]=[O:5])[C:6]([H:13])([H:14])[H:15]"
C       -2.26930335       0.41829096       0.18746454
C       -1.44554366      -0.37966856      -0.79147451
N        0.89871720       0.25387807      -0.74187241
C        1.18600954      -0.27870269       0.39654717
O        0.68227455      -0.88594392       1.31487452
C        2.72531041       0.11064245       0.36544944
H       -3.25678359      -0.03985331       0.28991383
H       -2.41252983       1.44661741      -0.14602318
H       -1.79790074       0.42676063       1.16912363
H       -1.20113407      -1.37926185      -0.44655111
H       -1.84162227      -0.40504066      -1.80786058
H       -0.44658366       0.19052503      -0.98302966
H        3.07360444       0.65282609      -0.50945595
H        3.24114725      -0.84483488       0.44219494
H        2.86433772       0.71376528       1.26069938
15
Frame=1 idx=002543 GeodesicLength=0.0979212537408262 rxn_smarts="[C:1]([C:2]([N:3]([C:4](=[O:5])[C:6]([H:13])([H:14])[H:15])[H:12])([H:10])[H:11])([H:7])([H:8])[H:9]>>[C:1]([C:2]([H:10])([H:11])[H:12])([H:7])([H:8])[H:9].[N:3](=[C:4]=[O:5])[C:6]([H:13])([H:14])[H:15]"
C       -2.28088511       0.40147109       0.18330475
C       -1.43179359      -0.37010559      -0.79610673
N        0.89255230       0.27365327      -0.68699322
C        1.17157446      -0.24737258       0.45499813
O        0.67453438      -0.84581924       1.37990230
C        2.73231842       0.10303320       0.34651239
H       -3.27259446      -0.05464325       0.24722040
H       -2.41372060       1.43972158      -0.12254197
H       -1.84228757       0.37567618       1.17977438
H       -1.19432944      -1.37678883      -0.46595439
H       -1.82960047      -0.39132958      -1.81233295
H       -0.43544929       0.22472886      -1.00851629
H        3.07669862       0.60485491      -0.55406757
H        3.22592509      -0.86315262       0.43712148
H        2.92705727       0.72607259       1.21767929
15
Frame=2 idx=002543 GeodesicLength=0.19588460787028678 rxn_smarts="[C:1]([C:2]([N:3]([C:4](=[O:5])[C:6]([H:13])([H:14])[H:15])[H:12])([H:10])[H:11])([H:7])([H:8])[H:9]>>[C:1]([C:2]([H:10])([H:11])[H:12])([H:7])([H:8])[H:9].[N:3](=[C:4]=[O:5])[C:6]([H:13])([H:14])[H:15]"
C       -2.29005444       0.38437881       0.17935696
C       -1.41632698      -0.36029548      -0.80031435
N        0.88460495       0.29364888      -0.63145288
C        1.15768689      -0.21551423       0.51377268
O        0.66711383      -0.80392381       1.44590349
C        2.73571618       0.09536047       0.32717287
H       -3.28573465      -0.06700355       0.20355270
H       -2.41106817       1.43242619      -0.09645603
H       -1.88496137       0.32128015       1.18831092
H       -1.18640794      -1.37421223      -0.48575602
H       -1.81570414      -0.37643925      -1.81646912
H       -0.42157504       0.25736720      -1.03313099
H        3.07268200       0.55539711      -0.59861344
H        3.20888950      -0.87986403       0.43344787
H        2.98513937       0.73739377       1.17067534
15
Frame=3 idx=002543 GeodesicLength=0.2938516275165088 rxn_smarts="[C:1]([C:2]([N:3]([C:4](=[O:5])[C:6]([H:13])([H:14])[H:15])[H:12])([H:10])[H:11])([H:7])([H:8])[H:9]>>[C:1]([C:2]([H:10])([H:11])[H:12])([H:7])([H:8])[H:9].[N:3](=[C:4]=[O:5])[C:6]([H:13])([H:14])[H:15]"
C       -2.29896903       0.36474513       0.17454812
C       -1.39702356      -0.34927035      -0.80357256
N        0.87452128       0.32228816      -0.57091602
C        1.14425282      -0.17618309       0.57636842
O        0.65934630      -0.75121248       1.51726399
C        2.73567700       0.08445763       0.30568771
H       -3.29618899      -0.08359784       0.15737952
H       -2.41138069       1.42152170      -0.06975130
H       -1.92861987       0.26408716       1.19380151
H       -1.17228699      -1.36980980      -0.50527394
H       -1.79578648      -0.36046330      -1.82047120
H       -0.40437427       0.29290922      -1.05410031
H        3.06116905       0.50065155      -0.64506075
H        3.18420515      -0.90086730       0.42623080
H        3.04545827       0.74074359       1.11786602
15
Frame=4 idx=002543 GeodesicLength=0.3922146678824007 rxn_smarts="[C:1]([C:2]([N:3]([C:4](=[O:5])[C:6]([H:13])([H:14])[H:15])[H:12])([H:10])[H:11])([H:7])([H:8])[H:9]>>[C:1]([C:2]([H:10])([H:11])[H:12])([H:7])([H:8])[H:9].[N:3](=[C:4]=[O:5])[C:6]([H:13])([H:14])[H:15]"
C       -2.30535181       0.34398784       0.16988114
C       -1.37518632      -0.33747747      -0.80635520
N        0.86335258       0.35201713      -0.50995050
C        1.13145753      -0.13451288       0.63955727
O        0.65149136      -0.69285005       1.59063114
C        2.73098340       0.07253202       0.28352062
H       -3.30290016      -0.10011173       0.11091571
H       -2.40998646       1.40879018      -0.04070229
H       -1.96953310       0.20380505       1.19647279
H       -1.15506478      -1.36460282      -0.52557578
H       -1.77270885      -0.34244456      -1.82423094
H       -0.38378451       0.32854488      -1.07306815
H        3.04114490       0.44334077      -0.69130509
H        3.15512204      -0.92161549       0.41994137
H        3.10096419       0.74059713       1.06026791
15
Frame=5 idx=002543 GeodesicLength=0.49108444897702974 rxn_smarts="[C:1]([C:2]([N:3]([C:4](=[O:5])[C:6]([H:13])([H:14])[H:15])[H:12])([H:10])[H:11])([H:7])([H:8])[H:9]>>[C:1]([C:2]([H:10])([H:11])[H:12])([H:7])([H:8])[H:9].[N:3](=[C:4]=[O:5])[C:6]([H:13])([H:14])[H:15]"
C       -2.30838592       0.32269276       0.16592389
C       -1.35180254      -0.32520601      -0.80905501
N        0.85164054       0.37893127      -0.45125515
C        1.11923737      -0.09277708       0.70145288
O        0.64353206      -0.63073244       1.66410530
C        2.72163897       0.06054172       0.26156162
H       -3.30570362      -0.11440842       0.06546150
H       -2.40486071       1.39480912      -0.00820085
H       -2.00616907       0.14023294       1.19638894
H       -1.13655751      -1.35907848      -0.54752804
H       -1.74831494      -0.32179129      -1.82777491
H       -0.36005512       0.36296433      -1.09094127
H        3.01318861       0.38431557      -0.73596626
H        3.12388020      -0.94009687       0.41709375
H        3.14873169       0.73960291       0.99873362
15
Frame=6 idx=002543 GeodesicLength=0.5904104493688063 rxn_smarts="[C:1]([C:2]([N:3]([C:4](=[O:5])[C:6]([H:13])([H:14])[H:15])[H:12])([H:10])[H:11])([H:7])([H:8])[H:9]>>[C:1]([C:2]([H:10])([H:11])[H:12])([H:7])([H:8])[H:9].[N:3](=[C:4]=[O:5])[C:6]([H:13])([H:14])[H:15]"
C       -2.30809241       0.30100098       0.16297286
C       -1.32760394      -0.31256261      -0.81199944
N        0.83999639       0.40133536      -0.39638716
C        1.10746111      -0.05163913       0.76090363
O        0.63524220      -0.56508107       1.73643692
C        2.70821835       0.04872479       0.24040186
H       -3.30481531      -0.12630221       0.02246202
H       -2.39623445       1.37943504       0.02782325
H       -2.03755866       0.07407241       1.19350579
H       -1.11775764      -1.35341330      -0.57187480
H       -1.72382159      -0.29808516      -1.83117201
H       -0.33365171       0.39590653      -1.10815123
H        2.97882249       0.32379898      -0.77789354
H        3.09183618      -0.95564240       0.41868161
H        3.18795898       0.73845179       0.93429024
15
Frame=7 idx=002543 GeodesicLength=0.6902534852394095 rxn_smarts="[C:1]([C:2]([N:3]([C:4](=[O:5])[C:6]([H:13])([H:14])[H:15])[H:12])([H:10])[H:11])([H:7])([H:8])[H:9]>>[C:1]([C:2]([H:10])([H:11])[H:12])([H:7])([H:8])[H:9].[N:3](=[C:4]=[O:5])[C:6]([H:13])([H:14])[H:15]"
C       -2.30470881       0.27864937       0.16124002
C       -1.30309641      -0.29954386      -0.81548271
N        0.82858959       0.41894680      -0.34607464
C        1.09591879      -0.01073393       0.81727897
O        0.62631320      -0.49482644       1.80689065
C        2.69143146       0.03688414       0.22037337
H       -3.30065945      -0.13592489      -0.01750650
H       -2.38434416       1.36214503       0.06784543
H       -2.06359251       0.00503090       1.18782989
H       -1.09904562      -1.34748940      -0.59935563
H       -1.70004595      -0.27091817      -1.83449138
H       -0.30506987       0.42763134      -1.12499445
H        2.93944225       0.26109792      -0.81638382
H        3.05972536      -0.96835397       0.42539564
H        3.21914211       0.73740517       0.86743517
15
Frame=8 idx=002543 GeodesicLength=0.7908367700703847 rxn_smarts="[C:1]([C:2]([N:3]([C:4](=[O:5])[C:6]([H:13])([H:14])[H:15])[H:12])([H:10])[H:11])([H:7])([H:8])[H:9]>>[C:1]([C:2]([H:10])([H:11])[H:12])([H:7])([H:8])[H:9].[N:3](=[C:4]=[O:5])[C:6]([H:13])([H:14])[H:15]"
C       -2.29868251       0.25489287       0.16080256
C       -1.27835005      -0.28585633      -0.81971217
N        0.81761233       0.43317713      -0.30034044
C        1.08439637       0.03164770       0.87052378
O        0.61623193      -0.41754682       1.87521623
C        2.67185283       0.02428333       0.20154415
H       -3.29360723      -0.14477096      -0.05398756
H       -2.37047460       1.34186460       0.11199566
H       -2.08418927      -0.06731281       1.17930820
H       -1.07980682      -1.34081393      -0.63065148
H       -1.67718198      -0.23975700      -1.83776621
H       -0.27480199       0.45938745      -1.14138485
H        2.89619320       0.19499150      -0.85109117
H        3.02699917      -0.97932684       0.43721269
H        3.24380864       0.73514013       0.79833062
15
Frame=9 idx=002543 GeodesicLength=0.8923790739987812 rxn_smarts="[C:1]([C:2]([N:3]([C:4](=[O:5])[C:6]([H:13])([H:14])[H:15])[H:12])([H:10])[H:11])([H:7])([H:8])[H:9]>>[C:1]([C:2]([H:10])([H:11])[H:12])([H:7])([H:8])[H:9].[N:3](=[C:4]=[O:5])[C:6]([H:13])([H:14])[H:15]"
C       -2.28994128       0.22761134       0.16149066
C       -1.25170169      -0.27034521      -0.82455247
N        0.80720554       0.44951765      -0.25778077
C        1.07277596       0.08095046       0.92165522
O        0.60437052      -0.32664230       1.94196415
C        2.64821840       0.00869682       0.18332392
H       -3.28245304      -0.15818738      -0.08692455
H       -2.35790496       1.31592025       0.15990062
H       -2.09811333      -0.14391950       1.16773956
H       -1.05597724      -1.33164499      -0.66639075
H       -1.65326163      -0.20374113      -1.84075487
H       -0.24314431       0.49532129      -1.15593434
H        2.84764139       0.12267986      -0.88241327
H        2.98791355      -0.99190398       0.45234674
H        3.26437211       0.72568681       0.72633014
15
Frame=10 idx=002543 GeodesicLength=0.9949148830537893 rxn_smarts="[C:1]([C:2]([N:3]([C:4](=[O:5])[C:6]([H:13])([H:14])[H:15])[H:12])([H:10])[H:11])([H:7])([H:8])[H:9]>>[C:1]([C:2]([H:10])([H:11])[H:12])([H:7])([H:8])[H:9].[N:3](=[C:4]=[O:5])[C:6]([H:13])([H:14])[H:15]"
C       -2.27829727       0.19836276       0.16365818
C       -1.22536789      -0.25379492      -0.83063144
N        0.79729542       0.46330698      -0.22018385
C        1.06084473       0.13260026       0.96854228
O        0.59083742      -0.22743147       2.00412085
C        2.62218546      -0.00821734       0.16706686
H       -3.26850159      -0.17276436      -0.11439842
H       -2.34409381       1.28577641       0.21121377
H       -2.10402383      -0.22303165       1.15346063
H       -1.03184286      -1.32085565      -0.70724257
H       -1.63169184      -0.16289069      -1.84340746
H       -0.21058345       0.53208200      -1.17071872
H        2.79620153       0.04657857      -0.90822893
H        2.94800087      -1.00297728       0.47303689
H        3.27903711       0.71325637       0.65371191
15
Frame=11 idx=002543 GeodesicLength=1.0983122600405415 rxn_smarts="[C:1]([C:2]([N:3]([C:4](=[O:5])[C:6]([H:13])([H:14])[H:15])[H:12])([H:10])[H:11])([H:7])([H:8])[H:9]>>[C:1]([C:2]([H:10])([H:11])[H:12])([H:7])([H:8])[H:9].[N:3](=[C:4]=[O:5])[C:6]([H:13])([H:14])[H:15]"
C       -2.26367884       0.16711479       0.16720571
C       -1.19955679      -0.23608200      -0.83799203
N        0.78781510       0.47490801      -0.18717312
C        1.04845224       0.18655838       1.01095182
O        0.57550702      -0.12042744       2.06045894
C        2.59388815      -0.02655159       0.15298923
H       -3.25181692      -0.18961407      -0.13570360
H       -2.32933550       1.25120099       0.26491220
H       -2.10086340      -0.30347206       1.13672760
H       -1.00781846      -1.30800614      -0.75347219
H       -1.61285033      -0.11697349      -1.84531955
H       -0.17718772       0.56957174      -1.18581665
H        2.74220032      -0.03278295      -0.92794691
H        2.90715371      -1.01246377       0.49867116
H        3.28809141       0.69701962       0.58150739
15
Frame=12 idx=002543 GeodesicLength=1.20280305011513 rxn_smarts="[C:1]([C:2]([N:3]([C:4](=[O:5])[C:6]([H:13])([H:14])[H:15])[H:12])([H:10])[H:11])([H:7])([H:8])[H:9]>>[C:1]([C:2]([H:10])([H:11])[H:12])([H:7])([H:8])[H:9].[N:3](=[C:4]=[O:5])[C:6]([H:13])([H:14])[H:15]"
C       -2.24612704       0.13356251       0.17193421
C       -1.17419831      -0.21684949      -0.84654303
N        0.77863833       0.48555177      -0.15800253
C        1.03562251       0.24345571       1.04903773
O        0.55836838      -0.00550182       2.11024723
C        2.56328893      -0.04669462       0.14109724
H       -3.23241101      -0.21054264      -0.15073796
H       -2.31439549       1.21180461       0.31998409
H       -2.08784051      -0.38451458       1.11788301
H       -0.98366904      -1.29229654      -0.80516490
H       -1.59670339      -0.06567061      -1.84599625
H       -0.14288403       0.60830708      -1.20106952
H        2.68540534      -0.11524673      -0.94139006
H        2.86454758      -1.02093196       0.52846300
H        3.29235775       0.67556730       0.51025774
15
Frame=13 idx=002543 GeodesicLength=1.3078269514655365 rxn_smarts="[C:1]([C:2]([N:3]([C:4](=[O:5])[C:6]([H:13])([H:14])[H:15])[H:12])([H:10])[H:11])([H:7])([H:8])[H:9]>>[C:1]([C:2]([H:10])([H:11])[H:12])([H:7])([H:8])[H:9].[N:3](=[C:4]=[O:5])[C:6]([H:13])([H:14])[H:15]"
C       -2.22607581       0.09897856       0.17754361
C       -1.15030907      -0.19664771      -0.85599135
N        0.76955016       0.49296762      -0.13238392
C        1.02232359       0.30059045       1.08256016
O        0.53945335       0.11226217       2.15211774
C        2.53153013      -0.06749077       0.13165824
H       -3.21117541      -0.23403922      -0.15966553
H       -2.29823443       1.16902597       0.37506662
H       -2.06579304      -0.46379355       1.09744454
H       -0.96220374      -1.27405384      -0.86160907
H       -1.58400268      -0.00953276      -1.84474968
H       -0.10728576       0.64566680      -1.21680948
H        2.62736540      -0.19891653      -0.94810904
H        2.82354931      -1.02651365       0.56212637
H        3.29130801       0.65149645       0.44080079
15
Frame=14 idx=002543 GeodesicLength=1.4135609075798852 rxn_smarts="[C:1]([C:2]([N:3]([C:4](=[O:5])[C:6]([H:13])([H:14])[H:15])[H:12])([H:10])[H:11])([H:7])([H:8])[H:9]>>[C:1]([C:2]([H:10])([H:11])[H:12])([H:7])([H:8])[H:9].[N:3](=[C:4]=[O:5])[C:6]([H:13])([H:14])[H:15]"
C       -2.20391052       0.06308441       0.18361199
C       -1.12753670      -0.17511244      -0.86587786
N        0.76044754       0.49872724      -0.10909186
C        1.00892123       0.35865031       1.11212677
O        0.51931477       0.23316977       2.18633808
C        2.49845108      -0.08937969       0.12428015
H       -3.18799846      -0.26238343      -0.16336931
H       -2.28252449       1.12281843       0.42874325
H       -2.03477809      -0.54046983       1.07588207
H       -0.94274663      -1.25239955      -0.92212901
H       -1.57394729       0.05139358      -1.84084758
H       -0.07004602       0.68234225      -1.23245240
H        2.56741223      -0.28316256      -0.94856579
H        2.78277647      -1.03031704       0.59799539
H        3.28616488       0.62303854       0.37335612
15
Frame=15 idx=002543 GeodesicLength=1.5193580703008054 rxn_smarts="[C:1]([C:2]([N:3]([C:4](=[O:5])[C:6]([H:13])([H:14])[H:15])[H:12])([H:10])[H:11])([H:7])([H:8])[H:9]>>[C:1]([C:2]([H:10])([H:11])[H:12])([H:7])([H:8])[H:9].[N:3](=[C:4]=[O:5])[C:6]([H:13])([H:14])[H:15]"
C       -2.18053593       0.02696491       0.18970736
C       -1.10653826      -0.15279110      -0.87562233
N        0.75117588       0.50106352      -0.08747180
C        0.99562020       0.41553695       1.13798864
O        0.49832786       0.35331060       2.21277801
C        2.46519184      -0.11142552       0.11878271
H       -3.16376915      -0.29425625      -0.16309766
H       -2.26720705       1.07468245       0.47983048
H       -1.99689073      -0.61281373       1.05365399
H       -0.92736806      -1.22765351      -0.98541986
H       -1.56638013       0.11632065      -1.83353408
H       -0.03062419       0.71613305      -1.24784000
H        2.50698178      -0.36633367      -0.94304368
H        2.74499197      -1.03115674       0.63520107
H        3.27702396       0.59241838       0.30808715
15
Frame=16 idx=002543 GeodesicLength=1.62594872198257 rxn_smarts="[C:1]([C:2]([N:3]([C:4](=[O:5])[C:6]([H:13])([H:14])[H:15])[H:12])([H:10])[H:11])([H:7])([H:8])[H:9]>>[C:1]([C:2]([H:10])([H:11])[H:12])([H:7])([H:8])[H:9].[N:3](=[C:4]=[O:5])[C:6]([H:13])([H:14])[H:15]"
C       -2.15543235      -0.01082309       0.19557878
C       -1.08600425      -0.12871052      -0.88472740
N        0.74178900       0.50420591      -0.06659672
C        0.98296011       0.47474584       1.16068898
O        0.47685646       0.47579663       2.23181243
C        2.43012468      -0.13497958       0.11468464
H       -3.13694633      -0.33325048      -0.16026334
H       -2.25399222       1.02312356       0.52835248
H       -1.95098524      -0.68205856       1.03074603
H       -0.91297063      -1.19803911      -1.05116265
H       -1.55994432       0.18558775      -1.82188488
H        0.01083943       0.74995706      -1.26206124
H        2.44304369      -0.45004143      -0.93206001
H        2.70591837      -1.03129458       0.67294161
H        3.26474359       0.55578059       0.24395129
