14
Frame=0 idx=009541 GeodesicLength=0.0 rxn_smarts="[C:1]([C@@:2]1([H:11])[O:3][C:4]([H:12])([H:13])/[C:5](=[N:6]/[H:14])[O:7]1)([H:8])([H:9])[H:10]>>[C-:2]1=[O+:3][C:4]([H:12])([H:13])/[C:5](=[N:6]/[H:14])[O:7]1.[C:1]([H:8])([H:9])([H:10])[H:11]"
C       -1.84408482       0.67867976      -0.19497809
C       -0.45482782      -0.21800105       1.17166944
O       -0.22447723      -1.39924134       0.58106209
C        0.84110937      -1.24292340      -0.35476549
C        1.43502561       0.08525571       0.02153993
N        2.46921251       0.61453431      -0.43542545
O        0.61725599       0.60893297       0.99270018
H       -2.28288971       1.63111329       0.10089497
H       -2.59467172      -0.05860379      -0.47322601
H       -1.10609110       0.82616642      -0.97974929
H       -1.50717925       0.24289687       1.19659179
H        0.45870074      -1.23364461      -1.37844212
H        1.55015922      -2.05895709      -0.23308201
H        2.64275820       1.52379198      -0.01478998
14
Frame=1 idx=009541 GeodesicLength=0.10213580457915783 rxn_smarts="[C:1]([C@@:2]1([H:11])[O:3][C:4]([H:12])([H:13])/[C:5](=[N:6]/[H:14])[O:7]1)([H:8])([H:9])[H:10]>>[C-:2]1=[O+:3][C:4]([H:12])([H:13])/[C:5](=[N:6]/[H:14])[O:7]1.[C:1]([H:8])([H:9])([H:10])[H:11]"
C       -1.88044782       0.68468947      -0.18333549
C       -0.45028838      -0.20632195       1.14451216
O       -0.22675887      -1.38772021       0.55122833
C        0.86332343      -1.24738460      -0.35767487
C        1.45256380       0.08443861       0.01157046
N        2.49785551       0.60375335      -0.43155527
O        0.62707288       0.61589953       0.97193928
H       -2.32288346       1.63420035       0.11671112
H       -2.63143141      -0.05689036      -0.44944905
H       -1.16696017       0.84076472      -0.98927064
H       -1.52284825       0.25177142       1.20139447
H        0.50695323      -1.25358814      -1.39042870
H        1.56613319      -2.06396727      -0.20434860
H        2.68771632       1.50035509       0.00870679
14
Frame=2 idx=009541 GeodesicLength=0.204351311210471 rxn_smarts="[C:1]([C@@:2]1([H:11])[O:3][C:4]([H:12])([H:13])/[C:5](=[N:6]/[H:14])[O:7]1)([H:8])([H:9])[H:10]>>[C-:2]1=[O+:3][C:4]([H:12])([H:13])/[C:5](=[N:6]/[H:14])[O:7]1.[C:1]([H:8])([H:9])([H:10])[H:11]"
C       -1.91816976       0.69098758      -0.17094548
C       -0.44574730      -0.19348804       1.11459836
O       -0.22917753      -1.37490377       0.51837754
C        0.88655794      -1.25208910      -0.36057537
C        1.47171603       0.08307020       0.00161257
N        2.52886555       0.59154427      -0.42590594
O        0.63694100       0.62389739       0.94867383
H       -2.36464987       1.63697772       0.13441759
H       -2.66908977      -0.05530946      -0.42442130
H       -1.23118605       0.85643581      -0.99819775
H       -1.53846574       0.26051167       1.20609782
H        0.55844838      -1.27458286      -1.40213167
H        1.58124579      -2.06912260      -0.17374195
H        2.73271134       1.47607119       0.03214176
14
Frame=3 idx=009541 GeodesicLength=0.30650216642002726 rxn_smarts="[C:1]([C@@:2]1([H:11])[O:3][C:4]([H:12])([H:13])/[C:5](=[N:6]/[H:14])[O:7]1)([H:8])([H:9])[H:10]>>[C-:2]1=[O+:3][C:4]([H:12])([H:13])/[C:5](=[N:6]/[H:14])[O:7]1.[C:1]([H:8])([H:9])([H:10])[H:11]"
C       -1.95719099       0.69758940      -0.15775270
C       -0.44121416      -0.17940779       1.08159821
O       -0.23171216      -1.36066772       0.48212330
C        0.91080589      -1.25711257      -0.36340289
C        1.49263236       0.08098751      -0.00817077
N        2.56220926       0.57781148      -0.41836590
O        0.64689740       0.63296650       0.92264252
H       -2.40808653       1.63939180       0.15424638
H       -2.70751654      -0.05386389      -0.39814821
H       -1.29892030       0.87331625      -1.00638983
H       -1.55390641       0.26899779       1.21061794
H        0.61336994      -1.29679490      -1.41332833
H        1.59515290      -2.07446922      -0.14110243
H        2.77747933       1.45125537       0.05543271
14
Frame=4 idx=009541 GeodesicLength=0.40839154000522104 rxn_smarts="[C:1]([C@@:2]1([H:11])[O:3][C:4]([H:12])([H:13])/[C:5](=[N:6]/[H:14])[O:7]1)([H:8])([H:9])[H:10]>>[C-:2]1=[O+:3][C:4]([H:12])([H:13])/[C:5](=[N:6]/[H:14])[O:7]1.[C:1]([H:8])([H:9])([H:10])[H:11]"
C       -1.99757802       0.70431160      -0.14372191
C       -0.43661735      -0.16370533       1.04514466
O       -0.23419391      -1.34470721       0.44226447
C        0.93596540      -1.26236867      -0.36611541
C        1.51537154       0.07824842      -0.01786622
N        2.59772228       0.56265684      -0.40922230
O        0.65698506       0.64347531       0.89326550
H       -2.45343369       1.64110812       0.17630558
H       -2.74654316      -0.05294913      -0.37054446
H       -1.37053480       0.89143942      -1.01372778
H       -1.56895714       0.27727506       1.21487991
H        0.67158993      -1.32029280      -1.42371833
H        1.60746146      -2.07983097      -0.10644524
H        2.82276241       1.42533936       0.07950153
14
Frame=5 idx=009541 GeodesicLength=0.5099382110560623 rxn_smarts="[C:1]([C@@:2]1([H:11])[O:3][C:4]([H:12])([H:13])/[C:5](=[N:6]/[H:14])[O:7]1)([H:8])([H:9])[H:10]>>[C-:2]1=[O+:3][C:4]([H:12])([H:13])/[C:5](=[N:6]/[H:14])[O:7]1.[C:1]([H:8])([H:9])([H:10])[H:11]"
C       -2.03905563       0.71138401      -0.12874531
C       -0.43205241      -0.14656733       1.00476607
O       -0.23676117      -1.32702208       0.39793619
C        0.96204540      -1.26813751      -0.36858674
C        1.54021887       0.07432446      -0.02680724
N        2.63587286       0.54532511      -0.39720109
O        0.66729270       0.65506874       0.86051132
H       -2.50020417       1.64224606       0.20115252
H       -2.78593152      -0.05216886      -0.34181747
H       -1.44589845       0.91124831      -1.01984861
H       -1.58345740       0.28495319       1.21871871
H        0.73370471      -1.34529998      -1.43304525
H        1.61752778      -2.08556095      -0.06943595
H        2.86669842       1.40020683       0.10240284
14
Frame=6 idx=009541 GeodesicLength=0.6110328213939622 rxn_smarts="[C:1]([C@@:2]1([H:11])[O:3][C:4]([H:12])([H:13])/[C:5](=[N:6]/[H:14])[O:7]1)([H:8])([H:9])[H:10]>>[C-:2]1=[O+:3][C:4]([H:12])([H:13])/[C:5](=[N:6]/[H:14])[O:7]1.[C:1]([H:8])([H:9])([H:10])[H:11]"
C       -2.08176371       0.71857348      -0.11272504
C       -0.42740593      -0.12747476       0.95982818
O       -0.23918597      -1.30713588       0.34861303
C        0.98891513      -1.27428089      -0.37083204
C        1.56724951       0.06928776      -0.03504820
N        2.67678433       0.52560484      -0.38200291
O        0.67786913       0.66828537       0.82341423
H       -2.54858709       1.64241244       0.22902721
H       -2.82563185      -0.05197727      -0.31161766
H       -1.52568179       0.93256701      -1.02463106
H       -1.59703577       0.29205038       1.22199548
H        0.79968231      -1.37190365      -1.44098206
H        1.62468081      -2.09143242      -0.03005576
H        2.91011090       1.37542359       0.12501660
14
Frame=7 idx=009541 GeodesicLength=0.7114787743440996 rxn_smarts="[C:1]([C@@:2]1([H:11])[O:3][C:4]([H:12])([H:13])/[C:5](=[N:6]/[H:14])[O:7]1)([H:8])([H:9])[H:10]>>[C-:2]1=[O+:3][C:4]([H:12])([H:13])/[C:5](=[N:6]/[H:14])[O:7]1.[C:1]([H:8])([H:9])([H:10])[H:11]"
C       -2.12559968       0.72574390      -0.09556278
C       -0.42262352      -0.10605370       0.90964652
O       -0.24131561      -1.28465900       0.29358113
C        1.01637347      -1.28077475      -0.37276536
C        1.59651862       0.06302455      -0.04233997
N        2.72049167       0.50313995      -0.36297776
O        0.68883620       0.68339529       0.78118838
H       -2.59853074       1.64121142       0.26035435
H       -2.86530777      -0.05266854      -0.27989921
H       -1.61021038       0.95554218      -1.02772107
H       -1.60926223       0.29843827       1.22449685
H        0.86960914      -1.40028424      -1.44707358
H        1.62805820      -2.09730969       0.01179695
H        2.95296263       1.35125437       0.14727554
14
Frame=8 idx=009541 GeodesicLength=0.8109739899869406 rxn_smarts="[C:1]([C@@:2]1([H:11])[O:3][C:4]([H:12])([H:13])/[C:5](=[N:6]/[H:14])[O:7]1)([H:8])([H:9])[H:10]>>[C-:2]1=[O+:3][C:4]([H:12])([H:13])/[C:5](=[N:6]/[H:14])[O:7]1.[C:1]([H:8])([H:9])([H:10])[H:11]"
C       -2.17022417       0.73276502      -0.07718309
C       -0.41766543      -0.08200569       0.85352656
O       -0.24298085      -1.25921404       0.23200186
C        1.04409456      -1.28761947      -0.37425356
C        1.62806085       0.05525823      -0.04802131
N        2.76700423       0.47733694      -0.33888336
O        0.70040723       0.70047040       0.73322404
H       -2.64970458       1.63818953       0.29561370
H       -2.90437622      -0.05448340      -0.24681741
H       -1.69952606       0.98037751      -1.02863282
H       -1.61961517       0.30386849       1.22593351
H        0.94347879      -1.43046629      -1.45074484
H        1.62643338      -2.10317951       0.05609873
H        2.99461343       1.32870228       0.16813799
14
Frame=9 idx=009541 GeodesicLength=0.909135439029678 rxn_smarts="[C:1]([C@@:2]1([H:11])[O:3][C:4]([H:12])([H:13])/[C:5](=[N:6]/[H:14])[O:7]1)([H:8])([H:9])[H:10]>>[C-:2]1=[O+:3][C:4]([H:12])([H:13])/[C:5](=[N:6]/[H:14])[O:7]1.[C:1]([H:8])([H:9])([H:10])[H:11]"
C       -2.21505571       0.73954015      -0.05753193
C       -0.41254262      -0.05516459       0.79078355
O       -0.24396478      -1.23045149       0.16282232
C        1.07163531      -1.29483218      -0.37510625
C        1.66168905       0.04569852      -0.05112309
N        2.81583886       0.44787520      -0.30845961
O        0.71282154       0.71940362       0.67916312
H       -2.70136251       1.63289946       0.33540195
H       -2.94208054      -0.05754789      -0.21276198
H       -1.79337292       1.00734752      -1.02677244
H       -1.62755733       0.30778265       1.22593575
H        1.02131797      -1.46262938      -1.45126167
H        1.61833406      -2.10892170       0.10292428
H        3.03429962       1.30900009       0.18598599
14
Frame=10 idx=009541 GeodesicLength=1.0053154523242274 rxn_smarts="[C:1]([C@@:2]1([H:11])[O:3][C:4]([H:12])([H:13])/[C:5](=[N:6]/[H:14])[O:7]1)([H:8])([H:9])[H:10]>>[C-:2]1=[O+:3][C:4]([H:12])([H:13])/[C:5](=[N:6]/[H:14])[O:7]1.[C:1]([H:8])([H:9])([H:10])[H:11]"
C       -2.25960387       0.74530605      -0.03667711
C       -0.40698421      -0.02450132       0.72076074
O       -0.24355188      -1.19757799       0.08598320
C        1.09819195      -1.30165495      -0.37547879
C        1.69659463       0.03501582      -0.05185530
N        2.86579550       0.41533868      -0.27173419
O        0.72647344       0.74093873       0.61793618
H       -2.75270790       1.62458828       0.37921188
H       -2.97768279      -0.06287236      -0.17694357
H       -1.89226512       1.03467082      -1.02208898
H       -1.63205663       0.31054741       1.22413978
H        1.10161758      -1.49640436      -1.44795688
H        1.60250412      -2.11330120       0.15145743
H        3.07367519       1.28990640       0.20324560
14
Frame=11 idx=009541 GeodesicLength=1.099427621824428 rxn_smarts="[C:1]([C@@:2]1([H:11])[O:3][C:4]([H:12])([H:13])/[C:5](=[N:6]/[H:14])[O:7]1)([H:8])([H:9])[H:10]>>[C-:2]1=[O+:3][C:4]([H:12])([H:13])/[C:5](=[N:6]/[H:14])[O:7]1.[C:1]([H:8])([H:9])([H:10])[H:11]"
C       -2.30347215       0.74925369      -0.01462268
C       -0.40071837       0.01151645       0.64225020
O       -0.24116438      -1.15985680       0.00143047
C        1.12284576      -1.30746062      -0.37547512
C        1.73178617       0.02436495      -0.05147733
N        2.91562682       0.38054157      -0.22960250
O        0.74190171       0.76634576       0.54748774
H       -2.80356263       1.61206251       0.42716602
H       -3.01010168      -0.07202776      -0.13860070
H       -1.99693686       1.06119118      -1.01437306
H       -1.63168782       0.31299134       1.22022607
H        1.18293313      -1.53236575      -1.44016187
H        1.57774860      -2.11479219       0.20141986
H        3.11480169       1.26823567       0.22433290
14
Frame=12 idx=009541 GeodesicLength=1.1905623835330104 rxn_smarts="[C:1]([C@@:2]1([H:11])[O:3][C:4]([H:12])([H:13])/[C:5](=[N:6]/[H:14])[O:7]1)([H:8])([H:9])[H:10]>>[C-:2]1=[O+:3][C:4]([H:12])([H:13])/[C:5](=[N:6]/[H:14])[O:7]1.[C:1]([H:8])([H:9])([H:10])[H:11]"
C       -2.34439305       0.75159786       0.00804284
C       -0.39401197       0.05196567       0.55550631
O       -0.23653208      -1.11794800      -0.09055541
C        1.14438123      -1.31241620      -0.37389526
C        1.76609978       0.01277788      -0.04738887
N        2.96333379       0.34290436      -0.18015050
O        0.75985198       0.79291372       0.47124756
H       -2.85255443       1.59356553       0.48026340
H       -3.03629051      -0.08432472      -0.10216919
H       -2.10349194       1.09035668      -1.00125100
H       -1.62622985       0.31319401       1.21310869
H        1.26404483      -1.57005644      -1.42569667
H        1.54226130      -2.11328965       0.25240434
H        3.15353092       1.24875929       0.24053374
14
Frame=13 idx=009541 GeodesicLength=1.2784831236383276 rxn_smarts="[C:1]([C@@:2]1([H:11])[O:3][C:4]([H:12])([H:13])/[C:5](=[N:6]/[H:14])[O:7]1)([H:8])([H:9])[H:10]>>[C-:2]1=[O+:3][C:4]([H:12])([H:13])/[C:5](=[N:6]/[H:14])[O:7]1.[C:1]([H:8])([H:9])([H:10])[H:11]"
C       -2.38150724       0.75053439       0.03081209
C       -0.38621790       0.09920389       0.46043273
O       -0.22888406      -1.07174900      -0.18625168
C        1.16124833      -1.31449382      -0.37267778
C        1.79738218       0.00364156      -0.04508711
N        3.00622669       0.30594734      -0.12966836
O        0.78112102       0.82282966       0.38823923
H       -2.89646593       1.57045866       0.53396061
H       -3.05595227      -0.10203342      -0.06156778
H       -2.21399471       1.11188195      -0.98590312
H       -1.61318287       0.31554972       1.20318364
H        1.33874767      -1.60865381      -1.40626258
H        1.49723576      -2.10519344       0.30144374
H        3.19424332       1.22207632       0.26934637
14
Frame=14 idx=009541 GeodesicLength=1.3635333982208575 rxn_smarts="[C:1]([C@@:2]1([H:11])[O:3][C:4]([H:12])([H:13])/[C:5](=[N:6]/[H:14])[O:7]1)([H:8])([H:9])[H:10]>>[C-:2]1=[O+:3][C:4]([H:12])([H:13])/[C:5](=[N:6]/[H:14])[O:7]1.[C:1]([H:8])([H:9])([H:10])[H:11]"
C       -2.41242903       0.74710269       0.05293343
C       -0.37813894       0.15059518       0.35836001
O       -0.21855064      -1.02287438      -0.28610381
C        1.17265524      -1.31486134      -0.36975960
C        1.82509753      -0.00566776      -0.03784858
N        3.04321233       0.26774893      -0.07256484
O        0.80547930       0.85227465       0.30524302
H       -2.93400469       1.54066919       0.59079197
H       -3.06625854      -0.12307836      -0.02517521
H       -2.32220925       1.13367395      -0.96465654
H       -1.59390673       0.31549853       1.18939673
H        1.40814198      -1.64715306      -1.37959888
H        1.44030918      -2.09280885       0.34870582
H        3.23060227       1.19888063       0.29027648
14
Frame=15 idx=009541 GeodesicLength=1.4459692162642312 rxn_smarts="[C:1]([C@@:2]1([H:11])[O:3][C:4]([H:12])([H:13])/[C:5](=[N:6]/[H:14])[O:7]1)([H:8])([H:9])[H:10]>>[C-:2]1=[O+:3][C:4]([H:12])([H:13])/[C:5](=[N:6]/[H:14])[O:7]1.[C:1]([H:8])([H:9])([H:10])[H:11]"
C       -2.43615697       0.73987447       0.07387710
C       -0.36903590       0.20755163       0.24951482
O       -0.20564390      -0.97202017      -0.38581499
C        1.17763472      -1.31180223      -0.36734344
C        1.84749500      -0.01181756      -0.03351723
N        3.07216179       0.23214818      -0.01818169
O        0.83269563       0.88302205       0.22052838
H       -2.96159434       1.50714410       0.64560488
H       -3.06674887      -0.14911690       0.01473478
H       -2.43016152       1.14456386      -0.94107638
H       -1.56581742       0.31863653       1.17233368
H        1.46579770      -1.68532921      -1.34832617
H        1.37465896      -2.07224116       0.39190859
H        3.26471513       1.16938638       0.32575767
14
Frame=16 idx=009541 GeodesicLength=1.526949575655961 rxn_smarts="[C:1]([C@@:2]1([H:11])[O:3][C:4]([H:12])([H:13])/[C:5](=[N:6]/[H:14])[O:7]1)([H:8])([H:9])[H:10]>>[C-:2]1=[O+:3][C:4]([H:12])([H:13])/[C:5](=[N:6]/[H:14])[O:7]1.[C:1]([H:8])([H:9])([H:10])[H:11]"
C       -2.45098009       0.73025916       0.09316207
C       -0.35959382       0.26604415       0.13735922
O       -0.19054117      -0.92098195      -0.48595073
C        1.17595952      -1.30651681      -0.36381003
C        1.86388954      -0.01683338      -0.02628381
N        3.09228114       0.19791195       0.03907168
O        0.86082772       0.91243018       0.13825915
H       -2.97846572       1.46855791       0.70056406
H       -3.05608672      -0.17751268       0.05018718
H       -2.53129430       1.15199394      -0.91208763
H       -1.53151174       0.32017731       1.15219052
H        1.51400329      -1.72230089      -1.31088961
H        1.29919645      -2.04595278       0.43123996
H        3.29231592       1.14272388       0.35698796
