14
Frame=0 idx=006631 GeodesicLength=0.0 rxn_smarts="[O:1]=[C:2]([C@@:3]1([H:9])[C@@:4]2([H:10])[C:5]([H:11])([H:12])[C:6]([H:13])([H:14])[N:7]12)[H:8]>>[O:1]1[C:2]([H:8])=[C:3]([H:9])[N:7]2[C:4]([H:10])([H:12])[C:5]1([H:11])[C:6]2([H:13])[H:14]"
O        1.18303929       0.39590365       1.32376611
C        1.22898542       1.18009810       0.32764800
C        0.27774687       1.27602900      -0.66700727
C        0.02179557      -0.76939380      -0.87165446
C       -0.10078658      -1.17870421       0.47336381
C       -1.23632663      -0.16855702       0.61911502
N       -0.86285758       0.35677781      -0.74765799
H        2.10651731       1.83590053       0.21022604
H        0.39244057       1.93781117      -1.51274208
H        0.66306300      -1.02121127      -1.70410955
H        0.37474014      -1.94254190       1.07003587
H       -0.69303032      -1.84408486      -0.55995350
H       -1.11559633       0.54039300       1.42702947
H       -2.23973068      -0.59842019       0.61194053
14
Frame=1 idx=006631 GeodesicLength=0.0498172979772607 rxn_smarts="[O:1]=[C:2]([C@@:3]1([H:9])[C@@:4]2([H:10])[C:5]([H:11])([H:12])[C:6]([H:13])([H:14])[N:7]12)[H:8]>>[O:1]1[C:2]([H:8])=[C:3]([H:9])[N:7]2[C:4]([H:10])([H:12])[C:5]1([H:11])[C:6]2([H:13])[H:14]"
O        1.18445995       0.38672923       1.32112294
C        1.22717199       1.18119941       0.33223160
C        0.28053867       1.26564706      -0.66966916
C        0.01785113      -0.76271143      -0.87733451
C       -0.09716189      -1.17107340       0.47454706
C       -1.23819529      -0.16677273       0.61991162
N       -0.87152943       0.36252634      -0.74634901
H        2.10998973       1.82872893       0.21268642
H        0.39651697       1.93107604      -1.51253496
H        0.65877756      -1.01347581      -1.71038009
H        0.38090484      -1.92999241       1.07533687
H       -0.68638782      -1.85130728      -0.55863420
H       -1.12487392       0.54374214       1.42796828
H       -2.23806249      -0.60431608       0.61109714
14
Frame=2 idx=006631 GeodesicLength=0.09961229573517189 rxn_smarts="[O:1]=[C:2]([C@@:3]1([H:9])[C@@:4]2([H:10])[C:5]([H:11])([H:12])[C:6]([H:13])([H:14])[N:7]12)[H:8]>>[O:1]1[C:2]([H:8])=[C:3]([H:9])[N:7]2[C:4]([H:10])([H:12])[C:5]1([H:11])[C:6]2([H:13])[H:14]"
O        1.18641823       0.37726414       1.31798972
C        1.22583142       1.18180569       0.33630289
C        0.28354594       1.25507203      -0.67244068
C        0.01372471      -0.75634518      -0.88308002
C       -0.09368597      -1.16365717       0.47568713
C       -1.23983038      -0.16483644       0.62074680
N       -0.87988086       0.36831225      -0.74499591
H        2.11221726       1.82364134       0.21646439
H        0.40078135       1.92407537      -1.51248107
H        0.65420380      -1.00625696      -1.71673645
H        0.38654218      -1.91788772       1.08053390
H       -0.67997038      -1.85861779      -0.55728187
H       -1.13364459       0.54712263       1.42894755
H       -2.23625271      -0.60969217       0.61034361
14
Frame=3 idx=006631 GeodesicLength=0.14939816765712355 rxn_smarts="[O:1]=[C:2]([C@@:3]1([H:9])[C@@:4]2([H:10])[C:5]([H:11])([H:12])[C:6]([H:13])([H:14])[N:7]12)[H:8]>>[O:1]1[C:2]([H:8])=[C:3]([H:9])[N:7]2[C:4]([H:10])([H:12])[C:5]1([H:11])[C:6]2([H:13])[H:14]"
O        1.18879649       0.36760647       1.31446576
C        1.22482917       1.18203915       0.33997979
C        0.28667544       1.24438248      -0.67525972
C        0.00946075      -0.75022468      -0.88886264
C       -0.09033299      -1.15641603       0.47680178
C       -1.24128380      -0.16278241       0.62160930
N       -0.88794502       0.37415053      -0.74358721
H        2.11352700       1.82011960       0.22117996
H        0.40517439       1.91687086      -1.51252829
H        0.64941864      -0.99943000      -1.72314200
H        0.39172438      -1.90615766       1.08565627
H       -0.67367367      -1.86600666      -0.55590959
H       -1.14204085       0.55050159       1.42997250
H       -2.23432994      -0.61465323       0.60962409
14
Frame=4 idx=006631 GeodesicLength=0.1991806710502957 rxn_smarts="[O:1]=[C:2]([C@@:3]1([H:9])[C@@:4]2([H:10])[C:5]([H:11])([H:12])[C:6]([H:13])([H:14])[N:7]12)[H:8]>>[O:1]1[C:2]([H:8])=[C:3]([H:9])[N:7]2[C:4]([H:10])([H:12])[C:5]1([H:11])[C:6]2([H:13])[H:14]"
O        1.19135919       0.35798049       1.31073521
C        1.22393419       1.18214132       0.34345564
C        0.28974565       1.23373734      -0.67799982
C        0.00515896      -0.74421921      -0.89462349
C       -0.08705885      -1.14926804       0.47793267
C       -1.24265549      -0.16067813       0.62247090
N       -0.89578391       0.38005096      -0.74211216
H        2.11455468       1.81705443       0.22605096
H        0.40949315       1.90965905      -1.51252432
H        0.64464525      -0.99275690      -1.72947547
H        0.39655111      -1.89467337       1.09076708
H       -0.66728190      -1.87344501      -0.55454121
H       -1.15032151       0.55381196       1.43103800
H       -2.23234052      -0.61939491       0.60882601
14
Frame=5 idx=006631 GeodesicLength=0.2489644216569475 rxn_smarts="[O:1]=[C:2]([C@@:3]1([H:9])[C@@:4]2([H:10])[C:5]([H:11])([H:12])[C:6]([H:13])([H:14])[N:7]12)[H:8]>>[O:1]1[C:2]([H:8])=[C:3]([H:9])[N:7]2[C:4]([H:10])([H:12])[C:5]1([H:11])[C:6]2([H:13])[H:14]"
O        1.19411267       0.34836820       1.30679521
C        1.22315733       1.18209421       0.34672613
C        0.29276179       1.22313192      -0.68066927
C        0.00080895      -0.73832851      -0.90036785
C       -0.08386321      -1.14221493       0.47907667
C       -1.24394433      -0.15852099       0.62333560
N       -0.90340375       0.38601790      -0.74056924
H        2.11527269       1.81449793       0.23112142
H        0.41377022       1.90241351      -1.51249193
H        0.63985995      -0.98623627      -1.73575307
H        0.40103639      -1.88342860       1.09586772
H       -0.66080189      -1.88093614      -0.55317643
H       -1.15848135       0.55705923       1.43214645
H       -2.23028548      -0.62391747       0.60795861
14
Frame=6 idx=006631 GeodesicLength=0.2987557769048741 rxn_smarts="[O:1]=[C:2]([C@@:3]1([H:9])[C@@:4]2([H:10])[C:5]([H:11])([H:12])[C:6]([H:13])([H:14])[N:7]12)[H:8]>>[O:1]1[C:2]([H:8])=[C:3]([H:9])[N:7]2[C:4]([H:10])([H:12])[C:5]1([H:11])[C:6]2([H:13])[H:14]"
O        1.19698112       0.33883685       1.30270740
C        1.22243311       1.18196887       0.34985253
C        0.29567120       1.21261604      -0.68323062
C       -0.00356361      -0.73250850      -0.90607936
C       -0.08072991      -1.13522826       0.48024681
C       -1.24518287      -0.15633300       0.62419728
N       -0.91082951       0.39205752      -0.73895236
H        2.11587098       1.81211696       0.23616993
H        0.41796779       1.89517504      -1.51239999
H        0.63510186      -0.97978994      -1.74195841
H        0.40522387      -1.87237159       1.10098236
H       -0.65416027      -1.88847232      -0.55182032
H       -1.16660671       0.56022356       1.43329632
H       -2.22817704      -0.62829123       0.60698844
14
Frame=7 idx=006631 GeodesicLength=0.3485595756076226 rxn_smarts="[O:1]=[C:2]([C@@:3]1([H:9])[C@@:4]2([H:10])[C:5]([H:11])([H:12])[C:6]([H:13])([H:14])[N:7]12)[H:8]>>[O:1]1[C:2]([H:8])=[C:3]([H:9])[N:7]2[C:4]([H:10])([H:12])[C:5]1([H:11])[C:6]2([H:13])[H:14]"
O        1.19996074       0.32938152       1.29847722
C        1.22176178       1.18176400       0.35284094
C        0.29847367       1.20219141      -0.68568624
C       -0.00796311      -0.72675356      -0.91175949
C       -0.07765697      -1.12830557       0.48144326
C       -1.24637467      -0.15411545       0.62505848
N       -0.91806931       0.39817319      -0.73725944
H        2.11635451       1.80990690       0.24120451
H        0.42210323       1.88793049      -1.51226160
H        0.63035203      -0.97341023      -1.74810508
H        0.40912977      -1.86148948       1.10611616
H       -0.64734796      -1.89605586      -0.55047333
H       -1.17470613       0.56330692       1.43448803
H       -2.22601759      -0.63252428       0.60591659
14
Frame=8 idx=006631 GeodesicLength=0.39837998955641063 rxn_smarts="[O:1]=[C:2]([C@@:3]1([H:9])[C@@:4]2([H:10])[C:5]([H:11])([H:12])[C:6]([H:13])([H:14])[N:7]12)[H:8]>>[O:1]1[C:2]([H:8])=[C:3]([H:9])[N:7]2[C:4]([H:10])([H:12])[C:5]1([H:11])[C:6]2([H:13])[H:14]"
O        1.20302037       0.32002323       1.29412940
C        1.22112347       1.18149973       0.35571216
C        0.30114936       1.19187564      -0.68802411
C       -0.01238339      -0.72104569      -0.91740249
C       -0.07463848      -1.12143520       0.48267163
C       -1.24753289      -0.15187665       0.62591731
N       -0.92513727       0.40436723      -0.73548851
H        2.11679383       1.80774135       0.24614804
H        0.42616504       1.88069303      -1.51206798
H        0.62561985      -0.96706181      -1.75418918
H        0.41277653      -1.85075691       1.11128085
H       -0.64033036      -1.90368522      -0.54913618
H       -1.18281432       0.56630483       1.43571686
H       -2.22381173      -0.63664357       0.60473223
14
Frame=9 idx=006631 GeodesicLength=0.44821281522637607 rxn_smarts="[O:1]=[C:2]([C@@:3]1([H:9])[C@@:4]2([H:10])[C:5]([H:11])([H:12])[C:6]([H:13])([H:14])[N:7]12)[H:8]>>[O:1]1[C:2]([H:8])=[C:3]([H:9])[N:7]2[C:4]([H:10])([H:12])[C:5]1([H:11])[C:6]2([H:13])[H:14]"
O        1.20617140       0.31074347       1.28965320
C        1.22053162       1.18116166       0.35845659
C        0.30370579       1.18166151      -0.69025656
C       -0.01682883      -0.71538903      -0.92301169
C       -0.07167722      -1.11462184       0.48393034
C       -1.24865469      -0.14961204       0.62677579
N       -0.93203600       0.41063750      -0.73364235
H        2.11716161       1.80567199       0.25103436
H        0.43015913       1.87346146      -1.51182766
H        0.62090658      -0.96075480      -1.76020854
H        0.41615830      -1.84018092       1.11647691
H       -0.63311755      -1.91136024      -0.54781043
H       -1.19091924       0.56922045       1.43698506
H       -2.22156090      -0.64063918       0.60344497
14
Frame=10 idx=006631 GeodesicLength=0.49806291529972196 rxn_smarts="[O:1]=[C:2]([C@@:3]1([H:9])[C@@:4]2([H:10])[C:5]([H:11])([H:12])[C:6]([H:13])([H:14])[N:7]12)[H:8]>>[O:1]1[C:2]([H:8])=[C:3]([H:9])[N:7]2[C:4]([H:10])([H:12])[C:5]1([H:11])[C:6]2([H:13])[H:14]"
O        1.20940442       0.30154416       1.28505856
C        1.21998322       1.18075404       0.36108328
C        0.30613987       1.17155299      -0.69238303
C       -0.02130239      -0.70977635      -0.92858755
C       -0.06877094      -1.10786097       0.48522083
C       -1.24974595      -0.14732468       0.62763618
N       -0.93877458       0.41698664      -0.73171832
H        2.11747774       1.80367462       0.25585869
H        0.43409909       1.86622443      -1.51155165
H        0.61619598      -0.95447751      -1.76617585
H        0.41929285      -1.82974646       1.12170787
H       -0.62569481      -1.91908220      -0.54649650
H       -1.19903599       0.57205391       1.43829273
H       -2.21926854      -0.64452262       0.60205475
14
Frame=11 idx=006631 GeodesicLength=0.5479345623142639 rxn_smarts="[O:1]=[C:2]([C@@:3]1([H:9])[C@@:4]2([H:10])[C:5]([H:11])([H:12])[C:6]([H:13])([H:14])[N:7]12)[H:8]>>[O:1]1[C:2]([H:8])=[C:3]([H:9])[N:7]2[C:4]([H:10])([H:12])[C:5]1([H:11])[C:6]2([H:13])[H:14]"
O        1.21271489       0.29241975       1.28034910
C        1.21947685       1.18027545       0.36359737
C        0.30845133       1.16154974      -0.69440583
C       -0.02580782      -0.70420116      -0.93412952
C       -0.06591703      -1.10114881       0.48654414
C       -1.25080734      -0.14501493       0.62849950
N       -0.94535838       0.42341822      -0.72971433
H        2.11773795       1.80173785       0.26062679
H        0.43800041       1.85896907      -1.51125090
H        0.61146933      -0.94822038      -1.77210080
H        0.42219221      -1.81944269       1.12697725
H       -0.61804910      -1.92684910      -0.54519263
H       -1.20717124       0.57480564       1.43963730
H       -2.21693205      -0.64829865       0.60056257
14
Frame=12 idx=006631 GeodesicLength=0.5978231885572735 rxn_smarts="[O:1]=[C:2]([C@@:3]1([H:9])[C@@:4]2([H:10])[C:5]([H:11])([H:12])[C:6]([H:13])([H:14])[N:7]12)[H:8]>>[O:1]1[C:2]([H:8])=[C:3]([H:9])[N:7]2[C:4]([H:10])([H:12])[C:5]1([H:11])[C:6]2([H:13])[H:14]"
O        1.21609406       0.28337262       1.27552987
C        1.21901268       1.17972861       0.36600079
C        0.31063516       1.15165544      -0.69632686
C       -0.03034219      -0.69866092      -0.93963675
C       -0.06311697      -1.09448452       0.48790271
C       -1.25184553      -0.14268411       0.62936532
N       -0.95179506       0.42992817      -0.72763325
H        2.11797381       1.79982877       0.26531251
H        0.44184337       1.85171620      -1.51091622
H        0.60674690      -0.94197842      -1.77797169
H        0.42485879      -1.80926519       1.13228978
H       -0.61017193      -1.93466133      -0.54390170
H       -1.21533409       0.57747590       1.44101775
H       -2.21455903      -0.65197122       0.59896773
14
Frame=13 idx=006631 GeodesicLength=0.6477247411615507 rxn_smarts="[O:1]=[C:2]([C@@:3]1([H:9])[C@@:4]2([H:10])[C:5]([H:11])([H:12])[C:6]([H:13])([H:14])[N:7]12)[H:8]>>[O:1]1[C:2]([H:8])=[C:3]([H:9])[N:7]2[C:4]([H:10])([H:12])[C:5]1([H:11])[C:6]2([H:13])[H:14]"
O        1.21953698       0.27439921       1.27060228
C        1.21859328       1.17911057       0.36829245
C        0.31268995       1.14186967      -0.69815098
C       -0.03490478      -0.69315372      -0.94510891
C       -0.06037188      -1.08786781       0.48929827
C       -1.25286255      -0.14033177       0.63023351
N       -0.95808937       0.43651363      -0.72547761
H        2.11819271       1.79793234       0.26990696
H        0.44561607       1.84447863      -1.51054351
H        0.60204213      -0.93574999      -1.78377826
H        0.42729576      -1.79921206       1.13764664
H       -0.60205936      -1.94251621      -0.54262468
H       -1.22352625       0.58006595       1.44243170
H       -2.21215270      -0.65553844       0.59727216
14
Frame=14 idx=006631 GeodesicLength=0.6976350102100699 rxn_smarts="[O:1]=[C:2]([C@@:3]1([H:9])[C@@:4]2([H:10])[C:5]([H:11])([H:12])[C:6]([H:13])([H:14])[N:7]12)[H:8]>>[O:1]1[C:2]([H:8])=[C:3]([H:9])[N:7]2[C:4]([H:10])([H:12])[C:5]1([H:11])[C:6]2([H:13])[H:14]"
O        1.22303849       0.26549594       1.26556773
C        1.21822042       1.17841921       0.37047194
C        0.31461413       1.13219208      -0.69988263
C       -0.03949478      -0.68767777      -0.95054563
C       -0.05768299      -1.08129846       0.49073250
C       -1.25386079      -0.13795746       0.63110383
N       -0.96424622       0.44317169      -0.72324987
H        2.11840375       1.79603422       0.27440118
H        0.44930726       1.83726836      -1.51012866
H        0.59736756      -0.92953409      -1.78951081
H        0.42950729      -1.78928095       1.14304855
H       -0.59370767      -1.95041107      -0.54136250
H       -1.23174990       0.58257693       1.44387679
H       -2.20971656      -0.65899864       0.59547759
14
Frame=15 idx=006631 GeodesicLength=0.7475498795490828 rxn_smarts="[O:1]=[C:2]([C@@:3]1([H:9])[C@@:4]2([H:10])[C:5]([H:11])([H:12])[C:6]([H:13])([H:14])[N:7]12)[H:8]>>[O:1]1[C:2]([H:8])=[C:3]([H:9])[N:7]2[C:4]([H:10])([H:12])[C:5]1([H:11])[C:6]2([H:13])[H:14]"
O        1.22659425       0.25665841       1.26042703
C        1.21789631       1.17765200       0.37253861
C        0.31640697       1.12262166      -0.70152673
C       -0.04411177      -0.68223189      -0.95594705
C       -0.05505174      -1.07477664       0.49220670
C       -1.25484229      -0.13556047       0.63197629
N       -0.97027024       0.44989931      -0.72095248
H        2.11861352       1.79412489       0.27878967
H        0.45290716       1.83009607      -1.50966838
H        0.59273508      -0.92333122      -1.79516041
H        0.43149811      -1.77946980       1.14849521
H       -0.58511495      -1.95834327      -0.54011605
H       -1.24000617       0.58501043       1.44535091
H       -2.20725424      -0.66234948       0.59358668
14
Frame=16 idx=006631 GeodesicLength=0.7974653358705651 rxn_smarts="[O:1]=[C:2]([C@@:3]1([H:9])[C@@:4]2([H:10])[C:5]([H:11])([H:12])[C:6]([H:13])([H:14])[N:7]12)[H:8]>>[O:1]1[C:2]([H:8])=[C:3]([H:9])[N:7]2[C:4]([H:10])([H:12])[C:5]1([H:11])[C:6]2([H:13])[H:14]"
O        1.23020038       0.24788165       1.25518059
C        1.21762322       1.17680618       0.37449177
C        0.31806828       1.11315684      -0.70308840
C       -0.04875562      -0.67681525      -0.96131365
C       -0.05247963      -1.06830271       0.49372193
C       -1.25580879      -0.13313989       0.63285101
N       -0.97616578       0.45669351      -0.71858785
H        2.11882649       1.79219807       0.28306965
H        0.45640751       1.82297087      -1.50916020
H        0.58815549      -0.91714280      -1.80071883
H        0.43327379      -1.76977659       1.15398544
H       -0.57628067      -1.96630998      -0.53888612
H       -1.24829539       0.58736824       1.44685202
H       -2.20476928      -0.66558814       0.59160265
