16
Frame=0 idx=005428 GeodesicLength=0.0 rxn_smarts="[C:1]([C:2]([C:3]([O:4][H:13])([H:11])[H:12])([C:5]([O:6][H:16])([H:14])[H:15])[H:10])([H:7])([H:8])[H:9]>>[C:1]([C@:2]([C:3](=[O:4])[H:11])([C:5]([O:6][H:16])([H:14])[H:15])[H:10])([H:7])([H:8])[H:9].[H:12][H:13]"
C       -1.50198665      -0.78801661       0.18547617
C       -0.43475721       0.23620473      -0.17388107
C        0.63083021      -0.33941054      -1.08244878
O        1.77982253       0.31404894      -1.25770892
C        0.19160509       0.89436871       1.05487161
O        0.96028698       2.02073643       0.74087773
H       -1.87907027      -1.30580412      -0.69909689
H       -1.11106108      -1.54098530       0.87584025
H       -2.34959480      -0.30520807       0.67220735
H       -0.87534984       1.03498117      -0.78500923
H        0.21937063      -0.88036945      -1.95109373
H        0.94817156      -1.50749210      -0.35713343
H        1.67485305      -0.92294138      -0.58709747
H       -0.59964505       1.21586350       1.73622468
H        0.78497326       0.13477338       1.59472225
H        1.56155162       1.73925071       0.03324945
16
Frame=1 idx=005428 GeodesicLength=0.10604477339362596 rxn_smarts="[C:1]([C:2]([C:3]([O:4][H:13])([H:11])[H:12])([C:5]([O:6][H:16])([H:14])[H:15])[H:10])([H:7])([H:8])[H:9]>>[C:1]([C@:2]([C:3](=[O:4])[H:11])([C:5]([O:6][H:16])([H:14])[H:15])[H:10])([H:7])([H:8])[H:9].[H:12][H:13]"
C       -1.50762529      -0.78479043       0.18548283
C       -0.43886116       0.23782029      -0.17500144
C        0.62430226      -0.34364902      -1.08238884
O        1.76881631       0.31314996      -1.26620012
C        0.18821962       0.89428106       1.05407030
O        0.95935468       2.02004202       0.74196717
H       -1.88892498      -1.29957682      -0.69900424
H       -1.11717962      -1.54013780       0.87339941
H       -2.35276257      -0.30082297       0.67548810
H       -0.88073747       1.03702873      -0.78461185
H        0.20828830      -0.87872124      -1.95272850
H        0.98249019      -1.51868594      -0.34933088
H        1.71092617      -0.92506356      -0.59185873
H       -0.60276769       1.21833285       1.73456152
H        0.77915050       0.13380857       1.59472296
H        1.56731074       1.73698430       0.04143230
16
Frame=2 idx=005428 GeodesicLength=0.2117619874194726 rxn_smarts="[C:1]([C:2]([C:3]([O:4][H:13])([H:11])[H:12])([C:5]([O:6][H:16])([H:14])[H:15])[H:10])([H:7])([H:8])[H:9]>>[C:1]([C@:2]([C:3](=[O:4])[H:11])([C:5]([O:6][H:16])([H:14])[H:15])[H:10])([H:7])([H:8])[H:9].[H:12][H:13]"
C       -1.51359221      -0.78143649       0.18553020
C       -0.44322575       0.23947165      -0.17614164
C        0.61747293      -0.34818426      -1.08220182
O        1.75767461       0.31162270      -1.27435462
C        0.18473563       0.89409914       1.05324001
O        0.95852255       2.01910609       0.74298893
H       -1.89925091      -1.29308415      -0.69885920
H       -1.12357162      -1.53929052       0.87081426
H       -2.35612921      -0.29627968       0.67895925
H       -0.88621423       1.03914063      -0.78429805
H        0.19688707      -0.87717228      -1.95428571
H        1.01813901      -1.52933883      -0.34158559
H        1.74830251      -0.92651845      -0.59690617
H       -0.60589886       1.22083374       1.73290136
H        0.77314755       0.13264694       1.59463226
H        1.57300091       1.73438378       0.04956653
16
Frame=3 idx=005428 GeodesicLength=0.31737133497387043 rxn_smarts="[C:1]([C:2]([C:3]([O:4][H:13])([H:11])[H:12])([C:5]([O:6][H:16])([H:14])[H:15])[H:10])([H:7])([H:8])[H:9]>>[C:1]([C@:2]([C:3](=[O:4])[H:11])([C:5]([O:6][H:16])([H:14])[H:15])[H:10])([H:7])([H:8])[H:9].[H:12][H:13]"
C       -1.51991904      -0.77794292       0.18562181
C       -0.44786764       0.24115259      -0.17730295
C        0.61029392      -0.35302649      -1.08190482
O        1.74642278       0.30937228      -1.28212078
C        0.18115321       0.89380481       1.05237686
O        0.95779583       2.01790360       0.74393743
H       -1.91008827      -1.28630766      -0.69865439
H       -1.13028269      -1.53843508       0.86808886
H       -2.35971568      -0.29155389       0.68262553
H       -0.89179070       1.04132241      -0.78406069
H        0.18512501      -0.87572400      -1.95578435
H        1.05521068      -1.53937928      -0.33394099
H        1.78712434      -0.92723138      -0.60218343
H       -0.60902651       1.22335064       1.73125102
H        0.76696512       0.13126319       1.59443295
H        1.57859964       1.73143118       0.05761794
16
Frame=4 idx=005428 GeodesicLength=0.4230206755789746 rxn_smarts="[C:1]([C:2]([C:3]([O:4][H:13])([H:11])[H:12])([C:5]([O:6][H:16])([H:14])[H:15])[H:10])([H:7])([H:8])[H:9]>>[C:1]([C@:2]([C:3](=[O:4])[H:11])([C:5]([O:6][H:16])([H:14])[H:15])[H:10])([H:7])([H:8])[H:9].[H:12][H:13]"
C       -1.52664197      -0.77429633       0.18576213
C       -0.45280252       0.24285229      -0.17848540
C        0.60271907      -0.35819905      -1.08150915
O        1.73508485       0.30630210      -1.28945439
C        0.17747309       0.89337571       1.05147766
O        0.95718003       2.01640599       0.74480795
H       -1.92148101      -1.27922869      -0.69838089
H       -1.13737017      -1.53755999       0.86523296
H       -2.36354698      -0.28661413       0.68648702
H       -0.89747150       1.04357473      -0.78389525
H        0.17295723      -0.87437885      -1.95724252
H        1.09380405      -1.54872383      -0.32643917
H        1.82754227      -0.92710720      -0.60764280
H       -0.61213756       1.22586473       1.72961781
H        0.76060408       0.12962822       1.59410900
H        1.58408706       1.72810430       0.06555502
16
Frame=5 idx=005428 GeodesicLength=0.528889601958634 rxn_smarts="[C:1]([C:2]([C:3]([O:4][H:13])([H:11])[H:12])([C:5]([O:6][H:16])([H:14])[H:15])[H:10])([H:7])([H:8])[H:9]>>[C:1]([C@:2]([C:3](=[O:4])[H:11])([C:5]([O:6][H:16])([H:14])[H:15])[H:10])([H:7])([H:8])[H:9].[H:12][H:13]"
C       -1.53379715      -0.77048374       0.18595601
C       -0.45805071       0.24456466      -0.17969111
C        0.59468699      -0.36371402      -1.08103592
O        1.72369864       0.30228832      -1.29629731
C        0.17369498       0.89279140       1.05053702
O        0.95667706       2.01458505       0.74559145
H       -1.93347487      -1.27182853      -0.69802820
H       -1.14488678      -1.53665566       0.86225446
H       -2.36764789      -0.28143333       0.69054934
H       -0.90326814       1.04590514      -0.78379474
H        0.16032996      -0.87313774      -1.95868445
H        1.13401875      -1.55728046      -0.31914133
H        1.86972145      -0.92605072      -0.61320996
H       -0.61521872       1.22835648       1.72801065
H        0.75406653       0.12771268       1.59363937
H        1.58944990       1.72438045       0.07334472
16
Frame=6 idx=005428 GeodesicLength=0.6350204260985592 rxn_smarts="[C:1]([C:2]([C:3]([O:4][H:13])([H:11])[H:12])([C:5]([O:6][H:16])([H:14])[H:15])[H:10])([H:7])([H:8])[H:9]>>[C:1]([C@:2]([C:3](=[O:4])[H:11])([C:5]([O:6][H:16])([H:14])[H:15])[H:10])([H:7])([H:8])[H:9].[H:12][H:13]"
C       -1.54143442      -0.76648700       0.18621122
C       -0.46363166       0.24627167      -0.18091792
C        0.58614622      -0.36961928      -1.08048810
O        1.71229941       0.29719093      -1.30259257
C        0.16981954       0.89202069       1.04955249
O        0.95629224       2.01240217       0.74628064
H       -1.94612861      -1.26408426      -0.69758271
H       -1.15291360      -1.53570531       0.85917254
H       -2.37205366      -0.27596535       0.69481021
H       -0.90917600       1.04830783      -0.78376016
H        0.14718763      -0.87200751      -1.96012838
H        1.17597957      -1.56492899      -0.31211073
H        1.91384201      -0.92389814      -0.61884786
H       -0.61825382       1.23080101       1.72643902
H        0.74735286       0.12547808       1.59300676
H        1.59467228       1.72022347       0.08095556
16
Frame=7 idx=005428 GeodesicLength=0.7414935820369806 rxn_smarts="[C:1]([C:2]([C:3]([O:4][H:13])([H:11])[H:12])([C:5]([O:6][H:16])([H:14])[H:15])[H:10])([H:7])([H:8])[H:9]>>[C:1]([C@:2]([C:3](=[O:4])[H:11])([C:5]([O:6][H:16])([H:14])[H:15])[H:10])([H:7])([H:8])[H:9].[H:12][H:13]"
C       -1.54960159      -0.76228920       0.18653536
C       -0.46956635       0.24795791      -0.18216563
C        0.57703519      -0.37595339      -1.07987585
O        1.70092766       0.29084009      -1.30827041
C        0.16584740       0.89103387       1.04851889
O        0.95602935       2.00981739       0.74686228
H       -1.95949923      -1.25597447      -0.69702992
H       -1.16152671      -1.53469381       0.85600537
H       -2.37679786      -0.27016835       0.69927006
H       -0.91519386       1.05078101      -0.78379124
H        0.13346476      -0.87097283      -1.96160422
H        1.21981293      -1.57155894      -0.30541123
H        1.96008441      -0.92047567      -0.62449835
H       -0.62122615       1.23317415       1.72491141
H        0.74046421       0.12288521       1.59219155
H        1.59974586       1.71559705       0.08835194
16
Frame=8 idx=005428 GeodesicLength=0.8482778774896642 rxn_smarts="[C:1]([C:2]([C:3]([O:4][H:13])([H:11])[H:12])([C:5]([O:6][H:16])([H:14])[H:15])[H:10])([H:7])([H:8])[H:9]>>[C:1]([C@:2]([C:3](=[O:4])[H:11])([C:5]([O:6][H:16])([H:14])[H:15])[H:10])([H:7])([H:8])[H:9].[H:12][H:13]"
C       -1.55835965      -0.75786609       0.18693803
C       -0.47587462       0.24959912      -0.18343065
C        0.56729988      -0.38278480      -1.07919360
O        1.68962029       0.28305614      -1.31326100
C        0.16178019       0.88979100       1.04743456
O        0.95589598       2.00677962       0.74732701
H       -1.97365428      -1.24747163      -0.69635390
H       -1.17083088      -1.53359844       0.85278179
H       -2.38192483      -0.26398019       0.70392143
H       -0.92130525       1.05331301      -0.78389396
H        0.11910572      -0.87004895      -1.96312574
H        1.26566161      -1.57701644      -0.29911999
H        2.00863840      -0.91555135      -0.63014047
H       -0.62411632       1.23544487       1.72343989
H        0.73340023       0.11988331       1.59117548
H        1.60466353       1.71045082       0.09550111
16
Frame=9 idx=005428 GeodesicLength=0.9542407414468715 rxn_smarts="[C:1]([C:2]([C:3]([O:4][H:13])([H:11])[H:12])([C:5]([O:6][H:16])([H:14])[H:15])[H:10])([H:7])([H:8])[H:9]>>[C:1]([C@:2]([C:3](=[O:4])[H:11])([C:5]([O:6][H:16])([H:14])[H:15])[H:10])([H:7])([H:8])[H:9].[H:12][H:13]"
C       -1.56779646      -0.75315101       0.18742254
C       -0.48249532       0.25108093      -0.18467845
C        0.55708618      -0.39040877      -1.07821284
O        1.67819068       0.27390133      -1.31771235
C        0.15764141       0.88819227       1.04633832
O        0.95590896       2.00318897       0.74772390
H       -1.98862339      -1.23853416      -0.69555806
H       -1.18109423      -1.53232337       0.84963069
H       -2.38750861      -0.25719403       0.70862505
H       -0.92731724       1.05575962      -0.78414691
H        0.10422818      -0.86945529      -1.96447860
H        1.31359162      -1.58108331      -0.29338199
H        2.05948499      -0.90859894      -0.63605018
H       -0.62690270       1.23752710       1.72204295
H        0.72616317       0.11637056       1.59001561
H        1.60944276       1.70472811       0.10242033
16
Frame=10 idx=005428 GeodesicLength=1.060388510509588 rxn_smarts="[C:1]([C:2]([C:3]([O:4][H:13])([H:11])[H:12])([C:5]([O:6][H:16])([H:14])[H:15])[H:10])([H:7])([H:8])[H:9]>>[C:1]([C@:2]([C:3](=[O:4])[H:11])([C:5]([O:6][H:16])([H:14])[H:15])[H:10])([H:7])([H:8])[H:9].[H:12][H:13]"
C       -1.57794400      -0.74815386       0.18799985
C       -0.48950789       0.25245054      -0.18593209
C        0.54615206      -0.39871465      -1.07710976
O        1.66688613       0.26295760      -1.32132380
C        0.15341485       0.88624437       1.04519614
O        0.95608922       1.99902585       0.74799439
H       -2.00449630      -1.22914192      -0.69461596
H       -1.19228634      -1.53090569       0.84650205
H       -2.39356502      -0.24986400       0.71347229
H       -0.93335169       1.05821743      -0.78450058
H        0.08863630      -0.86904388      -1.96586632
H        1.36381653      -1.58365705      -0.28817055
H        2.11290673      -0.89955264      -0.64204703
H       -0.62957281       1.23944386       1.72071612
H        0.71873974       0.11233189       1.58864297
H        1.61408250       1.69836214       0.10904228
16
Frame=11 idx=005428 GeodesicLength=1.1667163464711299 rxn_smarts="[C:1]([C:2]([C:3]([O:4][H:13])([H:11])[H:12])([C:5]([O:6][H:16])([H:14])[H:15])[H:10])([H:7])([H:8])[H:9]>>[C:1]([C@:2]([C:3](=[O:4])[H:11])([C:5]([O:6][H:16])([H:14])[H:15])[H:10])([H:7])([H:8])[H:9].[H:12][H:13]"
C       -1.58885929      -0.74284019       0.18867260
C       -0.49692010       0.25367906      -0.18718882
C        0.53444942      -0.40777826      -1.07586308
O        1.65571354       0.25006909      -1.32404267
C        0.14910462       0.88390064       1.04400987
O        0.95645494       1.99422436       0.74813699
H       -2.02132957      -1.21925398      -0.69352233
H       -1.20452544      -1.52931102       0.84342790
H       -2.40013456      -0.24190980       0.71843681
H       -0.93937362       1.06066828      -0.78496532
H        0.07229788      -0.86885711      -1.96727788
H        1.41649513      -1.58460004      -0.28350152
H        2.16902209      -0.88814295      -0.64818986
H       -0.63210750       1.24116165       1.71946636
H        0.71112039       0.10770828       1.58705149
H        1.61859208       1.69128198       0.11534945
16
Frame=12 idx=005428 GeodesicLength=1.2731052033086416 rxn_smarts="[C:1]([C:2]([C:3]([O:4][H:13])([H:11])[H:12])([C:5]([O:6][H:16])([H:14])[H:15])[H:10])([H:7])([H:8])[H:9]>>[C:1]([C@:2]([C:3](=[O:4])[H:11])([C:5]([O:6][H:16])([H:14])[H:15])[H:10])([H:7])([H:8])[H:9].[H:12][H:13]"
C       -1.60060675      -0.73717168       0.18944375
C       -0.50473071       0.25472219      -0.18844090
C        0.52194410      -0.41772142      -1.07442445
O        1.64468703       0.23506479      -1.32580255
C        0.14471750       0.88110487       1.04278616
O        0.95703308       1.98870673       0.74815547
H       -2.03918121      -1.20882908      -0.69227174
H       -1.21795480      -1.52749711       0.84045557
H       -2.40726461      -0.23323149       0.72347498
H       -0.94532179       1.06307507      -0.78556593
H        0.05519279      -0.86894667      -1.96868952
H        1.47178759      -1.58373522      -0.27939385
H        2.22790041      -0.87402470      -0.65460316
H       -0.63448668       1.24264576       1.71829708
H        0.70329334       0.10243454       1.58524647
H        1.62299069       1.68340343       0.12133262
16
Frame=13 idx=005428 GeodesicLength=1.379476350724279 rxn_smarts="[C:1]([C:2]([C:3]([O:4][H:13])([H:11])[H:12])([C:5]([O:6][H:16])([H:14])[H:15])[H:10])([H:7])([H:8])[H:9]>>[C:1]([C@:2]([C:3](=[O:4])[H:11])([C:5]([O:6][H:16])([H:14])[H:15])[H:10])([H:7])([H:8])[H:9].[H:12][H:13]"
C       -1.61323115      -0.73111129       0.19031052
C       -0.51292997       0.25554210      -0.18968339
C        0.50862238      -0.42862491      -1.07274540
O        1.63380706       0.21777367      -1.32653619
C        0.14025764       0.87780772       1.04153372
O        0.95784570       1.98239983       0.74805671
H       -2.05807715      -1.19783378      -0.69086844
H       -1.23269844      -1.52541502       0.83762796
H       -2.41498851      -0.22373622       0.72853422
H       -0.95113549       1.06540570      -0.78631655
H        0.03733499      -0.86934689      -1.97006661
H        1.52983446      -1.58093133      -0.27579056
H        2.28951922      -0.85689240      -0.66149450
H       -0.63669827       1.24386607       1.71721100
H        0.69524076       0.09645243       1.58323950
H        1.62729676       1.67464431       0.12698801
16
Frame=14 idx=005428 GeodesicLength=1.485818679202065 rxn_smarts="[C:1]([C:2]([C:3]([O:4][H:13])([H:11])[H:12])([C:5]([O:6][H:16])([H:14])[H:15])[H:10])([H:7])([H:8])[H:9]>>[C:1]([C@:2]([C:3](=[O:4])[H:11])([C:5]([O:6][H:16])([H:14])[H:15])[H:10])([H:7])([H:8])[H:9].[H:12][H:13]"
C       -1.62681831      -0.72460317       0.19127148
C       -0.52151384       0.25608326      -0.19090542
C        0.49443788      -0.44065516      -1.07075223
O        1.62311851       0.19793162      -1.32610203
C        0.13573120       0.87393527       1.04026626
O        0.95893868       1.97519552       0.74785142
H       -2.07809341      -1.18619992      -0.68931842
H       -1.24894328      -1.52301369       0.83500177
H       -2.42337085      -0.21328792       0.73355685
H       -0.95671981       1.06761217      -0.78725879
H        0.01871537      -0.87015177      -1.97136977
H        1.59086671      -1.57593145      -0.27266547
H        2.35389217      -0.83624740      -0.66914746
H       -0.63872183       1.24478361       1.71621015
H        0.68693640       0.08967199       1.58104716
H        1.63154440       1.66487704       0.13231451
16
Frame=15 idx=005428 GeodesicLength=1.592039352255981 rxn_smarts="[C:1]([C:2]([C:3]([O:4][H:13])([H:11])[H:12])([C:5]([O:6][H:16])([H:14])[H:15])[H:10])([H:7])([H:8])[H:9]>>[C:1]([C@:2]([C:3](=[O:4])[H:11])([C:5]([O:6][H:16])([H:14])[H:15])[H:10])([H:7])([H:8])[H:9].[H:12][H:13]"
C       -1.64142268      -0.71759186       0.19231504
C       -0.53045371       0.25628991      -0.19209458
C        0.47939679      -0.45395932      -1.06834614
O        1.61264034       0.17534044      -1.32438557
C        0.13114155       0.86942316       1.03900692
O        0.96035170       1.96699320       0.74756826
H       -2.09924998      -1.17387540      -0.68764264
H       -1.26685614      -1.52022553       0.83263655
H       -2.43245565      -0.20175197       0.73845414
H       -0.96195991       1.06963572      -0.78843203
H       -0.00060662      -0.87146347      -1.97252154
H        1.65506193      -1.56851751      -0.26990890
H        2.42084461      -0.81166496      -0.67799623
H       -0.64055142       1.24536827       1.71529270
H        0.67834352       0.08201950       1.57870947
H        1.63577568       1.65397983       0.13734454
16
Frame=16 idx=005428 GeodesicLength=1.698038204654103 rxn_smarts="[C:1]([C:2]([C:3]([O:4][H:13])([H:11])[H:12])([C:5]([O:6][H:16])([H:14])[H:15])[H:10])([H:7])([H:8])[H:9]>>[C:1]([C@:2]([C:3](=[O:4])[H:11])([C:5]([O:6][H:16])([H:14])[H:15])[H:10])([H:7])([H:8])[H:9].[H:12][H:13]"
C       -1.65710013      -0.71001596       0.19341862
C       -0.53970373       0.25609562      -0.19323306
C        0.46352595      -0.46871853      -1.06538973
O        1.60241115       0.14977807      -1.32123107
C        0.12649065       0.86420228       1.03779242
O        0.96214332       1.95768464       0.74725685
H       -2.12155215      -1.16080276      -0.68588148
H       -1.28662539      -1.51697622       0.83059873
H       -2.44229631      -0.18897376       0.74310269
H       -0.96670485       1.07140589      -0.78989074
H       -0.02053365      -0.87343210      -1.97340745
H        1.72261305      -1.55842956      -0.26733955
H        2.49005161      -0.78264410      -0.68869223
H       -0.64219427       1.24559725       1.71445027
H        0.66940886       0.07341502       1.57629803
H        1.64006589       1.64181422       0.14214771
