13
Frame=0 idx=006164 GeodesicLength=0.0 rxn_smarts="[C:1]([C@@:2]1([H:10])[C:3]([H:11])([H:12])[C@:4]1([C:5]#[N:6])[H:13])([H:7])([H:8])[H:9]>>[C:1]1([H:7])([H:9])[C:2]([H:8])([H:10])[C:3]([H:11])([H:12])[C:4]([H:13])=[C:5]=[N:6]1"
C        1.13230520       0.90519149      -0.07927102
C        0.72149871      -0.45650811      -0.08696942
C       -0.48139956      -0.89948760       0.70791507
C       -1.48430937      -0.45385296      -0.31659709
C       -1.39995939       0.88635961      -0.57103232
N       -1.00631742       1.99169098      -0.61120965
H        1.73759271       1.30433960      -0.88155299
H        1.79885016      -0.23627410       0.48301988
H        0.97788974       1.50619771       0.80542648
H        0.96679147      -1.03932923      -0.96800481
H       -0.54604472      -0.38560764       1.66901073
H       -0.50330428      -1.97447557       0.87072767
H       -1.91359328      -1.14824421      -1.02146251
13
Frame=1 idx=006164 GeodesicLength=0.05714230321294716 rxn_smarts="[C:1]([C@@:2]1([H:10])[C:3]([H:11])([H:12])[C@:4]1([C:5]#[N:6])[H:13])([H:7])([H:8])[H:9]>>[C:1]1([H:7])([H:9])[C:2]([H:8])([H:10])[C:3]([H:11])([H:12])[C:4]([H:13])=[C:5]=[N:6]1"
C        1.12496101       0.90890540      -0.08783605
C        0.71518153      -0.45809063      -0.08405656
C       -0.48560900      -0.90489602       0.71160177
C       -1.46886520      -0.45316580      -0.32961702
C       -1.40166491       0.89169144      -0.56255046
N       -0.99932620       1.99518576      -0.58431511
H        1.71323985       1.29681264      -0.90880737
H        1.79715002      -0.22127414       0.49453984
H        0.99719399       1.51812300       0.79570480
H        0.98062852      -1.05609969      -0.94911359
H       -0.55624048      -0.39396123       1.67325316
H       -0.51189246      -1.98089790       0.86636338
H       -1.90475665      -1.14233282      -1.03516679
13
Frame=2 idx=006164 GeodesicLength=0.11425288366629911 rxn_smarts="[C:1]([C@@:2]1([H:10])[C:3]([H:11])([H:12])[C@:4]1([C:5]#[N:6])[H:13])([H:7])([H:8])[H:9]>>[C:1]1([H:7])([H:9])[C:2]([H:8])([H:10])[C:3]([H:11])([H:12])[C:4]([H:13])=[C:5]=[N:6]1"
C        1.11778006       0.91254564      -0.09619197
C        0.70901620      -0.45968376      -0.08113072
C       -0.48984249      -0.91044261       0.71497905
C       -1.45337509      -0.45210634      -0.34224167
C       -1.40326611       0.89681531      -0.55396311
N       -0.99215330       1.99806584      -0.55813770
H        1.68867284       1.28895186      -0.93531791
H        1.79543354      -0.20600618       0.50617862
H        1.01656938       1.53027501       0.78508744
H        0.99442958      -1.07203636      -0.92983925
H       -0.56642244      -0.40290385       1.67738522
H       -0.52055492      -1.98742038       0.86135228
H       -1.89628725      -1.13605417      -1.04816027
13
Frame=3 idx=006164 GeodesicLength=0.1713214407117017 rxn_smarts="[C:1]([C@@:2]1([H:10])[C:3]([H:11])([H:12])[C@:4]1([C:5]#[N:6])[H:13])([H:7])([H:8])[H:9]>>[C:1]1([H:7])([H:9])[C:2]([H:8])([H:10])[C:3]([H:11])([H:12])[C:4]([H:13])=[C:5]=[N:6]1"
C        1.11078002       0.91610955      -0.10431140
C        0.70300096      -0.46130010      -0.07820144
C       -0.49409479      -0.91612442       0.71805937
C       -1.43787352      -0.45072315      -0.35444916
C       -1.40472593       0.90171112      -0.54535730
N       -0.98479153       2.00036184      -0.53270749
H        1.66394892       1.28082424      -0.96100194
H        1.79371733      -0.19050419       0.51791091
H        1.03599447       1.54262737       0.77360566
H        1.00812630      -1.08711256      -0.91028274
H       -0.57659728      -0.41239465       1.68139964
H       -0.52926731      -1.99403235       0.85573659
H       -1.88821765      -1.12944270      -1.06040072
13
Frame=4 idx=006164 GeodesicLength=0.2283894998316551 rxn_smarts="[C:1]([C@@:2]1([H:10])[C:3]([H:11])([H:12])[C@:4]1([C:5]#[N:6])[H:13])([H:7])([H:8])[H:9]>>[C:1]1([H:7])([H:9])[C:2]([H:8])([H:10])[C:3]([H:11])([H:12])[C:4]([H:13])=[C:5]=[N:6]1"
C        1.10397351       0.91960900      -0.11224107
C        0.69713882      -0.46294579      -0.07524655
C       -0.49838523      -0.92195763       0.72085079
C       -1.42239478      -0.44901882      -0.36625247
C       -1.40607550       0.90640944      -0.53666199
N       -0.97726420       2.00214392      -0.50792199
H        1.63908340       1.27240378      -0.98593880
H        1.79198911      -0.17473963       0.52978707
H        1.05549852       1.55521899       0.76119295
H        1.02175455      -1.10140113      -0.89040514
H       -0.58679301      -0.42245126       1.68529491
H       -0.53805264      -2.00075435       0.84952438
H       -1.88047256      -1.12251652      -1.07198210
13
Frame=5 idx=006164 GeodesicLength=0.2854901304013556 rxn_smarts="[C:1]([C@@:2]1([H:10])[C:3]([H:11])([H:12])[C@:4]1([C:5]#[N:6])[H:13])([H:7])([H:8])[H:9]>>[C:1]1([H:7])([H:9])[C:2]([H:8])([H:10])[C:3]([H:11])([H:12])[C:4]([H:13])=[C:5]=[N:6]1"
C        1.09735477       0.92302887      -0.12002114
C        0.69142182      -0.46462957      -0.07224167
C       -0.50272157      -0.92793721       0.72336257
C       -1.40693330      -0.44701596      -0.37767076
C       -1.40729351       0.91091467      -0.52788503
N       -0.96959736       2.00345380      -0.48360319
H        1.61399556       1.26366438      -1.01020960
H        1.79021287      -0.15867763       0.54184294
H        1.07513879       1.56803443       0.74778817
H        1.03533171      -1.11496494      -0.87014872
H       -0.59703418      -0.43304980       1.68906671
H       -0.54692148      -2.00756684       0.84273449
H       -1.87295412      -1.11525420      -1.08301476
13
Frame=6 idx=006164 GeodesicLength=0.3426618887104488 rxn_smarts="[C:1]([C@@:2]1([H:10])[C:3]([H:11])([H:12])[C@:4]1([C:5]#[N:6])[H:13])([H:7])([H:8])[H:9]>>[C:1]1([H:7])([H:9])[C:2]([H:8])([H:10])[C:3]([H:11])([H:12])[C:4]([H:13])=[C:5]=[N:6]1"
C        1.09092629       0.92636150      -0.12770257
C        0.68584510      -0.46635641      -0.06916914
C       -0.50712716      -0.93406865       0.72560559
C       -1.39150029      -0.44471396      -0.38871927
C       -1.40837998       0.91524686      -0.51897735
N       -0.96181052       2.00432856      -0.45960484
H        1.58864219       1.25456298      -1.03388866
H        1.78836077      -0.14228466       0.55411775
H        1.09492948       1.58107647       0.73329937
H        1.04889157      -1.12785799      -0.84947200
H       -0.60734599      -0.44419067       1.69272107
H       -0.55590990      -2.01446932       0.83537425
H       -1.86552155      -1.10763472      -1.09358421
13
Frame=7 idx=006164 GeodesicLength=0.39994303206841303 rxn_smarts="[C:1]([C@@:2]1([H:10])[C:3]([H:11])([H:12])[C@:4]1([C:5]#[N:6])[H:13])([H:7])([H:8])[H:9]>>[C:1]1([H:7])([H:9])[C:2]([H:8])([H:10])[C:3]([H:11])([H:12])[C:4]([H:13])=[C:5]=[N:6]1"
C        1.08467910       0.92961516      -0.13531783
C        0.68039972      -0.46811922      -0.06597190
C       -0.51159228      -0.94034818       0.72757787
C       -1.37609129      -0.44213447      -0.39939782
C       -1.40933242       0.91942504      -0.50990793
N       -0.95388825       2.00479737      -0.43578006
H        1.56292712       1.24506664      -1.05710742
H        1.78637411      -0.12549672       0.56666203
H        1.11495093       1.59434201       0.71769244
H        1.06243067      -1.14018507      -0.82827149
H       -0.61775692      -0.45588098       1.69622945
H       -0.56498981      -2.02144326       0.82742009
H       -1.85811067      -1.09963832      -1.10382743
13
Frame=8 idx=006164 GeodesicLength=0.4573251967369773 rxn_smarts="[C:1]([C@@:2]1([H:10])[C:3]([H:11])([H:12])[C@:4]1([C:5]#[N:6])[H:13])([H:7])([H:8])[H:9]>>[C:1]1([H:7])([H:9])[C:2]([H:8])([H:10])[C:3]([H:11])([H:12])[C:4]([H:13])=[C:5]=[N:6]1"
C        1.07863057       0.93275921      -0.14286719
C        0.67508343      -0.46994487      -0.06269901
C       -0.51614099      -0.94679848       0.72930340
C       -1.36074187      -0.43928817      -0.40969226
C       -1.41014108       0.92343633      -0.50068739
N       -0.94583400       2.00485639      -0.41220672
H        1.53695735       1.23521778      -1.07969512
H        1.78426911      -0.10833324       0.57945710
H        1.13512917       1.60779852       0.70086339
H        1.07594270      -1.15183071      -0.80666786
H       -0.62826753      -0.46811319       1.69963135
H       -0.57419297      -2.02851538       0.81891864
H       -1.85069391      -1.09124418      -1.11365833
13
Frame=9 idx=006164 GeodesicLength=0.5148217908858107 rxn_smarts="[C:1]([C@@:2]1([H:10])[C:3]([H:11])([H:12])[C@:4]1([C:5]#[N:6])[H:13])([H:7])([H:8])[H:9]>>[C:1]1([H:7])([H:9])[C:2]([H:8])([H:10])[C:3]([H:11])([H:12])[C:4]([H:13])=[C:5]=[N:6]1"
C        1.07276190       0.93581890      -0.15039464
C        0.66988035      -0.47179702      -0.05928732
C       -0.52074699      -0.95340584       0.73077772
C       -1.34545992      -0.43615759      -0.41957600
C       -1.41080526       0.92732330      -0.49124179
N       -0.93760059       2.00455475      -0.38875496
H        1.51061930       1.22492995      -1.10183225
H        1.78195007      -0.09072832       0.59256507
H        1.15550065       1.62143337       0.68282319
H        1.08938515      -1.16292714      -0.78452943
H       -0.63885145      -0.48092231       1.70289290
H       -0.58347181      -2.03564623       0.80982618
H       -1.84316140      -1.08247582      -1.12326867
13
Frame=10 idx=006164 GeodesicLength=0.572440402548691 rxn_smarts="[C:1]([C@@:2]1([H:10])[C:3]([H:11])([H:12])[C@:4]1([C:5]#[N:6])[H:13])([H:7])([H:8])[H:9]>>[C:1]1([H:7])([H:9])[C:2]([H:8])([H:10])[C:3]([H:11])([H:12])[C:4]([H:13])=[C:5]=[N:6]1"
C        1.06708924       0.93877093      -0.15789430
C        0.66478617      -0.47370579      -0.05576861
C       -0.52542665      -0.96018699       0.73201955
C       -1.33026938      -0.43276770      -0.42902668
C       -1.41131876       0.93107281      -0.48158719
N       -0.92918913       2.00388805      -0.36547291
H        1.48400607       1.21426451      -1.12338348
H        1.77942178      -0.07268133       0.60596802
H        1.17603399       1.63521914       0.66348888
H        1.10275600      -1.17340960      -0.76194871
H       -0.64953169      -0.49429084       1.70603612
H       -0.59283501      -2.04285568       0.80017533
H       -1.83552263      -1.07331750      -1.13260601
13
Frame=11 idx=006164 GeodesicLength=0.6301667815802657 rxn_smarts="[C:1]([C@@:2]1([H:10])[C:3]([H:11])([H:12])[C@:4]1([C:5]#[N:6])[H:13])([H:7])([H:8])[H:9]>>[C:1]1([H:7])([H:9])[C:2]([H:8])([H:10])[C:3]([H:11])([H:12])[C:4]([H:13])=[C:5]=[N:6]1"
C        1.06161171       0.94161897      -0.16536449
C        0.65979032      -0.47566374      -0.05214886
C       -0.53016699      -0.96714065       0.73303808
C       -1.31519317      -0.42912417      -0.43802284
C       -1.41166747       0.93469336      -0.47172179
N       -0.92056164       2.00286832      -0.34239818
H        1.45716308       1.20323858      -1.14431260
H        1.77664550      -0.05417776       0.61966721
H        1.19667610       1.64909366       0.64286393
H        1.11601075      -1.18326955      -0.73896665
H       -0.66028556      -0.50821868       1.70905841
H       -0.60225077      -2.05013130       0.78997904
H       -1.82777187      -1.06378704      -1.14167125
13
Frame=12 idx=006164 GeodesicLength=0.6879971241573355 rxn_smarts="[C:1]([C@@:2]1([H:10])[C:3]([H:11])([H:12])[C@:4]1([C:5]#[N:6])[H:13])([H:7])([H:8])[H:9]>>[C:1]1([H:7])([H:9])[C:2]([H:8])([H:10])[C:3]([H:11])([H:12])[C:4]([H:13])=[C:5]=[N:6]1"
C        1.05633330       0.94436560      -0.17280511
C        0.65488549      -0.47766907      -0.04843513
C       -0.53495959      -0.97426432       0.73384125
C       -1.30024681      -0.42523544      -0.44654328
C       -1.41184017       0.93818804      -0.46164252
N       -0.91168907       2.00150415      -0.31956095
H        1.43014435       1.19187783      -1.16458775
H        1.77358780      -0.03519998       0.63366282
H        1.21737771       1.66300024       0.62095530
H        1.12911771      -1.19250863      -0.71562993
H       -0.67110545      -0.52269937       1.71195447
H       -0.61169195      -2.05745940       0.77924754
H       -1.81991333      -1.05389965      -1.15045670
13
Frame=13 idx=006164 GeodesicLength=0.745999796990818 rxn_smarts="[C:1]([C@@:2]1([H:10])[C:3]([H:11])([H:12])[C@:4]1([C:5]#[N:6])[H:13])([H:7])([H:8])[H:9]>>[C:1]1([H:7])([H:9])[C:2]([H:8])([H:10])[C:3]([H:11])([H:12])[C:4]([H:13])=[C:5]=[N:6]1"
C        1.05126548       0.94703059      -0.18025384
C        0.65006403      -0.47973109      -0.04462562
C       -0.53981383      -0.98158785       0.73445447
C       -1.28544506      -0.42112294      -0.45458290
C       -1.41182596       0.94159434      -0.45132374
N       -0.90253845       1.99986373      -0.29691369
H        1.40296142       1.18020340      -1.18426255
H        1.77019722      -0.01569335       0.64798239
H        1.23813676       1.67692837       0.59773000
H        1.14208102      -1.20117284      -0.69193569
H       -0.68200338      -0.53775468       1.71476485
H       -0.62117016      -2.06488705       0.76799926
H       -1.81190909      -1.04367063      -1.15903295
13
Frame=14 idx=006164 GeodesicLength=0.8040224968067312 rxn_smarts="[C:1]([C@@:2]1([H:10])[C:3]([H:11])([H:12])[C@:4]1([C:5]#[N:6])[H:13])([H:7])([H:8])[H:9]>>[C:1]1([H:7])([H:9])[C:2]([H:8])([H:10])[C:3]([H:11])([H:12])[C:4]([H:13])=[C:5]=[N:6]1"
C        1.04637420       0.94952227      -0.18772735
C        0.64532668      -0.48182644      -0.04069780
C       -0.54469468      -0.98905633       0.73483328
C       -1.27078163      -0.41676611      -0.46213222
C       -1.41162395       0.94489265      -0.44075100
N       -0.89313114       1.99785106      -0.27438423
H        1.37551871       1.16811836      -1.20326348
H        1.76641321       0.00439738       0.66263300
H        1.25890832       1.69065820       0.57307931
H        1.15494514      -1.20919183      -0.66776511
H       -0.69294256      -0.55335495       1.71736891
H       -0.63061870      -2.07228142       0.75618778
H       -1.80369359      -1.03296284      -1.16738109
13
Frame=15 idx=006164 GeodesicLength=0.8622590821193958 rxn_smarts="[C:1]([C@@:2]1([H:10])[C:3]([H:11])([H:12])[C@:4]1([C:5]#[N:6])[H:13])([H:7])([H:8])[H:9]>>[C:1]1([H:7])([H:9])[C:2]([H:8])([H:10])[C:3]([H:11])([H:12])[C:4]([H:13])=[C:5]=[N:6]1"
C        1.04169856       0.95191667      -0.19528179
C        0.64066625      -0.48398076      -0.03664750
C       -0.54962963      -0.99673359       0.73502744
C       -1.25627102      -0.41217042      -0.46916657
C       -1.41122422       0.94813507      -0.42984374
N       -0.88339453       1.99558555      -0.25193611
H        1.34787321       1.15568263      -1.22173244
H        1.76216343       0.02513972       0.67766898
H        1.27971199       1.70430890       0.54700571
H        1.16767128      -1.21669091      -0.64315913
H       -0.70395587      -0.56956231       1.71987049
H       -0.64008697      -2.07975580       0.74383334
H       -1.79522247      -1.02187475      -1.17563869
13
Frame=16 idx=006164 GeodesicLength=0.9206764258370056 rxn_smarts="[C:1]([C@@:2]1([H:10])[C:3]([H:11])([H:12])[C@:4]1([C:5]#[N:6])[H:13])([H:7])([H:8])[H:9]>>[C:1]1([H:7])([H:9])[C:2]([H:8])([H:10])[C:3]([H:11])([H:12])[C:4]([H:13])=[C:5]=[N:6]1"
C        1.03723513       0.95418111      -0.20293138
C        0.63608315      -0.48618904      -0.03247878
C       -0.55460611      -1.00461050       0.73502808
C       -1.24191492      -0.40734501      -0.47568536
C       -1.41060776       0.95132428      -0.41860596
N       -0.87330470       1.99304899      -0.22956068
H        1.32002649       1.14289158      -1.23962359
H        1.75739133       0.04659395       0.69308949
H        1.30049370       1.71773914       0.51947466
H        1.18028101      -1.22363202      -0.61809976
H       -0.71503280      -0.58636677       1.72223615
H       -0.64954230      -2.08727649       0.73092847
H       -1.78650222      -1.01035922      -1.18377133
