8
Frame=0 idx=004009 GeodesicLength=0.0 rxn_smarts="[O:1]([c:2]1[n:3][n:4]([H:8])[n:5][n:6]1)[H:7]>>[O:1]([c:2]1[n:3]([H:8])[n:4][n:5][n:6]1)[H:7]"
O        1.85062314      -0.17672366       0.04449813
C        0.53470097      -0.20990512      -0.07827445
N       -0.25397368       0.86023956      -0.08848442
N       -1.55828810       0.26366179      -0.22470923
N       -1.39953541      -1.02778809      -0.25449777
N       -0.13351191      -1.34846386      -0.24064443
H        2.14287174       0.73863830       0.09257210
H       -1.18288674       0.90034106       0.74954007
8
Frame=1 idx=004009 GeodesicLength=0.03854683159712596 rxn_smarts="[O:1]([c:2]1[n:3][n:4]([H:8])[n:5][n:6]1)[H:7]>>[O:1]([c:2]1[n:3]([H:8])[n:4][n:5][n:6]1)[H:7]"
O        1.85270638      -0.17637268       0.03258957
C        0.53569225      -0.21305575      -0.08038042
N       -0.25624139       0.85463358      -0.08961806
N       -1.55398622       0.26032210      -0.22236328
N       -1.39895766      -1.03058973      -0.25031429
N       -0.13152401      -1.35124636      -0.24617026
H        2.14144013       0.73841828       0.10525872
H       -1.18912947       0.91789057       0.75099801
8
Frame=2 idx=004009 GeodesicLength=0.07709520797780099 rxn_smarts="[O:1]([c:2]1[n:3][n:4]([H:8])[n:5][n:6]1)[H:7]>>[O:1]([c:2]1[n:3]([H:8])[n:4][n:5][n:6]1)[H:7]"
O        1.85473901      -0.17565523       0.02014473
C        0.53671506      -0.21615650      -0.08282713
N       -0.25858214       0.84898845      -0.09066958
N       -1.54976344       0.25675471      -0.21958009
N       -1.39824031      -1.03358171      -0.24571668
N       -0.12942511      -1.35401512      -0.25201998
H        2.13999230       0.73767387       0.11873797
H       -1.19543538       0.93599153       0.75193076
8
Frame=3 idx=004009 GeodesicLength=0.11565138414199873 rxn_smarts="[O:1]([c:2]1[n:3][n:4]([H:8])[n:5][n:6]1)[H:7]>>[O:1]([c:2]1[n:3]([H:8])[n:4][n:5][n:6]1)[H:7]"
O        1.85667568      -0.17477117       0.00873532
C        0.53777150      -0.21924199      -0.08494299
N       -0.26093046       0.84331600      -0.09090168
N       -1.54553221       0.25310103      -0.21659445
N       -1.39736226      -1.03662588      -0.24142392
N       -0.12720752      -1.35669239      -0.25832537
H        2.13880278       0.73656239       0.13089622
H       -1.20221751       0.95435199       0.75255686
8
Frame=4 idx=004009 GeodesicLength=0.15423335203282257 rxn_smarts="[O:1]([c:2]1[n:3][n:4]([H:8])[n:5][n:6]1)[H:7]>>[O:1]([c:2]1[n:3]([H:8])[n:4][n:5][n:6]1)[H:7]"
O        1.85852918      -0.17374565      -0.00191394
C        0.53886405      -0.22231515      -0.08699500
N       -0.26329464       0.83760236      -0.09049147
N       -1.54131756       0.24933002      -0.21330514
N       -1.39634336      -1.03975637      -0.23727887
N       -0.12489652      -1.35929887      -0.26505392
H        2.13780315       0.73514521       0.14221582
H       -1.20934430       0.97303845       0.75282251
8
Frame=5 idx=004009 GeodesicLength=0.19279988972484174 rxn_smarts="[O:1]([c:2]1[n:3][n:4]([H:8])[n:5][n:6]1)[H:7]>>[O:1]([c:2]1[n:3]([H:8])[n:4][n:5][n:6]1)[H:7]"
O        1.86025511      -0.17287348      -0.01059085
C        0.54000404      -0.22540836      -0.08862825
N       -0.26560774       0.83185303      -0.08895206
N       -1.53705009       0.24554194      -0.20980612
N       -1.39518802      -1.04289641      -0.23376106
N       -0.12251284      -1.36182871      -0.27237103
H        2.13712850       0.73371956       0.15123320
H       -1.21702896       0.99189242       0.75287617
8
Frame=6 idx=004009 GeodesicLength=0.23135180601252997 rxn_smarts="[O:1]([c:2]1[n:3][n:4]([H:8])[n:5][n:6]1)[H:7]>>[O:1]([c:2]1[n:3]([H:8])[n:4][n:5][n:6]1)[H:7]"
O        1.86195442      -0.17181563      -0.01924299
C        0.54118539      -0.22848609      -0.09072961
N       -0.26797143       0.82600617      -0.08714763
N       -1.53285691       0.24154539      -0.20578690
N       -1.39391078      -1.04617355      -0.22996683
N       -0.12005880      -1.36424676      -0.28005985
H        2.13645910       0.73196894       0.16055490
H       -1.22480098       1.01120154       0.75237892
8
Frame=7 idx=004009 GeodesicLength=0.26989041115568585 rxn_smarts="[O:1]([c:2]1[n:3][n:4]([H:8])[n:5][n:6]1)[H:7]>>[O:1]([c:2]1[n:3]([H:8])[n:4][n:5][n:6]1)[H:7]"
O        1.86359843      -0.17090151      -0.02667261
C        0.54240817      -0.23160563      -0.09273722
N       -0.27030359       0.82010478      -0.08451461
N       -1.52864555       0.23748651      -0.20141244
N       -1.39251285      -1.04950578      -0.22647250
N       -0.11755417      -1.36657659      -0.28826075
H        2.13598571       0.73022266       0.16855848
H       -1.23297616       1.03077557       0.75151164
8
Frame=8 idx=004009 GeodesicLength=0.3083643442652331 rxn_smarts="[O:1]([c:2]1[n:3][n:4]([H:8])[n:5][n:6]1)[H:7]>>[O:1]([c:2]1[n:3]([H:8])[n:4][n:5][n:6]1)[H:7]"
O        1.86524206      -0.16979377      -0.03442002
C        0.54367931      -0.23470476      -0.09531409
N       -0.27265815       0.81426920      -0.08170185
N       -1.52449460       0.23327788      -0.19648222
N       -1.39100457      -1.05307662      -0.22267331
N       -0.11501900      -1.36895835      -0.29671002
H        2.13548376       0.72817195       0.17722234
H       -1.24122881       1.05081446       0.75007918
8
Frame=9 idx=004009 GeodesicLength=0.3469233611403215 rxn_smarts="[O:1]([c:2]1[n:3][n:4]([H:8])[n:5][n:6]1)[H:7]>>[O:1]([c:2]1[n:3]([H:8])[n:4][n:5][n:6]1)[H:7]"
O        1.86683070      -0.16916825      -0.03993622
C        0.54499970      -0.23781525      -0.09743423
N       -0.27493231       0.80803611      -0.07721095
N       -1.52027183       0.22894151      -0.19121351
N       -1.38939573      -1.05651646      -0.21985536
N       -0.11245226      -1.37108566      -0.30569121
H        2.13534634       0.72645312       0.18313296
H       -1.25012460       1.07115489       0.74820852
8
Frame=10 idx=004009 GeodesicLength=0.3857100785701207 rxn_smarts="[O:1]([c:2]1[n:3][n:4]([H:8])[n:5][n:6]1)[H:7]>>[O:1]([c:2]1[n:3]([H:8])[n:4][n:5][n:6]1)[H:7]"
O        1.86845448      -0.16852336      -0.04538499
C        0.54636827      -0.24103068      -0.09953118
N       -0.27715339       0.80191358      -0.07222187
N       -1.51603932       0.22460249      -0.18559325
N       -1.38771507      -1.06009741      -0.21729011
N       -0.10984805      -1.37328991      -0.31474164
H        2.13528216       0.72464240       0.18878633
H       -1.25934908       1.09178289       0.74597671
8
Frame=11 idx=004009 GeodesicLength=0.4239205505976235 rxn_smarts="[O:1]([c:2]1[n:3][n:4]([H:8])[n:5][n:6]1)[H:7]>>[O:1]([c:2]1[n:3]([H:8])[n:4][n:5][n:6]1)[H:7]"
O        1.87004777      -0.16816599      -0.04974629
C        0.54777458      -0.24423516      -0.10165269
N       -0.27933057       0.79548006      -0.06583743
N       -1.51177126       0.22010116      -0.17941734
N       -1.38592460      -1.06368719      -0.21506549
N       -0.10725894      -1.37527071      -0.32433224
H        2.13540561       0.72299724       0.19317924
H       -1.26894258       1.11278059       0.74287223
8
Frame=12 idx=004009 GeodesicLength=0.46222459012103695 rxn_smarts="[O:1]([c:2]1[n:3][n:4]([H:8])[n:5][n:6]1)[H:7]>>[O:1]([c:2]1[n:3]([H:8])[n:4][n:5][n:6]1)[H:7]"
O        1.87166751      -0.16799768      -0.05347777
C        0.54922937      -0.24749591      -0.10374709
N       -0.28141987       0.78888813      -0.05845102
N       -1.50747040       0.21547879      -0.17268734
N       -1.38406876      -1.06737440      -0.21317420
N       -0.10465476      -1.37716087      -0.33432298
H        2.13566341       0.72144528       0.19675754
H       -1.27894651       1.13421664       0.73910286
8
Frame=13 idx=004009 GeodesicLength=0.500488932423266 rxn_smarts="[O:1]([c:2]1[n:3][n:4]([H:8])[n:5][n:6]1)[H:7]>>[O:1]([c:2]1[n:3]([H:8])[n:4][n:5][n:6]1)[H:7]"
O        1.87330860      -0.16790326      -0.05697733
C        0.55073733      -0.25075087      -0.10618601
N       -0.28351092       0.78212434      -0.05020334
N       -1.50319662       0.21065314      -0.16522934
N       -1.38210236      -1.07121740      -0.21127554
N       -0.10202919      -1.37894708      -0.34479137
H        2.13596827       0.71983958       0.20021243
H       -1.28917511       1.15620155       0.73445050
8
Frame=14 idx=004009 GeodesicLength=0.5386797953133536 rxn_smarts="[O:1]([c:2]1[n:3][n:4]([H:8])[n:5][n:6]1)[H:7]>>[O:1]([c:2]1[n:3]([H:8])[n:4][n:5][n:6]1)[H:7]"
O        1.87497709      -0.16785581      -0.06040553
C        0.55229579      -0.25397810      -0.10900136
N       -0.28558587       0.77517062      -0.04102142
N       -1.49893745       0.20558484      -0.15695195
N       -1.38000957      -1.07524987      -0.20925059
N       -0.09939279      -1.38057775      -0.35583030
H        2.13632022       0.71811863       0.20371749
H       -1.29966742       1.17878744       0.72874367
8
Frame=15 idx=004009 GeodesicLength=0.5770113939863962 rxn_smarts="[O:1]([c:2]1[n:3][n:4]([H:8])[n:5][n:6]1)[H:7]>>[O:1]([c:2]1[n:3]([H:8])[n:4][n:5][n:6]1)[H:7]"
O        1.87667601      -0.16786465      -0.06380818
C        0.55390600      -0.25717224      -0.11217655
N       -0.28763270       0.76793712      -0.03070470
N       -1.49467742       0.20022377      -0.14776267
N       -1.37777261      -1.07949192      -0.20711293
N       -0.09674463      -1.38202250      -0.36752822
H        2.13673639       0.71627860       0.20726468
H       -1.31049105       1.20211182       0.72182858
8
Frame=16 idx=004009 GeodesicLength=0.6153302765185885 rxn_smarts="[O:1]([c:2]1[n:3][n:4]([H:8])[n:5][n:6]1)[H:7]>>[O:1]([c:2]1[n:3]([H:8])[n:4][n:5][n:6]1)[H:7]"
O        1.87840850      -0.16782762      -0.06750348
C        0.55556765      -0.26026107      -0.11598116
N       -0.28967058       0.76039689      -0.01919488
N       -1.49043224       0.19448400      -0.13740882
N       -1.37534845      -1.08401427      -0.20459983
N       -0.09409530      -1.38322115      -0.38002113
H        2.13717666       0.71415777       0.21134559
H       -1.32160625       1.22628546       0.71336370
