16
Frame=0 idx=006863 GeodesicLength=0.0 rxn_smarts="[C:1]([N:2]1[C:3]([H:11])([H:12])[C@:4]1([C:5](=[O:6])[C:7]([H:14])([H:15])[H:16])[H:13])([H:8])([H:9])[H:10]>>[C:1](/[N:2]=[C:3](/[C@:4]1([H:13])[C@:5]([C:7]([H:14])([H:15])[H:16])([H:12])[O:6]1)[H:11])([H:8])([H:9])[H:10]"
C        1.45737484       0.36402482      -1.48574191
N        0.77966029      -0.73483835      -0.84350427
C        0.90403688      -1.42827639       0.21631140
C       -0.48086911      -1.11726634      -0.09451134
C       -0.95125282      -0.24275193       1.07185687
O       -1.79892986      -0.86552332       1.79634506
C       -1.28850262       1.21085642       0.67642118
H        2.49658254       0.08506592      -1.65719819
H        1.41852893       1.24852199      -0.84669316
H        0.97260771       0.57896636      -2.43476012
H        1.65704400      -1.85140279       0.86207051
H        0.15854747      -0.14027027       1.56832318
H       -1.14367782      -1.79593085      -0.61865061
H       -1.50665594       1.76070254       1.59126952
H       -0.48544712       1.72485248       0.14009306
H       -2.18904733       1.20326972       0.05836886
16
Frame=1 idx=006863 GeodesicLength=0.1430477436013801 rxn_smarts="[C:1]([N:2]1[C:3]([H:11])([H:12])[C@:4]1([C:5](=[O:6])[C:7]([H:14])([H:15])[H:16])[H:13])([H:8])([H:9])[H:10]>>[C:1](/[N:2]=[C:3](/[C@:4]1([H:13])[C@:5]([C:7]([H:14])([H:15])[H:16])([H:12])[O:6]1)[H:11])([H:8])([H:9])[H:10]"
C        1.48777408       0.34530594      -1.52314851
N        0.77533139      -0.69795447      -0.83606273
C        0.90112379      -1.38758233       0.22853918
C       -0.49117502      -1.09696643      -0.07795725
C       -0.96267868      -0.23336359       1.09216434
O       -1.81454440      -0.90384096       1.76862815
C       -1.31336840       1.21962158       0.72158738
H        2.53980163       0.07714448      -1.61470812
H        1.40255575       1.28077469      -0.96675597
H        1.05433661       0.46494523      -2.51400408
H        1.65984404      -1.86571142       0.82673552
H        0.16921134      -0.15071435       1.58798797
H       -1.14757960      -1.76130366      -0.62706784
H       -1.55932286       1.74540691       1.64340466
H       -0.50403630       1.74920365       0.21055683
H       -2.19727337       1.21503472       0.08010046
16
Frame=2 idx=006863 GeodesicLength=0.2837548482821264 rxn_smarts="[C:1]([N:2]1[C:3]([H:11])([H:12])[C@:4]1([C:5](=[O:6])[C:7]([H:14])([H:15])[H:16])[H:13])([H:8])([H:9])[H:10]>>[C:1](/[N:2]=[C:3](/[C@:4]1([H:13])[C@:5]([C:7]([H:14])([H:15])[H:16])([H:12])[O:6]1)[H:11])([H:8])([H:9])[H:10]"
C        1.51809748       0.32509084      -1.56092531
N        0.77169837      -0.65695254      -0.82860903
C        0.89883961      -1.34518365       0.23943770
C       -0.50081858      -1.07512542      -0.06231465
C       -0.97450335      -0.22477992       1.11295459
O       -1.82920314      -0.94070340       1.73884045
C       -1.33788071       1.22793605       0.76917842
H        2.57990777       0.08132758      -1.56695426
H        1.38114262       1.30653031      -1.10280650
H        1.14317235       0.33563956      -2.58336924
H        1.65829379      -1.87906151       0.78702238
H        0.17987168      -0.16189433       1.60784932
H       -1.15060497      -1.72302939      -0.63759921
H       -1.61338554       1.72746299       1.69712884
H       -0.52153980       1.77382776       0.28734543
H       -2.20308756       1.22891508       0.10282106
16
Frame=3 idx=006863 GeodesicLength=0.4222678282841461 rxn_smarts="[C:1]([N:2]1[C:3]([H:11])([H:12])[C@:4]1([C:5](=[O:6])[C:7]([H:14])([H:15])[H:16])[H:13])([H:8])([H:9])[H:10]>>[C:1](/[N:2]=[C:3](/[C@:4]1([H:13])[C@:5]([C:7]([H:14])([H:15])[H:16])([H:12])[O:6]1)[H:11])([H:8])([H:9])[H:10]"
C        1.54870021       0.30327700      -1.59839190
N        0.76874371      -0.61132947      -0.82131995
C        0.89700650      -1.30117301       0.24851704
C       -0.50984515      -1.05149362      -0.04806770
C       -0.98665411      -0.21700909       1.13383015
O       -1.84228854      -0.97617847       1.70706552
C       -1.36269902       1.23544015       0.81881830
H        2.61534870       0.09695612      -1.51836927
H        1.35955079       1.32161882      -1.25321509
H        1.23802221       0.19456721      -2.63750315
H        1.65211331      -1.88964868       0.74364153
H        0.19074701      -0.17334888       1.62710039
H       -1.15277727      -1.68081209      -0.65041800
H       -1.66836415       1.70669855       1.75200973
H       -0.53966254       1.79808983       0.36876360
H       -2.20794165       1.24434564       0.12753879
16
Frame=4 idx=006863 GeodesicLength=0.5589985234911171 rxn_smarts="[C:1]([N:2]1[C:3]([H:11])([H:12])[C@:4]1([C:5](=[O:6])[C:7]([H:14])([H:15])[H:16])[H:13])([H:8])([H:9])[H:10]>>[C:1](/[N:2]=[C:3](/[C@:4]1([H:13])[C@:5]([C:7]([H:14])([H:15])[H:16])([H:12])[O:6]1)[H:11])([H:8])([H:9])[H:10]"
C        1.57991115       0.27938791      -1.63549160
N        0.76730644      -0.56025042      -0.81357758
C        0.89593413      -1.25526458       0.25620943
C       -0.51787067      -1.02569909      -0.03548310
C       -0.99930672      -0.21007520       1.15439357
O       -1.85386757      -1.01059804       1.67266560
C       -1.38855839       1.24191780       0.87026824
H        2.64575000       0.12182435      -1.47510361
H        1.34323883       1.32223256      -1.41495531
H        1.33432566       0.04559017      -2.67232029
H        1.64209585      -1.89618831       0.69738985
H        0.20165422      -0.18475862       1.64565187
H       -1.15353603      -1.63393273      -0.66606586
H       -1.72522460       1.68267271       1.80760162
H       -0.55942845       1.82200410       0.45485042
H       -2.21242385       1.26113739       0.15396674
16
Frame=5 idx=006863 GeodesicLength=0.6944242617594033 rxn_smarts="[C:1]([N:2]1[C:3]([H:11])([H:12])[C@:4]1([C:5](=[O:6])[C:7]([H:14])([H:15])[H:16])[H:13])([H:8])([H:9])[H:10]>>[C:1](/[N:2]=[C:3](/[C@:4]1([H:13])[C@:5]([C:7]([H:14])([H:15])[H:16])([H:12])[O:6]1)[H:11])([H:8])([H:9])[H:10]"
C        1.61230771       0.25258318      -1.67232829
N        0.76751506      -0.50210811      -0.80557478
C        0.89542187      -1.20658253       0.26177723
C       -0.52485958      -0.99647819      -0.02544836
C       -1.01243949      -0.20394387       1.17433248
O       -1.86308867      -1.04445567       1.63522718
C       -1.41663502       1.24694777       0.92425690
H        2.67188148       0.15277765      -1.44039936
H        1.33622418       1.30565335      -1.58706730
H        1.43134269      -0.10959223      -2.68614330
H        1.62797864      -1.89688469       0.64894274
H        0.21273486      -0.19535174       1.66273813
H       -1.15258488      -1.58121044      -0.68509654
H       -1.78411073       1.65438735       1.86500762
H       -0.58306205       1.84546857       0.54562076
H       -2.21862607       1.27878959       0.18415491
16
Frame=6 idx=006863 GeodesicLength=0.8285159958045402 rxn_smarts="[C:1]([N:2]1[C:3]([H:11])([H:12])[C@:4]1([C:5](=[O:6])[C:7]([H:14])([H:15])[H:16])[H:13])([H:8])([H:9])[H:10]>>[C:1](/[N:2]=[C:3](/[C@:4]1([H:13])[C@:5]([C:7]([H:14])([H:15])[H:16])([H:12])[O:6]1)[H:11])([H:8])([H:9])[H:10]"
C        1.64550502       0.22193951      -1.70897871
N        0.77091158      -0.43567975      -0.79647481
C        0.89616067      -1.15427413       0.26594521
C       -0.53002801      -0.96303908      -0.01839038
C       -1.02625039      -0.19871291       1.19302273
O       -1.87025906      -1.07807011       1.59296247
C       -1.44732680       1.25024645       0.98076232
H        2.69507353       0.18574671      -1.41991745
H        1.34069566       1.26914467      -1.76536823
H        1.52252862      -0.26759280      -2.67779238
H        1.61137801      -1.89001806       0.59989282
H        0.22361505      -0.20506991       1.67868775
H       -1.14869941      -1.52152839      -0.70831082
H       -1.84675157       1.62063288       1.92373457
H       -0.61061231       1.86855073       0.64316926
H       -2.22594060       1.29772420       0.21705566
16
Frame=7 idx=006863 GeodesicLength=0.9605012515790335 rxn_smarts="[C:1]([N:2]1[C:3]([H:11])([H:12])[C@:4]1([C:5](=[O:6])[C:7]([H:14])([H:15])[H:16])[H:13])([H:8])([H:9])[H:10]>>[C:1](/[N:2]=[C:3](/[C@:4]1([H:13])[C@:5]([C:7]([H:14])([H:15])[H:16])([H:12])[O:6]1)[H:11])([H:8])([H:9])[H:10]"
C        1.67808185       0.18726149      -1.74449891
N        0.77822081      -0.36200285      -0.78704150
C        0.89818644      -1.09852118       0.26843789
C       -0.53315387      -0.92498049      -0.01496230
C       -1.04028188      -0.19428815       1.20958448
O       -1.87500331      -1.11071619       1.54466964
C       -1.47982338       1.25163365       1.03926541
H        2.71561874       0.22073243      -1.41425393
H        1.35260552       1.21020819      -1.94601693
H        1.60659026      -0.42538665      -2.64696873
H        1.59283859      -1.87532978       0.55143361
H        0.23476073      -0.21395499       1.69278008
H       -1.14171843      -1.45470555      -0.73563459
H       -1.91240129       1.58091757       1.98280455
H       -0.64119800       1.89053128       0.74809073
H       -2.23332277       1.31860122       0.25231049
16
Frame=8 idx=006863 GeodesicLength=1.0896612529509613 rxn_smarts="[C:1]([N:2]1[C:3]([H:11])([H:12])[C@:4]1([C:5](=[O:6])[C:7]([H:14])([H:15])[H:16])[H:13])([H:8])([H:9])[H:10]>>[C:1](/[N:2]=[C:3](/[C@:4]1([H:13])[C@:5]([C:7]([H:14])([H:15])[H:16])([H:12])[O:6]1)[H:11])([H:8])([H:9])[H:10]"
C        1.70813359       0.14929088      -1.77724812
N        0.79042263      -0.28415661      -0.77787930
C        0.90197710      -1.04023968       0.26999978
C       -0.53367720      -0.88312321      -0.01480900
C       -1.05380832      -0.19036305       1.22323215
O       -1.87668303      -1.14111362       1.49017691
C       -1.51299839       1.25091210       1.09761488
H        2.73380249       0.25436989      -1.42528743
H        1.36784028       1.12938135      -2.11897253
H        1.67888748      -0.57532285      -2.59602843
H        1.57353614      -1.85369980       0.50511998
H        0.24685203      -0.22147835       1.70452331
H       -1.13131607      -1.38175681      -0.76600596
H       -1.98072230       1.53564031       2.03884464
H       -0.67361056       1.91023065       0.85936937
H       -2.23863587       1.34142880       0.28734975
16
Frame=9 idx=006863 GeodesicLength=1.216433713573174 rxn_smarts="[C:1]([N:2]1[C:3]([H:11])([H:12])[C@:4]1([C:5](=[O:6])[C:7]([H:14])([H:15])[H:16])[H:13])([H:8])([H:9])[H:10]>>[C:1](/[N:2]=[C:3](/[C@:4]1([H:13])[C@:5]([C:7]([H:14])([H:15])[H:16])([H:12])[O:6]1)[H:11])([H:8])([H:9])[H:10]"
C        1.73438212       0.10961389      -1.80609624
N        0.80614713      -0.20683084      -0.77145228
C        0.90676124      -0.98130009       0.26997504
C       -0.53259598      -0.83905538      -0.01745348
C       -1.06617590      -0.18671874       1.23370138
O       -1.87516249      -1.16776576       1.43104698
C       -1.54522383       1.24827426       1.15414420
H        2.74850100       0.28771709      -1.44954113
H        1.38164672       1.02923041      -2.27827484
H        1.74281859      -0.71210308      -2.52885573
H        1.55353759      -1.82688591       0.46190806
H        0.26099387      -0.22739934       1.71267789
H       -1.11937253      -1.30547119      -0.79726777
H       -2.04909769       1.48636322       2.08964277
H       -0.70619356       1.92605778       0.97417068
H       -2.24096628       1.36627368       0.32167446
16
Frame=10 idx=006863 GeodesicLength=1.3414301087809377 rxn_smarts="[C:1]([N:2]1[C:3]([H:11])([H:12])[C@:4]1([C:5](=[O:6])[C:7]([H:14])([H:15])[H:16])[H:13])([H:8])([H:9])[H:10]>>[C:1](/[N:2]=[C:3](/[C@:4]1([H:13])[C@:5]([C:7]([H:14])([H:15])[H:16])([H:12])[O:6]1)[H:11])([H:8])([H:9])[H:10]"
C        1.75647561       0.06972070      -1.83058193
N        0.82486354      -0.13308212      -0.76827886
C        0.91233804      -0.92328450       0.26884141
C       -0.53028823      -0.79443722      -0.02185450
C       -1.07708582      -0.18315041       1.24118903
O       -1.87053525      -1.18992561       1.36907416
C       -1.57560536       1.24388201       1.20732926
H        2.75962440       0.31920433      -1.48539135
H        1.39065715       0.91442394      -2.41842547
H        1.79924463      -0.83185724      -2.45053275
H        1.53330890      -1.79699983       0.42226078
H        0.27762491      -0.23144254       1.71723890
H       -1.10681736      -1.22759016      -0.82803278
H       -2.11676189       1.43458233       2.13282687
H       -0.73815655       1.93700153       1.09052889
H       -2.23888673       1.39295478       0.35380831
16
Frame=11 idx=006863 GeodesicLength=1.4654649083174032 rxn_smarts="[C:1]([N:2]1[C:3]([H:11])([H:12])[C@:4]1([C:5](=[O:6])[C:7]([H:14])([H:15])[H:16])[H:13])([H:8])([H:9])[H:10]>>[C:1](/[N:2]=[C:3](/[C@:4]1([H:13])[C@:5]([C:7]([H:14])([H:15])[H:16])([H:12])[O:6]1)[H:11])([H:8])([H:9])[H:10]"
C        1.77502041       0.03048094      -1.85109868
N        0.84500795      -0.06460961      -0.76931697
C        0.91787578      -0.86717663       0.26612156
C       -0.52784234      -0.75031809      -0.02747952
C       -1.08671148      -0.17963564       1.24613405
O       -1.86358678      -1.20733609       1.30589991
C       -1.60365816       1.23804928       1.25710749
H        2.76631601       0.35048336      -1.52992743
H        1.39388785       0.78767455      -2.53958637
H        1.85350262      -0.93434286      -2.36428150
H        1.51243505      -1.76561530       0.38582751
H        0.29683126      -0.23373780       1.71804281
H       -1.09522892      -1.14946963      -0.85738082
H       -2.18224207       1.38172885       2.16839089
H       -0.76909013       1.94227882       1.20689912
H       -2.23251705       1.42154586       0.38464794
16
Frame=12 idx=006863 GeodesicLength=1.5892288234046754 rxn_smarts="[C:1]([N:2]1[C:3]([H:11])([H:12])[C@:4]1([C:5](=[O:6])[C:7]([H:14])([H:15])[H:16])[H:13])([H:8])([H:9])[H:10]>>[C:1](/[N:2]=[C:3](/[C@:4]1([H:13])[C@:5]([C:7]([H:14])([H:15])[H:16])([H:12])[O:6]1)[H:11])([H:8])([H:9])[H:10]"
C        1.79068576      -0.00821361      -1.86847681
N        0.86630202      -0.00064140      -0.77421893
C        0.92345956      -0.81227739       0.26208186
C       -0.52527079      -0.70668563      -0.03392169
C       -1.09533239      -0.17620187       1.24895648
O       -1.85456074      -1.22053797       1.24209093
C       -1.63006465       1.23070533       1.30382531
H        2.76961582       0.37764054      -1.58278816
H        1.39379584       0.65292641      -2.64153151
H        1.90462483      -1.02035708      -2.27395892
H        1.49155577      -1.73242633       0.35280539
H        0.31834408      -0.23368060       1.71561071
H       -1.08438663      -1.07136820      -0.88510342
H       -2.24607367       1.32798647       2.19658531
H       -0.80006791       1.94152504       1.32305577
H       -2.22262690       1.45160631       0.41498768
16
Frame=13 idx=006863 GeodesicLength=1.7129320023198182 rxn_smarts="[C:1]([N:2]1[C:3]([H:11])([H:12])[C@:4]1([C:5](=[O:6])[C:7]([H:14])([H:15])[H:16])[H:13])([H:8])([H:9])[H:10]>>[C:1](/[N:2]=[C:3](/[C@:4]1([H:13])[C@:5]([C:7]([H:14])([H:15])[H:16])([H:12])[O:6]1)[H:11])([H:8])([H:9])[H:10]"
C        1.80395763      -0.04637383      -1.88324677
N        0.88853030       0.05920335      -0.78268838
C        0.92901668      -0.75845683       0.25680743
C       -0.52270798      -0.66357410      -0.04094178
C       -1.10314123      -0.17284536       1.24995020
O       -1.84379598      -1.22985871       1.17808715
C       -1.65507323       1.22190787       1.34777025
H        2.76971702       0.39965380      -1.64282816
H        1.39087338       0.51256878      -2.72509976
H        1.95363568      -1.09125545      -2.18177697
H        1.47074833      -1.69787599       0.32288161
H        0.34198717      -0.23107625       1.71029700
H       -1.07435436      -0.99327411      -0.91116608
H       -2.30826267       1.27378619       2.21767957
H       -0.83162624       1.93446602       1.43873305
H       -2.20950450       1.48300463       0.44554164
16
Frame=14 idx=006863 GeodesicLength=1.8367053046590507 rxn_smarts="[C:1]([N:2]1[C:3]([H:11])([H:12])[C@:4]1([C:5](=[O:6])[C:7]([H:14])([H:15])[H:16])[H:13])([H:8])([H:9])[H:10]>>[C:1](/[N:2]=[C:3](/[C@:4]1([H:13])[C@:5]([C:7]([H:14])([H:15])[H:16])([H:12])[O:6]1)[H:11])([H:8])([H:9])[H:10]"
C        1.81518257      -0.08420588      -1.89585357
N        0.91187548       0.11566201      -0.79427450
C        0.93470192      -0.70524712       0.25049671
C       -0.52000614      -0.62071187      -0.04840273
C       -1.11026556      -0.16957247       1.24931124
O       -1.83139484      -1.23568774       1.11391970
C       -1.67908230       1.21160466       1.38924143
H        2.76723434       0.41463917      -1.70919248
H        1.38584825       0.36901251      -2.79111526
H        1.99994616      -1.14868136      -2.08969608
H        1.45033917      -1.66189961       0.29595490
H        0.36760312      -0.22552766       1.70249699
H       -1.06476772      -0.91492433      -0.93566185
H       -2.36904070       1.21923690       2.23194672
H       -0.86451763       1.92085221       1.55377331
H       -2.19365611       1.51545056       0.47705547
16
Frame=15 idx=006863 GeodesicLength=1.9605944690668091 rxn_smarts="[C:1]([N:2]1[C:3]([H:11])([H:12])[C@:4]1([C:5](=[O:6])[C:7]([H:14])([H:15])[H:16])[H:13])([H:8])([H:9])[H:10]>>[C:1](/[N:2]=[C:3](/[C@:4]1([H:13])[C@:5]([C:7]([H:14])([H:15])[H:16])([H:12])[O:6]1)[H:11])([H:8])([H:9])[H:10]"
C        1.82461412      -0.12186107      -1.90661075
N        0.93603330       0.16907600      -0.80905372
C        0.94041696      -0.65231535       0.24300721
C       -0.51731085      -0.57796303      -0.05624409
C       -1.11680277      -0.16639744       1.24721792
O       -1.81753859      -1.23827644       1.04976684
C       -1.70222050       1.19979293       1.42859216
H        2.76214508       0.42214246      -1.78056973
H        1.37944648       0.22366526      -2.84098579
H        2.04415688      -1.19411090      -1.99864746
H        1.43035754      -1.62449048       0.27166987
H        0.39512980      -0.21671523       1.69232033
H       -1.05571525      -0.83629789      -0.95859097
H       -2.42840688       1.16460374       2.23966881
H       -0.89908402       1.90032170       1.66814549
H       -2.17522131       1.54882574       0.51031388
16
Frame=16 idx=006863 GeodesicLength=2.084573317146052 rxn_smarts="[C:1]([N:2]1[C:3]([H:11])([H:12])[C@:4]1([C:5](=[O:6])[C:7]([H:14])([H:15])[H:16])[H:13])([H:8])([H:9])[H:10]>>[C:1](/[N:2]=[C:3](/[C@:4]1([H:13])[C@:5]([C:7]([H:14])([H:15])[H:16])([H:12])[O:6]1)[H:11])([H:8])([H:9])[H:10]"
C        1.83237494      -0.15948732      -1.91569650
N        0.96125078       0.21985330      -0.82667647
C        0.94629184      -0.59944533       0.23445846
C       -0.51448709      -0.53509642      -0.06440200
C       -1.12279123      -0.16333042       1.24375533
O       -1.80231052      -1.23781601       0.98550577
C       -1.72464045       1.18642791       1.46597843
H        2.75457501       0.42146605      -1.85607842
H        1.37157207       0.07789181      -2.87552131
H        2.08617652      -1.22885904      -1.90947938
H        1.41093011      -1.58574511       0.24977428
H        0.42449118      -0.20431939       1.68000861
H       -1.04690984      -0.75708053      -0.98005903
H       -2.48633599       1.11011208       2.24097451
H       -0.93575049       1.87255671       1.78152677
H       -2.15443683       1.58287173       0.54593094
