12
Frame=0 idx=003721 GeodesicLength=0.0 rxn_smarts="[C:1]([C:2]#[C:3][C:4](=[O:5])[C:6]([H:10])([H:11])[H:12])([H:7])([H:8])[H:9]>>[C:1]1([H:7])([H:9])[C:2]([H:8])=[C:3]1[C:4](=[O:5])[C:6]([H:10])([H:11])[H:12]"
C       -1.51601430       0.50063654      -0.21481236
C       -1.48356896      -1.10802216      -1.04547559
C       -0.49236272      -0.52284859      -0.41289452
C        0.92458804      -0.78665728      -0.09206825
O        1.45353080      -1.81693306      -0.42204576
C        1.64013434       0.30432915       0.65841042
H       -1.50704628       1.39925426      -0.82623023
H       -2.41147453      -0.29150357      -0.92160058
H       -2.02163074       0.57550397       0.74438803
H        1.60905920       1.23329218       0.08364010
H        1.13255874       0.49725424       1.60683892
H        2.67222637       0.01569433       0.84184981
12
Frame=1 idx=003721 GeodesicLength=0.10605221801392559 rxn_smarts="[C:1]([C:2]#[C:3][C:4](=[O:5])[C:6]([H:10])([H:11])[H:12])([H:7])([H:8])[H:9]>>[C:1]1([H:7])([H:9])[C:2]([H:8])=[C:3]1[C:4](=[O:5])[C:6]([H:10])([H:11])[H:12]"
C       -1.54122423       0.49708958      -0.21657391
C       -1.47302431      -1.07878026      -1.05424801
C       -0.48083879      -0.52410254      -0.40730879
C        0.93408404      -0.79171115      -0.08357545
O        1.45887210      -1.82765742      -0.40274116
C        1.65409550       0.30349189       0.65629204
H       -1.52473874       1.40580931      -0.81288246
H       -2.43757753      -0.29119543      -0.93922931
H       -2.04896397       0.56042429       0.74246006
H        1.62667401       1.22704688       0.07276564
H        1.14752126       0.50718706       1.60295889
H        2.68512066       0.01239778       0.84208247
12
Frame=2 idx=003721 GeodesicLength=0.2121371826049733 rxn_smarts="[C:1]([C:2]#[C:3][C:4](=[O:5])[C:6]([H:10])([H:11])[H:12])([H:7])([H:8])[H:9]>>[C:1]1([H:7])([H:9])[C:2]([H:8])=[C:3]1[C:4](=[O:5])[C:6]([H:10])([H:11])[H:12]"
C       -1.56704974       0.49383226      -0.21848210
C       -1.46227306      -1.04887609      -1.06192765
C       -0.46930243      -0.52488441      -0.40147899
C        0.94356918      -0.79660527      -0.07495774
O        1.46381551      -1.83827637      -0.38323838
C        1.66847412       0.30252054       0.65411217
H       -1.54342420       1.41259706      -0.79912555
H       -2.46295695      -0.29154337      -0.95799332
H       -2.07718500       0.54483151       0.74013505
H        1.64487333       1.22053775       0.06182063
H        1.16310394       0.51717678       1.59895850
H        2.69835531       0.00868961       0.84217737
12
Frame=3 idx=003721 GeodesicLength=0.31823475840001436 rxn_smarts="[C:1]([C:2]#[C:3][C:4](=[O:5])[C:6]([H:10])([H:11])[H:12])([H:7])([H:8])[H:9]>>[C:1]1([H:7])([H:9])[C:2]([H:8])=[C:3]1[C:4](=[O:5])[C:6]([H:10])([H:11])[H:12]"
C       -1.59340994       0.49105174      -0.22080315
C       -1.45164357      -1.01883210      -1.06765992
C       -0.45776448      -0.52520908      -0.39541458
C        0.95310701      -0.80123929      -0.06645640
O        1.46863295      -1.84842349      -0.36435149
C        1.68318613       0.30131682       0.65207449
H       -1.56310819       1.41940626      -0.78584158
H       -2.48762622      -0.29272687      -0.97754516
H       -2.10589123       0.52954227       0.73726383
H        1.66333491       1.21393628       0.05143502
H        1.17926398       0.52658880       1.59518130
H        2.71191865       0.00458867       0.84211764
12
Frame=4 idx=003721 GeodesicLength=0.4243486178352696 rxn_smarts="[C:1]([C:2]#[C:3][C:4](=[O:5])[C:6]([H:10])([H:11])[H:12])([H:7])([H:8])[H:9]>>[C:1]1([H:7])([H:9])[C:2]([H:8])=[C:3]1[C:4](=[O:5])[C:6]([H:10])([H:11])[H:12]"
C       -1.62049716       0.48852835      -0.22310855
C       -1.44085470      -0.98814962      -1.07225202
C       -0.44619673      -0.52498969      -0.38919192
C        0.96259608      -0.80572506      -0.05778516
O        1.47294703      -1.85853804      -0.34506943
C        1.69833766       0.30000560       0.64989200
H       -1.58385384       1.42650021      -0.77183468
H       -2.51124847      -0.29439852      -0.99859730
H       -2.13558342       0.51344951       0.73411495
H        1.68251418       1.20700485       0.04074722
H        1.19604009       0.53628066       1.59113334
H        2.72579928       0.00003175       0.84195155
12
Frame=5 idx=003721 GeodesicLength=0.5304662532934474 rxn_smarts="[C:1]([C:2]#[C:3][C:4](=[O:5])[C:6]([H:10])([H:11])[H:12])([H:7])([H:8])[H:9]>>[C:1]1([H:7])([H:9])[C:2]([H:8])=[C:3]1[C:4](=[O:5])[C:6]([H:10])([H:11])[H:12]"
C       -1.64820574       0.48648616      -0.22573988
C       -1.43027780      -0.95738860      -1.07486522
C       -0.43460670      -0.52427642      -0.38281992
C        0.97212952      -0.80996055      -0.04922817
O        1.47712286      -1.86824112      -0.32631899
C        1.71382425       0.29847673       0.64780648
H       -1.60563940       1.43364334      -0.75815103
H       -2.53394247      -0.29682833      -1.02057562
H       -2.16577126       0.49756187       0.73050527
H        1.70201515       1.19995228       0.03049918
H        1.21336726       0.54550244       1.58722395
H        2.73998435      -0.00492780       0.84166393
12
Frame=6 idx=003721 GeodesicLength=0.6365765310145497 rxn_smarts="[C:1]([C:2]#[C:3][C:4](=[O:5])[C:6]([H:10])([H:11])[H:12])([H:7])([H:8])[H:9]>>[C:1]1([H:7])([H:9])[C:2]([H:8])=[C:3]1[C:4](=[O:5])[C:6]([H:10])([H:11])[H:12]"
C       -1.67673565       0.48470756      -0.22835523
C       -1.41965933      -0.92605696      -1.07617898
C       -0.42297151      -0.52298802      -0.37630181
C        0.98161645      -0.81402733      -0.04052791
O        1.48078854      -1.87786706      -0.30722665
C        1.72975307       0.29682896       0.64557601
H       -1.62854875       1.44102553      -0.74378442
H       -2.55539535      -0.29971270      -1.04411008
H       -2.19688670       0.48091492       0.72662630
H        1.72222854       1.19256380       0.01996785
H        1.23132980       0.55497167       1.58304358
H        2.75448089      -0.01036036       0.84127135
12
Frame=7 idx=003721 GeodesicLength=0.7426665044260958 rxn_smarts="[C:1]([C:2]#[C:3][C:4](=[O:5])[C:6]([H:10])([H:11])[H:12])([H:7])([H:8])[H:9]>>[C:1]1([H:7])([H:9])[C:2]([H:8])=[C:3]1[C:4](=[O:5])[C:6]([H:10])([H:11])[H:12]"
C       -1.70605669       0.48330785      -0.23116184
C       -1.40922931      -0.89443633      -1.07574967
C       -0.41128543      -0.52114065      -0.36965509
C        0.99111643      -0.81786334      -0.03185702
O        1.48415823      -1.88721514      -0.28831406
C        1.74606721       0.29499874       0.64333955
H       -1.65259961       1.44849934      -0.72934666
H       -2.57566267      -0.30324660      -1.06881267
H       -2.22861900       0.46411807       0.72237913
H        1.74294212       1.18496044       0.00957910
H        1.24988932       0.56425843       1.57882460
H        2.76927939      -0.01624081       0.84077462
12
Frame=8 idx=003721 GeodesicLength=0.8487256901211855 rxn_smarts="[C:1]([C:2]#[C:3][C:4](=[O:5])[C:6]([H:10])([H:11])[H:12])([H:7])([H:8])[H:9]>>[C:1]1([H:7])([H:9])[C:2]([H:8])=[C:3]1[C:4](=[O:5])[C:6]([H:10])([H:11])[H:12]"
C       -1.73634055       0.48213348      -0.23395918
C       -1.39884434      -0.86220127      -1.07395434
C       -0.39954254      -0.51868874      -0.36284263
C        1.00057523      -0.82151832      -0.02303690
O        1.48700060      -1.89648688      -0.26900963
C        1.76284687       0.29304183       0.64093592
H       -1.67787875       1.45616457      -0.71415904
H       -2.59448623      -0.30717820      -1.09514662
H       -2.26126359       0.44654881       0.71784589
H        1.76439743       1.17698555      -0.00112697
H        1.26914048       0.57380641       1.57429115
H        2.78439539      -0.02260723       0.84016235
12
Frame=9 idx=003721 GeodesicLength=0.9550683485420861 rxn_smarts="[C:1]([C:2]#[C:3][C:4](=[O:5])[C:6]([H:10])([H:11])[H:12])([H:7])([H:8])[H:9]>>[C:1]1([H:7])([H:9])[C:2]([H:8])=[C:3]1[C:4](=[O:5])[C:6]([H:10])([H:11])[H:12]"
C       -1.76745588       0.48139034      -0.23743493
C       -1.38914579      -0.83024156      -1.06931423
C       -0.38783171      -0.51593590      -0.35547376
C        1.01015616      -0.82491082      -0.01441682
O        1.49002303      -1.90507421      -0.25097635
C        1.77991898       0.29081612       0.63874486
H       -1.70392357       1.46362931      -0.70000394
H       -2.61213157      -0.31172588      -1.12222670
H       -2.29431743       0.42985676       0.71263580
H        1.78568471       1.16909902      -0.01095328
H        1.28911008       0.58233646       1.57029326
H        2.79991299      -0.02923965       0.83912610
12
Frame=10 idx=003721 GeodesicLength=1.0613697390070354 rxn_smarts="[C:1]([C:2]#[C:3][C:4](=[O:5])[C:6]([H:10])([H:11])[H:12])([H:7])([H:8])[H:9]>>[C:1]1([H:7])([H:9])[C:2]([H:8])=[C:3]1[C:4](=[O:5])[C:6]([H:10])([H:11])[H:12]"
C       -1.79968187       0.48082102      -0.24097347
C       -1.37959674      -0.79762708      -1.06316715
C       -0.37606111      -0.51256614      -0.34787427
C        1.01970306      -0.82811132      -0.00566065
O        1.49252105      -1.91357211      -0.23258637
C        1.79746803       0.28844895       0.63637766
H       -1.73126867       1.47124269      -0.68510819
H       -2.62808323      -0.31666830      -1.15095692
H       -2.32827907       0.41248281       0.70711412
H        1.80768890       1.16084614      -0.02108865
H        1.30983050       0.59108073       1.56600071
H        2.81575916      -0.03637737       0.83792320
12
Frame=11 idx=003721 GeodesicLength=1.1676492151397984 rxn_smarts="[C:1]([C:2]#[C:3][C:4](=[O:5])[C:6]([H:10])([H:11])[H:12])([H:7])([H:8])[H:9]>>[C:1]1([H:7])([H:9])[C:2]([H:8])=[C:3]1[C:4](=[O:5])[C:6]([H:10])([H:11])[H:12]"
C       -1.83299790       0.48054649      -0.24483773
C       -1.37046073      -0.76464524      -1.05497767
C       -0.36424311      -0.50864393      -0.33998336
C        1.02928356      -0.83107630       0.00304689
O        1.49473952      -1.92176469      -0.21448424
C        1.81542526       0.28587417       0.63398457
H       -1.75984480       1.47886812      -0.67017578
H       -2.64235146      -0.32229534      -1.18089822
H       -2.36288186       0.39517448       0.70117218
H        1.83010206       1.15240027      -0.03105388
H        1.33128131       0.59953085       1.56172862
H        2.83194818      -0.04396889       0.83647862
12
Frame=12 idx=003721 GeodesicLength=1.2739163300765473 rxn_smarts="[C:1]([C:2]#[C:3][C:4](=[O:5])[C:6]([H:10])([H:11])[H:12])([H:7])([H:8])[H:9]>>[C:1]1([H:7])([H:9])[C:2]([H:8])=[C:3]1[C:4](=[O:5])[C:6]([H:10])([H:11])[H:12]"
C       -1.86757895       0.48041340      -0.24892919
C       -1.36164041      -0.73097308      -1.04490966
C       -0.35237049      -0.50408641      -0.33175027
C        1.03884400      -0.83382338       0.01184342
O        1.49646097      -1.92978101      -0.19624398
C        1.83387106       0.28311764       0.63143774
H       -1.78981311       1.48655583      -0.65467516
H       -2.65459846      -0.32844009      -1.21244026
H       -2.39839133       0.37747073       0.69483521
H        1.85313468       1.14361822      -0.04120073
H        1.35357796       0.60801476       1.55726422
H        2.84850409      -0.05208660       0.83476865
12
Frame=13 idx=003721 GeodesicLength=1.3801458964108093 rxn_smarts="[C:1]([C:2]#[C:3][C:4](=[O:5])[C:6]([H:10])([H:11])[H:12])([H:7])([H:8])[H:9]>>[C:1]1([H:7])([H:9])[C:2]([H:8])=[C:3]1[C:4](=[O:5])[C:6]([H:10])([H:11])[H:12]"
C       -1.90345556       0.48048565      -0.25343114
C       -1.35331088      -0.69675894      -1.03261982
C       -0.34045055      -0.49893236      -0.32314080
C        1.04842670      -0.83633287       0.02061587
O        1.49784096      -1.93751295      -0.17823753
C        1.85276460       0.28013688       0.62881298
H       -1.82118202       1.49422533      -0.63898018
H       -2.66471533      -0.33528797      -1.24530142
H       -2.43466777       0.35985234       0.68802996
H        1.87660242       1.13460196      -0.05126689
H        1.37671444       0.61622785       1.55278510
H        2.86543299      -0.06070491       0.83273388
12
Frame=14 idx=003721 GeodesicLength=1.486252440952875 rxn_smarts="[C:1]([C:2]#[C:3][C:4](=[O:5])[C:6]([H:10])([H:11])[H:12])([H:7])([H:8])[H:9]>>[C:1]1([H:7])([H:9])[C:2]([H:8])=[C:3]1[C:4](=[O:5])[C:6]([H:10])([H:11])[H:12]"
C       -1.94061095       0.48086331      -0.25858649
C       -1.34571804      -0.66224189      -1.01767107
C       -0.32847190      -0.49318051      -0.31419263
C        1.05809549      -0.83855405       0.02914130
O        1.49907687      -1.94479863      -0.16104278
C        1.87204080       0.27687127       0.62624768
H       -1.85399020       1.50174676      -0.62375736
H       -2.67265061      -0.34319804      -1.27894219
H       -2.47141475       0.34305619       0.68069926
H        1.90029349       1.12553939      -0.06080720
H        1.40063365       0.62371045       1.54856699
H        2.88271614      -0.06981424       0.83034448
12
Frame=15 idx=003721 GeodesicLength=1.5923772992483227 rxn_smarts="[C:1]([C:2]#[C:3][C:4](=[O:5])[C:6]([H:10])([H:11])[H:12])([H:7])([H:8])[H:9]>>[C:1]1([H:7])([H:9])[C:2]([H:8])=[C:3]1[C:4](=[O:5])[C:6]([H:10])([H:11])[H:12]"
C       -1.97925938       0.48134701      -0.26433364
C       -1.33876712      -0.62700276      -1.00012333
C       -0.31644596      -0.48674745      -0.30476728
C        1.06778535      -0.84051321       0.03759918
O        1.49991430      -1.95177846      -0.14419016
C        1.89180571       0.27334201       0.62358568
H       -1.88842309       1.50920768      -0.60840008
H       -2.67791204      -0.35198461      -1.31390236
H       -2.50904509       0.32654914       0.67287464
H        1.92441991       1.11627031      -0.07023794
H        1.42551887       0.63081797       1.54438913
H        2.90040854      -0.07950764       0.82750616
12
Frame=16 idx=003721 GeodesicLength=1.6985446812063094 rxn_smarts="[C:1]([C:2]#[C:3][C:4](=[O:5])[C:6]([H:10])([H:11])[H:12])([H:7])([H:8])[H:9]>>[C:1]1([H:7])([H:9])[C:2]([H:8])=[C:3]1[C:4](=[O:5])[C:6]([H:10])([H:11])[H:12]"
C       -2.01951291       0.48188497      -0.27081461
C       -1.33254022      -0.59089604      -0.97972453
C       -0.30436638      -0.47954720      -0.29484357
C        1.07748960      -0.84218901       0.04595883
O        1.50031206      -1.95844286      -0.12775807
C        1.91209007       0.26951711       0.62081651
H       -1.92470140       1.51654403      -0.59294108
H       -2.68010960      -0.36175072      -1.35006391
H       -2.54765152       0.31045461       0.66447133
H        1.94901120       1.10679349      -0.07953877
H        1.45144806       0.63748776       1.54027281
H        2.91853105      -0.08985613       0.82416504
