16
Frame=0 idx=007602 GeodesicLength=0.0 rxn_smarts="[C:1]([C@@:2]1([H:11])[N:3]([H:12])[C@:4]1([C:5]([C:6](=[O:7])[H:16])([H:14])[H:15])[H:13])([H:8])([H:9])[H:10]>>[C:1](/[C:2](=[N:3]/[C:4]([C:5]([C:6](=[O:7])[H:16])([H:14])[H:15])([H:12])[H:13])[H:11])([H:8])([H:9])[H:10]"
C       -1.25605291      -0.20177769       1.22191192
C       -1.38652535       0.17140681      -0.24600597
N       -1.41575843       1.45279052      -0.65825018
C       -0.02517225       0.45229842      -1.06926945
C        1.24383398       0.42405062      -0.24768588
C        1.72005668      -0.95472793       0.12221970
O        1.21310698      -1.97626160      -0.25073140
H       -0.67190287       0.53150111       1.77671869
H       -2.26180746      -0.20632337       1.64661053
H       -0.84009611      -1.20198529       1.35175277
H       -1.97303493      -0.58608864      -0.79442859
H       -0.10797948       1.43253710      -1.59289492
H       -0.07412578      -0.27431392      -1.87812154
H        1.14827103       1.02570284       0.65856353
H        2.06504019       0.88702834      -0.80816387
H        2.62214669      -0.97583727       0.76777469
16
Frame=1 idx=007602 GeodesicLength=0.10497892238968422 rxn_smarts="[C:1]([C@@:2]1([H:11])[N:3]([H:12])[C@:4]1([C:5]([C:6](=[O:7])[H:16])([H:14])[H:15])[H:13])([H:8])([H:9])[H:10]>>[C:1](/[C:2](=[N:3]/[C:4]([C:5]([C:6](=[O:7])[H:16])([H:14])[H:15])([H:12])[H:13])[H:11])([H:8])([H:9])[H:10]"
C       -1.27697717      -0.20772710       1.23102783
C       -1.38854373       0.16605740      -0.23677273
N       -1.38064055       1.44873726      -0.64611100
C       -0.02003735       0.45243855      -1.06921440
C        1.25416316       0.42753012      -0.25580638
C        1.72955008      -0.94973252       0.12055340
O        1.22283406      -1.97333037      -0.24719102
H       -0.68889619       0.51839108       1.79108672
H       -2.28612005      -0.20306970       1.64782384
H       -0.87170765      -1.21198972       1.36406511
H       -1.97722398      -0.58016663      -0.79642308
H       -0.12034028       1.43917958      -1.61075111
H       -0.07166970      -0.27644351      -1.87597536
H        1.16480975       1.03230872       0.64925170
H        2.07294278       0.88642093      -0.82315610
H        2.63785680      -0.96860410       0.75759259
16
Frame=2 idx=007602 GeodesicLength=0.2101010176974129 rxn_smarts="[C:1]([C@@:2]1([H:11])[N:3]([H:12])[C@:4]1([C:5]([C:6](=[O:7])[H:16])([H:14])[H:15])[H:13])([H:8])([H:9])[H:10]>>[C:1](/[C:2](=[N:3]/[C:4]([C:5]([C:6](=[O:7])[H:16])([H:14])[H:15])([H:12])[H:13])[H:11])([H:8])([H:9])[H:10]"
C       -1.29854699      -0.21339247       1.24019089
C       -1.39029274       0.16048667      -0.22746349
N       -1.34593386       1.44357913      -0.63357431
C       -0.01444087       0.45259438      -1.06903057
C        1.26503841       0.43091127      -0.26411868
C        1.73959857      -0.94485184       0.11851324
O        1.23254215      -1.97040599      -0.24345974
H       -0.70681058       0.50558887       1.80563256
H       -2.31115614      -0.19927286       1.64853336
H       -0.90420468      -1.22163955       1.37675313
H       -1.98067575      -0.57458718      -0.79828538
H       -0.13387976       1.44627794      -1.62752690
H       -0.06883552      -0.27813706      -1.87403884
H        1.18224849       1.03892423       0.63964514
H        2.08120027       0.88560580      -0.83857944
H        2.65414901      -0.96168135       0.74680903
16
Frame=3 idx=007602 GeodesicLength=0.31535242350612425 rxn_smarts="[C:1]([C@@:2]1([H:11])[N:3]([H:12])[C@:4]1([C:5]([C:6](=[O:7])[H:16])([H:14])[H:15])[H:13])([H:8])([H:9])[H:10]>>[C:1](/[C:2](=[N:3]/[C:4]([C:5]([C:6](=[O:7])[H:16])([H:14])[H:15])([H:12])[H:13])[H:11])([H:8])([H:9])[H:10]"
C       -1.32078797      -0.21876143       1.24939330
C       -1.39174681       0.15465483      -0.21806129
N       -1.31162311       1.43732509      -0.62063481
C       -0.00836883       0.45274628      -1.06871893
C        1.27648166       0.43418629      -0.27264596
C        1.75023847      -0.94008923       0.11607647
O        1.24227103      -1.96748974      -0.23954019
H       -0.72570311       0.49311852       1.82035838
H       -2.33693305      -0.19491519       1.64868704
H       -0.93762972      -1.23090743       1.38983440
H       -1.98337522      -0.56938751      -0.79999667
H       -0.14867236       1.45386385      -1.64309041
H       -0.06561940      -0.27939618      -1.87232907
H        1.20061217       1.04554381       0.62971011
H        2.08981779       0.88457749      -0.85446560
H        2.67103845      -0.95506945       0.73542323
16
Frame=4 idx=007602 GeodesicLength=0.420724636863239 rxn_smarts="[C:1]([C@@:2]1([H:11])[N:3]([H:12])[C@:4]1([C:5]([C:6](=[O:7])[H:16])([H:14])[H:15])[H:13])([H:8])([H:9])[H:10]>>[C:1](/[C:2](=[N:3]/[C:4]([C:5]([C:6](=[O:7])[H:16])([H:14])[H:15])([H:12])[H:13])[H:11])([H:8])([H:9])[H:10]"
C       -1.34372932      -0.22381734       1.25862757
C       -1.39287894       0.14851832      -0.20854817
N       -1.27768980       1.42997534      -0.60728747
C       -0.00180766       0.45287512      -1.06828063
C        1.28851399       0.43734600      -0.28141196
C        1.76150671      -0.93544852       0.11321560
O        1.25206463      -1.96458213      -0.23543623
H       -0.74563694       0.48101018       1.83526370
H       -2.36346963      -0.18997694       1.64822719
H       -0.97203216      -1.23976184       1.40332668
H       -1.98530305      -0.56460901      -0.80153353
H       -0.16478729       1.46196893      -1.65729311
H       -0.06201884      -0.28022219      -1.87086181
H        1.21992519       1.05216068       0.61941151
H        2.09879778       0.88333124      -0.87084566
H        2.68854532      -0.94876785       0.72342633
16
Frame=5 idx=007602 GeodesicLength=0.5262405659960958 rxn_smarts="[C:1]([C@@:2]1([H:11])[N:3]([H:12])[C@:4]1([C:5]([C:6](=[O:7])[H:16])([H:14])[H:15])[H:13])([H:8])([H:9])[H:10]>>[C:1](/[C:2](=[N:3]/[C:4]([C:5]([C:6](=[O:7])[H:16])([H:14])[H:15])([H:12])[H:13])[H:11])([H:8])([H:9])[H:10]"
C       -1.36739721      -0.22854381       1.26788749
C       -1.39365973       0.14203475      -0.19890662
N       -1.24411283       1.42152389      -0.59352359
C        0.00525872       0.45295738      -1.06771945
C        1.30115658       0.44038157      -0.29044239
C        1.77344079      -0.93093125       0.10990562
O        1.26196658      -1.96168151      -0.23115226
H       -0.76667114       0.46928851       1.85035232
H       -2.39078267      -0.18443133       1.64709766
H       -1.00745884      -1.24817231       1.41724857
H       -1.98644103      -0.56029503      -0.80288092
H       -0.18230383       1.47063530      -1.66998568
H       -0.05803086      -0.28061857      -1.86965969
H        1.24020775       1.05876771       0.60871119
H        2.10814454       0.88185999      -0.88775056
H        2.70668317      -0.94277528       0.71081831
16
Frame=6 idx=007602 GeodesicLength=0.6318727874632413 rxn_smarts="[C:1]([C@@:2]1([H:11])[N:3]([H:12])[C@:4]1([C:5]([C:6](=[O:7])[H:16])([H:14])[H:15])[H:13])([H:8])([H:9])[H:10]>>[C:1](/[C:2](=[N:3]/[C:4]([C:5]([C:6](=[O:7])[H:16])([H:14])[H:15])([H:12])[H:13])[H:11])([H:8])([H:9])[H:10]"
C       -1.39183107      -0.23291719       1.27716194
C       -1.39405828       0.13515320      -0.18910528
N       -1.21086229       1.41196680      -0.57932898
C        0.01283970       0.45297417      -1.06703403
C        1.31442774       0.44328610      -0.29976348
C        1.78608001      -0.92654285       0.10611267
O        1.27203269      -1.95878865      -0.22670336
H       -0.78888628       0.45800323       1.86562293
H       -2.41889581      -0.17826158       1.64521225
H       -1.04396946      -1.25609849       1.43162067
H       -1.98676836      -0.55649239      -0.80400425
H       -0.20126737       1.47987509      -1.68099221
H       -0.05366144      -0.28059159      -1.86872911
H        1.26147908       1.06535491       0.59757361
H        2.11785380       0.88016744      -0.90521267
H        2.72548734      -0.93708821       0.69756928
16
Frame=7 idx=007602 GeodesicLength=0.7376279478148722 rxn_smarts="[C:1]([C@@:2]1([H:11])[N:3]([H:12])[C@:4]1([C:5]([C:6](=[O:7])[H:16])([H:14])[H:15])[H:13])([H:8])([H:9])[H:10]>>[C:1](/[C:2](=[N:3]/[C:4]([C:5]([C:6](=[O:7])[H:16])([H:14])[H:15])([H:12])[H:13])[H:11])([H:8])([H:9])[H:10]"
C       -1.41706375      -0.23691222       1.28643639
C       -1.39404115       0.12781460      -0.17912251
N       -1.17791538       1.40128401      -0.56469724
C        0.02094882       0.45290858      -1.06622884
C        1.32834413       0.44604763      -0.30939958
C        1.79946230      -0.92229148       0.10179509
O        1.28230892      -1.95590355      -0.22210944
H       -0.81236905       0.44721103       1.88106480
H       -2.44782863      -0.17144421       1.64250424
H       -1.08160055      -1.26348148       1.44647704
H       -1.98625013      -0.55326556      -0.80487621
H       -0.22173760       1.48972109      -1.69012453
H       -0.04890982      -0.28013475      -1.86809226
H        1.28375070       1.07190285       0.58596794
H        2.12792388       0.87825537      -0.92325424
H        2.74497730      -0.93171191       0.68365936
16
Frame=8 idx=007602 GeodesicLength=0.8435094928921862 rxn_smarts="[C:1]([C@@:2]1([H:11])[N:3]([H:12])[C@:4]1([C:5]([C:6](=[O:7])[H:16])([H:14])[H:15])[H:13])([H:8])([H:9])[H:10]>>[C:1](/[C:2](=[N:3]/[C:4]([C:5]([C:6](=[O:7])[H:16])([H:14])[H:15])([H:12])[H:13])[H:11])([H:8])([H:9])[H:10]"
C       -1.44313920      -0.24049572       1.29569902
C       -1.39357246       0.11996011      -0.16891710
N       -1.14523687       1.38945608      -0.54960805
C        0.02959531       0.45273317      -1.06530345
C        1.34292155       0.44865798      -0.31938018
C        1.81363158      -0.91818416       0.09690940
O        1.29287129      -1.95302785      -0.21740563
H       -0.83720926       0.43698396       1.89668106
H       -2.47761297      -0.16394910       1.63887192
H       -1.12041685      -1.27027730       1.46183657
H       -1.98486107      -0.55067573      -0.80545670
H       -0.24374860       1.50019129      -1.69717619
H       -0.04378767      -0.27926007      -1.86775766
H        1.30703236       1.07839417       0.57385729
H        2.13834459       0.87613331      -0.94190597
H        2.76518825      -0.92664015       0.66905567
16
Frame=9 idx=007602 GeodesicLength=0.9488892708722462 rxn_smarts="[C:1]([C@@:2]1([H:11])[N:3]([H:12])[C@:4]1([C:5]([C:6](=[O:7])[H:16])([H:14])[H:15])[H:13])([H:8])([H:9])[H:10]>>[C:1](/[C:2](=[N:3]/[C:4]([C:5]([C:6](=[O:7])[H:16])([H:14])[H:15])([H:12])[H:13])[H:11])([H:8])([H:9])[H:10]"
C       -1.47017091      -0.24367334       1.30492078
C       -1.39259014       0.11156230      -0.15830056
N       -1.11274367       1.37647938      -0.53402795
C        0.03873579       0.45254703      -1.06420491
C        1.35816839       0.45116610      -0.32975232
C        1.82864219      -0.91418577       0.09132389
O        1.30382553      -1.95010642      -0.21271369
H       -0.86362570       0.42738583       1.91245387
H       -2.50832317      -0.15576729       1.63416239
H       -1.16062649      -1.27650578       1.47770176
H       -1.98253439      -0.54874066      -0.80557821
H       -0.26698029       1.51085445      -1.70198293
H       -0.03840904      -0.27791320      -1.86758522
H        1.33137231       1.08485238       0.56120237
H        2.14907724       0.87387234      -0.96122973
H        2.78618233      -0.92182735       0.65361048
16
Frame=10 idx=007602 GeodesicLength=1.054437659547763 rxn_smarts="[C:1]([C@@:2]1([H:11])[N:3]([H:12])[C@:4]1([C:5]([C:6](=[O:7])[H:16])([H:14])[H:15])[H:13])([H:8])([H:9])[H:10]>>[C:1](/[C:2](=[N:3]/[C:4]([C:5]([C:6](=[O:7])[H:16])([H:14])[H:15])([H:12])[H:13])[H:11])([H:8])([H:9])[H:10]"
C       -1.49814628      -0.24637416       1.31409148
C       -1.39106552       0.10250189      -0.14735646
N       -1.08043924       1.36229427      -0.51793087
C        0.04842810       0.45220047      -1.06297527
C        1.37410133       0.45350558      -0.34052672
C        1.84453267      -0.91034321       0.08506192
O        1.31520460      -1.94719433      -0.20797044
H       -0.89164349       0.41852424       1.92837950
H       -2.53994060      -0.14685745       1.62828530
H       -1.20215969      -1.28202273       1.49414537
H       -1.97926508      -0.54758372      -0.80531244
H       -0.29177506       1.52216864      -1.70425921
H       -0.03269171      -0.27615327      -1.86772627
H        1.35673324       1.09121346       0.54797642
H        2.16012924       0.87142577      -0.98122385
H        2.80799750      -0.91730544       0.63734154
16
Frame=11 idx=007602 GeodesicLength=1.160164041379062 rxn_smarts="[C:1]([C@@:2]1([H:11])[N:3]([H:12])[C@:4]1([C:5]([C:6](=[O:7])[H:16])([H:14])[H:15])[H:13])([H:8])([H:9])[H:10]>>[C:1](/[C:2](=[N:3]/[C:4]([C:5]([C:6](=[O:7])[H:16])([H:14])[H:15])([H:12])[H:13])[H:11])([H:8])([H:9])[H:10]"
C       -1.52712256      -0.24855046       1.32318912
C       -1.38895049       0.09268391      -0.13603467
N       -1.04827917       1.34685050      -0.50128170
C        0.05867788       0.45166933      -1.06160903
C        1.39072773       0.45566522      -0.35172810
C        1.86135553      -0.90666662       0.07805942
O        1.32708175      -1.94429335      -0.20322349
H       -0.92140162       0.41051873       1.94443648
H       -2.57250636      -0.13717887       1.62110040
H       -1.24508222      -1.28674837       1.51122096
H       -1.97499920      -0.54730772      -0.80460689
H       -0.31814181       1.53414477      -1.70373299
H       -0.02664719      -0.27397481      -1.86819248
H        1.38311068       1.09744726       0.53415581
H        2.17147780       0.86881550      -1.00190744
H        2.83069927      -0.91307503       0.62015461
16
Frame=12 idx=007602 GeodesicLength=1.2660835651396298 rxn_smarts="[C:1]([C@@:2]1([H:11])[N:3]([H:12])[C@:4]1([C:5]([C:6](=[O:7])[H:16])([H:14])[H:15])[H:13])([H:8])([H:9])[H:10]>>[C:1](/[C:2](=[N:3]/[C:4]([C:5]([C:6](=[O:7])[H:16])([H:14])[H:15])([H:12])[H:13])[H:11])([H:8])([H:9])[H:10]"
C       -1.55716644      -0.25015086       1.33217874
C       -1.38618895       0.08200657      -0.12426568
N       -1.01621276       1.33008532      -0.48404403
C        0.06948751       0.45092920      -1.06009468
C        1.40805377       0.45763556      -0.36338453
C        1.87916651      -0.90317094       0.07023266
O        1.33953469      -1.94140665      -0.19851926
H       -0.95308370       0.40352859       1.96059128
H       -2.60606013      -0.12672264       1.61242172
H       -1.28946043      -1.29056653       1.52900883
H       -1.96967043      -0.54802833      -0.80339154
H       -0.34606440       1.54679161      -1.70008362
H       -0.02029655      -0.27137307      -1.86898690
H        1.41050116       1.10350894       0.51972363
H        2.18309412       0.86607312      -1.02330363
H        2.85436603      -0.90913990       0.60191701
16
Frame=13 idx=007602 GeodesicLength=1.3722322922742463 rxn_smarts="[C:1]([C@@:2]1([H:11])[N:3]([H:12])[C@:4]1([C:5]([C:6](=[O:7])[H:16])([H:14])[H:15])[H:13])([H:8])([H:9])[H:10]>>[C:1](/[C:2](=[N:3]/[C:4]([C:5]([C:6](=[O:7])[H:16])([H:14])[H:15])([H:12])[H:13])[H:11])([H:8])([H:9])[H:10]"
C       -1.58833929      -0.25109922       1.34103520
C       -1.38272008       0.07034766      -0.11197918
N       -0.98418569       1.31192351      -0.46617932
C        0.08085967       0.44995309      -1.05841996
C        1.42608226       0.45940138      -0.37551999
C        1.89802439      -0.89987708       0.06148294
O        1.35265518      -1.93854259      -0.19394056
H       -0.98688586       0.39775172       1.97679949
H       -2.64064780      -0.11547676       1.60205431
H       -1.33533632      -1.29334585       1.54758898
H       -1.96320399      -0.54989027      -0.80160205
H       -0.37553466       1.56011615      -1.69295940
H       -0.01366272      -0.26833315      -1.87011613
H        1.43888990       1.10934489       0.50467118
H        2.19494400       0.86323834      -1.04542238
H        2.87906101      -0.90551183       0.58250687
16
Frame=14 idx=007602 GeodesicLength=1.4785879028690878 rxn_smarts="[C:1]([C@@:2]1([H:11])[N:3]([H:12])[C@:4]1([C:5]([C:6](=[O:7])[H:16])([H:14])[H:15])[H:13])([H:8])([H:9])[H:10]>>[C:1](/[C:2](=[N:3]/[C:4]([C:5]([C:6](=[O:7])[H:16])([H:14])[H:15])([H:12])[H:13])[H:11])([H:8])([H:9])[H:10]"
C       -1.62072999      -0.25132350       1.34970417
C       -1.37847240       0.05758053      -0.09906405
N       -0.95215313       1.29228071      -0.44763431
C        0.09278970       0.44870825      -1.05655851
C        1.44481309       0.46095324      -0.38815955
C        1.91799872      -0.89680816       0.05170288
O        1.36656453      -1.93571813      -0.18958648
H       -1.02304800       0.39343122       1.99300148
H       -2.67632821      -0.10343776       1.58974505
H       -1.38278360      -1.29494530       1.56705062
H       -1.95551690      -0.55303408      -0.79913115
H       -0.40647899       1.57409392      -1.68195777
H       -0.00678689      -0.26485626      -1.87155970
H        1.46826135       1.11490241       0.48899623
H        2.20698077       0.86036722      -1.06828390
H        2.90488993      -0.90219431       0.56173497
16
Frame=15 idx=007602 GeodesicLength=1.5851664305836384 rxn_smarts="[C:1]([C@@:2]1([H:11])[N:3]([H:12])[C@:4]1([C:5]([C:6](=[O:7])[H:16])([H:14])[H:15])[H:13])([H:8])([H:9])[H:10]>>[C:1](/[C:2](=[N:3]/[C:4]([C:5]([C:6](=[O:7])[H:16])([H:14])[H:15])([H:12])[H:13])[H:11])([H:8])([H:9])[H:10]"
C       -1.65442201      -0.25073301       1.35812910
C       -1.37336754       0.04355532      -0.08540397
N       -0.92005981       1.27105701      -0.42835252
C        0.10527170       0.44716078      -1.05447990
C        1.46424241       0.46227670      -0.40132603
C        1.93916088      -0.89399404       0.04075935
O        1.38139286      -1.93295647      -0.18559122
H       -1.06184767       0.39087213       2.00911842
H       -2.71316443      -0.09061766       1.57521294
H       -1.43184254      -1.29519608       1.58750687
H       -1.94650629      -0.55763525      -0.79587004
H       -0.43882645       1.58870236      -1.66662772
H        0.00028517      -0.26093080      -1.87329755
H        1.49859182       1.12011233       0.47270870
H        2.21915025       0.85752764      -1.09189663
H        2.93194165      -0.89920097       0.53941019
16
Frame=16 idx=007602 GeodesicLength=1.6919910762541974 rxn_smarts="[C:1]([C@@:2]1([H:11])[N:3]([H:12])[C@:4]1([C:5]([C:6](=[O:7])[H:16])([H:14])[H:15])[H:13])([H:8])([H:9])[H:10]>>[C:1](/[C:2](=[N:3]/[C:4]([C:5]([C:6](=[O:7])[H:16])([H:14])[H:15])([H:12])[H:13])[H:11])([H:8])([H:9])[H:10]"
C       -1.68951199      -0.24922039       1.36623751
C       -1.36731412       0.02810724      -0.07084494
N       -0.88783999       1.24813773      -0.40825862
C        0.11829372       0.44527138      -1.05213878
C        1.48436287       0.46335843      -0.41504105
C        1.96158887      -0.89146803       0.02849442
O        1.39729987      -1.93029089      -0.18212829
H       -1.10360286       0.39044865       2.02504625
H       -2.75122332      -0.07704434       1.55810689
H       -1.48255918      -1.29390999       1.60908501
H       -1.93605259      -0.56389041      -0.79168228
H       -0.47248673       1.60389282      -1.64645844
H        0.00749098      -0.25654705      -1.87529127
H        1.52985657       1.12489377       0.45583180
H        2.23138548       0.85480497      -1.11626691
H        2.96031242      -0.89654388       0.51530868
