12
Frame=0 idx=005849 GeodesicLength=0.0 rxn_smarts="[O:1]([C@@:2]1([H:8])[C:3]([H:9])([H:10])[C@:4]1([C:5]#[C:6][H:12])[H:11])[H:7]>>[O:1]([C:2][C:3]([C:4]([C:5]#[C:6][H:12])([H:8])[H:11])([H:9])[H:10])[H:7]"
O       -1.34021439       1.39232025      -0.30328962
C       -1.49452398       0.25742523       0.39186868
C       -0.88495511      -0.96649627      -0.23879984
C        0.23229875      -0.55798543       0.69233664
C        1.32509121       0.17407746       0.13463447
C        2.19760588       0.83780640      -0.35294024
H       -0.87377382       1.26767999      -1.14253420
H       -0.59985354       0.23088043       1.37834126
H       -0.64574667      -0.90047653      -1.29903632
H       -1.36735522      -1.90548446       0.00933592
H        0.46172307      -1.23996281       1.50449751
H        2.98970385       1.41021574      -0.77441422
12
Frame=1 idx=005849 GeodesicLength=0.046530333913747834 rxn_smarts="[O:1]([C@@:2]1([H:8])[C:3]([H:9])([H:10])[C@:4]1([C:5]#[C:6][H:12])[H:11])[H:7]>>[O:1]([C:2][C:3]([C:4]([C:5]#[C:6][H:12])([H:8])[H:11])([H:9])[H:10])[H:7]"
O       -1.36137811       1.39002487      -0.31540955
C       -1.49057561       0.25836218       0.38822271
C       -0.88165293      -0.96561428      -0.23921058
C        0.23214272      -0.55425634       0.69582886
C        1.32653197       0.17892084       0.13970880
C        2.20225966       0.83614835      -0.35063228
H       -0.87546802       1.27848533      -1.14530101
H       -0.60691790       0.22548010       1.39779216
H       -0.64064172      -0.90003420      -1.29916081
H       -1.36819970      -1.90166887       0.01256796
H        0.46917563      -1.24746805       1.49628923
H        2.99472400       1.40162006      -0.78069551
12
Frame=2 idx=005849 GeodesicLength=0.09303843943984982 rxn_smarts="[O:1]([C@@:2]1([H:8])[C:3]([H:9])([H:10])[C@:4]1([C:5]#[C:6][H:12])[H:11])[H:7]>>[O:1]([C:2][C:3]([C:4]([C:5]#[C:6][H:12])([H:8])[H:11])([H:9])[H:10])[H:7]"
O       -1.38267226       1.38718608      -0.32829494
C       -1.48611805       0.25981838       0.38466703
C       -0.87854326      -0.96468467      -0.23942431
C        0.23212345      -0.55067568       0.69924412
C        1.32815909       0.18331409       0.14434529
C        2.20690794       0.83407553      -0.34894545
H       -0.87704490       1.28956512      -1.14801265
H       -0.61377985       0.21967126       1.41727120
H       -0.63586110      -0.89987105      -1.29913615
H       -1.36954706      -1.89753396       0.01626912
H        0.47678618      -1.25487251       1.48783109
H        2.99958981       1.39400739      -0.78581434
12
Frame=3 idx=005849 GeodesicLength=0.13946464148944432 rxn_smarts="[O:1]([C@@:2]1([H:8])[C:3]([H:9])([H:10])[C@:4]1([C:5]#[C:6][H:12])[H:11])[H:7]>>[O:1]([C:2][C:3]([C:4]([C:5]#[C:6][H:12])([H:8])[H:11])([H:9])[H:10])[H:7]"
O       -1.40397175       1.38374879      -0.34202040
C       -1.48105051       0.26185991       0.38119897
C       -0.87569840      -0.96371677      -0.23939043
C        0.23225348      -0.54730830       0.70253100
C        1.33000240       0.18702985       0.14835635
C        2.21151570       0.83141111      -0.34811303
H       -0.87844062       1.30090728      -1.15069462
H       -0.62031735       0.21350007       1.43672555
H       -0.63154625      -0.90009011      -1.29893670
H       -1.37152010      -1.89300443       0.02058689
H        0.48453117      -1.26218868       1.47912980
H        3.00424223       1.38785130      -0.78937337
12
Frame=4 idx=005849 GeodesicLength=0.18586206766688643 rxn_smarts="[O:1]([C@@:2]1([H:8])[C:3]([H:9])([H:10])[C@:4]1([C:5]#[C:6][H:12])[H:11])[H:7]>>[O:1]([C:2][C:3]([C:4]([C:5]#[C:6][H:12])([H:8])[H:11])([H:9])[H:10])[H:7]"
O       -1.42579536       1.37958171      -0.35630477
C       -1.47570311       0.26413519       0.37766943
C       -0.87264535      -0.96261844      -0.23939587
C        0.23243058      -0.54388779       0.70602659
C        1.33189370       0.19102153       0.15281311
C        2.21595326       0.82948394      -0.34652544
H       -0.87986181       1.31300132      -1.15282726
H       -0.62728418       0.20660751       1.45635789
H       -0.62677946      -0.90013266      -1.29871232
H       -1.37336839      -1.88829921       0.02470127
H        0.49224196      -1.26932376       1.47038712
H        3.00891817       1.38043065      -0.79418974
12
Frame=5 idx=005849 GeodesicLength=0.23218320258343983 rxn_smarts="[O:1]([C@@:2]1([H:8])[C:3]([H:9])([H:10])[C@:4]1([C:5]#[C:6][H:12])[H:11])[H:7]>>[O:1]([C:2][C:3]([C:4]([C:5]#[C:6][H:12])([H:8])[H:11])([H:9])[H:10])[H:7]"
O       -1.44749052       1.37472350      -0.37150972
C       -1.46968600       0.26710358       0.37419816
C       -0.86993923      -0.96150775      -0.23910946
C        0.23278891      -0.54073619       0.70935309
C        1.33410127       0.19412802       0.15649735
C        2.22042673       0.82677410      -0.34597935
H       -0.88117019       1.32540215      -1.15490264
H       -0.63383325       0.19941511       1.47588157
H       -0.62259137      -0.90069945      -1.29827709
H       -1.37600646      -1.88314491       0.02956003
H        0.50005489      -1.27640222       1.46141027
H        3.01334524       1.37494404      -0.79712220
12
Frame=6 idx=005849 GeodesicLength=0.27845771457039686 rxn_smarts="[O:1]([C@@:2]1([H:8])[C:3]([H:9])([H:10])[C@:4]1([C:5]#[C:6][H:12])[H:11])[H:7]>>[O:1]([C:2][C:3]([C:4]([C:5]#[C:6][H:12])([H:8])[H:11])([H:9])[H:10])[H:7]"
O       -1.46948214       1.36901942      -0.38742430
C       -1.46323569       0.27046640       0.37065761
C       -0.86718765      -0.96030296      -0.23875471
C        0.23324540      -0.53762605       0.71277045
C        1.33644381       0.19712952       0.16022430
C        2.22473608       0.82435990      -0.34530756
H       -0.88257374       1.33854696      -1.15647979
H       -0.64056274       0.19161967       1.49544815
H       -0.61826174      -0.90133421      -1.29775830
H       -1.37879050      -1.87770002       0.03453985
H        0.50785552      -1.28331710       1.45237008
H        3.01781337       1.36913847      -0.80028580
12
Frame=7 idx=005849 GeodesicLength=0.3247705434884263 rxn_smarts="[O:1]([C@@:2]1([H:8])[C:3]([H:9])([H:10])[C@:4]1([C:5]#[C:6][H:12])[H:11])[H:7]>>[O:1]([C:2][C:3]([C:4]([C:5]#[C:6][H:12])([H:8])[H:11])([H:9])[H:10])[H:7]"
O       -1.49091445       1.36265847      -0.40444171
C       -1.45585132       0.27484545       0.36720612
C       -0.86520004      -0.95923062      -0.23786815
C        0.23398255      -0.53501302       0.71575638
C        1.33934670       0.19841706       0.16227770
C        2.22939597       0.81986351      -0.34712578
H       -0.88384291       1.35180739      -1.15834602
H       -0.64628554       0.18391973       1.51471071
H       -0.61524601      -0.90308984      -1.29690644
H       -1.38305143      -1.87166726       0.04097926
H        0.51574464      -1.29031501       1.44300476
H        3.02192184       1.36780414      -0.79924683
12
Frame=8 idx=005849 GeodesicLength=0.3708804932025026 rxn_smarts="[O:1]([C@@:2]1([H:8])[C:3]([H:9])([H:10])[C@:4]1([C:5]#[C:6][H:12])[H:11])[H:7]>>[O:1]([C:2][C:3]([C:4]([C:5]#[C:6][H:12])([H:8])[H:11])([H:9])[H:10])[H:7]"
O       -1.51275089       1.35515750      -0.42210911
C       -1.44812750       0.27941330       0.36350276
C       -0.86285066      -0.95795528      -0.23706820
C        0.23476542      -0.53227170       0.71901001
C        1.34221827       0.20002560       0.16493230
C        2.23381961       0.81604579      -0.34804168
H       -0.88552036       1.36625565      -1.15923457
H       -0.65256608       0.17544017       1.53398660
H       -0.61157087      -0.90456730      -1.29602461
H       -1.38693701      -1.86532837       0.04711186
H        0.52353443      -1.29697417       1.43376209
H        3.02598565       1.36475880      -0.79982745
12
Frame=9 idx=005849 GeodesicLength=0.4171293028689906 rxn_smarts="[O:1]([C@@:2]1([H:8])[C:3]([H:9])([H:10])[C@:4]1([C:5]#[C:6][H:12])[H:11])[H:7]>>[O:1]([C:2][C:3]([C:4]([C:5]#[C:6][H:12])([H:8])[H:11])([H:9])[H:10])[H:7]"
O       -1.53477045       1.34669604      -0.44033199
C       -1.44012872       0.28429428       0.35958758
C       -0.86029327      -0.95663570      -0.23632945
C        0.23558482      -0.52950495       0.72252709
C        1.34532232       0.20176375       0.16806247
C        2.23829870       0.81300150      -0.34810992
H       -0.88756856       1.38187827      -1.15925340
H       -0.65950017       0.16630474       1.55331401
H       -0.60730062      -0.90607346      -1.29515505
H       -1.39081124      -1.85886568       0.05302802
H        0.53111020      -1.30345237       1.42467554
H        3.03005700       1.36059359      -0.80201491
12
Frame=10 idx=005849 GeodesicLength=0.46320083226262093 rxn_smarts="[O:1]([C@@:2]1([H:8])[C:3]([H:9])([H:10])[C@:4]1([C:5]#[C:6][H:12])[H:11])[H:7]>>[O:1]([C:2][C:3]([C:4]([C:5]#[C:6][H:12])([H:8])[H:11])([H:9])[H:10])[H:7]"
O       -1.55701706       1.33729149      -0.45858504
C       -1.43209564       0.28903522       0.35522171
C       -0.85672635      -0.95496154      -0.23607522
C        0.23630298      -0.52641627       0.72683355
C        1.34834736       0.20480688       0.17338082
C        2.24193886       0.81377466      -0.34415541
H       -0.89040661       1.39891610      -1.15801402
H       -0.66817344       0.15565223       1.57288050
H       -0.60101110      -0.90657610      -1.29446218
H       -1.39349565      -1.85233392       0.05743317
H        0.53837279      -1.30966153       1.41600689
H        3.03396386       1.35047279      -0.81046477
12
Frame=11 idx=005849 GeodesicLength=0.5091653200155711 rxn_smarts="[O:1]([C@@:2]1([H:8])[C:3]([H:9])([H:10])[C@:4]1([C:5]#[C:6][H:12])[H:11])[H:7]>>[O:1]([C:2][C:3]([C:4]([C:5]#[C:6][H:12])([H:8])[H:11])([H:9])[H:10])[H:7]"
O       -1.57805087       1.32698261      -0.47816972
C       -1.42280307       0.29503331       0.35079418
C       -0.85427913      -0.95350075      -0.23502914
C        0.23740711      -0.52395728       0.73038745
C        1.35202735       0.20520882       0.17595795
C        2.24658790       0.80973637      -0.34480132
H       -0.89360534       1.41613504      -1.15711155
H       -0.67511399       0.14572054       1.59167495
H       -0.59683794      -0.90876609      -1.29325158
H       -1.39813597      -1.84488534       0.06411374
H        0.54567662      -1.31585832       1.40704498
H        3.03712733       1.34815110      -0.81160995
12
Frame=12 idx=005849 GeodesicLength=0.5551672236280386 rxn_smarts="[O:1]([C@@:2]1([H:8])[C:3]([H:9])([H:10])[C@:4]1([C:5]#[C:6][H:12])[H:11])[H:7]>>[O:1]([C:2][C:3]([C:4]([C:5]#[C:6][H:12])([H:8])[H:11])([H:9])[H:10])[H:7]"
O       -1.59841347       1.31591183      -0.49813041
C       -1.41300636       0.30148976       0.34604254
C       -0.85177634      -0.95202185      -0.23393177
C        0.23860247      -0.52160954       0.73408647
C        1.35607302       0.20513869       0.17858311
C        2.25149085       0.80559125      -0.34518712
H       -0.89757918       1.43424120      -1.15571935
H       -0.68241512       0.13537532       1.61026058
H       -0.59239510      -0.91126596      -1.29196098
H       -1.40305196      -1.83710145       0.07090360
H        0.55269308      -1.32195075       1.39828722
H        3.03977811       1.34620150      -0.81323389
12
Frame=13 idx=005849 GeodesicLength=0.6011344689305766 rxn_smarts="[O:1]([C@@:2]1([H:8])[C:3]([H:9])([H:10])[C@:4]1([C:5]#[C:6][H:12])[H:11])[H:7]>>[O:1]([C:2][C:3]([C:4]([C:5]#[C:6][H:12])([H:8])[H:11])([H:9])[H:10])[H:7]"
O       -1.61804718       1.30407850      -0.51832250
C       -1.40279276       0.30824717       0.34088321
C       -0.84900120      -0.95045693      -0.23289334
C        0.23983777      -0.51926865       0.73806228
C        1.36038119       0.20490038       0.18168111
C        2.25657784       0.80169181      -0.34471222
H       -0.90252309       1.45335647      -1.15363825
H       -0.69036257       0.12448047       1.62861454
H       -0.58732122      -0.91381789      -1.29062972
H       -1.40790433      -1.82901567       0.07746821
H        0.55937606      -1.32784681       1.38985493
H        3.04177950       1.34365114      -0.81636825
12
Frame=14 idx=005849 GeodesicLength=0.6470820855549885 rxn_smarts="[O:1]([C@@:2]1([H:8])[C:3]([H:9])([H:10])[C@:4]1([C:5]#[C:6][H:12])[H:11])[H:7]>>[O:1]([C:2][C:3]([C:4]([C:5]#[C:6][H:12])([H:8])[H:11])([H:9])[H:10])[H:7]"
O       -1.63660782       1.29165048      -0.53870717
C       -1.39202238       0.31542849       0.33533311
C       -0.84617803      -0.94887209      -0.23178604
C        0.24116979      -0.51705531       0.74215015
C        1.36506142       0.20400808       0.18472704
C        2.26202361       0.79719307      -0.34421420
H       -0.90849758       1.47319612      -1.15119998
H       -0.69858931       0.11331169       1.64660577
H       -0.58206180      -0.91671814      -1.28918944
H       -1.41303047      -1.82052111       0.08418790
H        0.56573186      -1.33361245       1.38169964
H        3.04300072       1.34199116      -0.81960679
12
Frame=15 idx=005849 GeodesicLength=0.693019727786148 rxn_smarts="[O:1]([C@@:2]1([H:8])[C:3]([H:9])([H:10])[C@:4]1([C:5]#[C:6][H:12])[H:11])[H:7]>>[O:1]([C:2][C:3]([C:4]([C:5]#[C:6][H:12])([H:8])[H:11])([H:9])[H:10])[H:7]"
O       -1.65405107       1.27872677      -0.55910829
C       -1.38078700       0.32290703       0.32935513
C       -0.84316065      -0.94724152      -0.23069727
C        0.24255966      -0.51489916       0.74644506
C        1.37007132       0.20269028       0.18802735
C        2.26781167       0.79242473      -0.34323290
H       -0.91563819       1.49378246      -1.14832334
H       -0.70732418       0.10179778       1.66423843
H       -0.57635478      -0.91979749      -1.28768749
H       -1.41820750      -1.81168782       0.09080030
H        0.57171995      -1.33920389       1.37391135
H        3.04336078       1.34050083      -0.82372832
12
Frame=16 idx=005849 GeodesicLength=0.7389592156433312 rxn_smarts="[O:1]([C@@:2]1([H:8])[C:3]([H:9])([H:10])[C@:4]1([C:5]#[C:6][H:12])[H:11])[H:7]>>[O:1]([C:2][C:3]([C:4]([C:5]#[C:6][H:12])([H:8])[H:11])([H:9])[H:10])[H:7]"
O       -1.67025955       1.26544071      -0.57941621
C       -1.36908382       0.33065308       0.32294627
C       -0.83995371      -0.94557585      -0.22962750
C        0.24400854      -0.51280589       0.75093349
C        1.37542683       0.20089695       0.19155270
C        2.27397609       0.78728764      -0.34182860
H       -0.92400885       1.51499782      -1.14509400
H       -0.71654530       0.09000815       1.68147402
H       -0.57022958      -0.92306830      -1.28612522
H       -1.42343682      -1.80251772       0.09729987
H        0.57732769      -1.34462678       1.36651153
H        3.04277847       1.33931021      -0.82862634
