14
Frame=0 idx=008272 GeodesicLength=0.0 rxn_smarts="[C:1]([C@@:2]1([H:11])[C:3]([H:12])([H:13])[N:4]([H:14])[C:5](=[O:6])[O:7]1)([H:8])([H:9])[H:10]>>[C:1]([C@@:2](/[C:3](=[N:4]/[H:14])[H:13])([O:7][C:5](=[O:6])[H:12])[H:11])([H:8])([H:9])[H:10]"
C       -1.62291705      -0.84597655      -0.11312124
C       -0.32215633      -0.29675866      -0.65411506
C        0.11510779       1.05010353      -0.15301247
N        1.44330572       1.12310750      -0.26092491
C        1.50585307      -0.21408295       0.56987684
O        2.49316532      -0.50148821       1.19584193
O        0.79762105      -1.07581516      -0.30870959
H       -1.57415773      -0.94556105       0.97110600
H       -1.80312665      -1.83111995      -0.54203432
H       -2.45937590      -0.19590847      -0.37908048
H       -0.36127172      -0.21286191      -1.74943425
H        0.43302678       0.14676777       1.28892951
H       -0.55133272       1.90610096      -0.06485683
H        1.90625839       1.89349320       0.19953487
14
Frame=1 idx=008272 GeodesicLength=0.08329213502584465 rxn_smarts="[C:1]([C@@:2]1([H:11])[C:3]([H:12])([H:13])[N:4]([H:14])[C:5](=[O:6])[O:7]1)([H:8])([H:9])[H:10]>>[C:1]([C@@:2](/[C:3](=[N:4]/[H:14])[H:13])([O:7][C:5](=[O:6])[H:12])[H:11])([H:8])([H:9])[H:10]"
C       -1.61739593      -0.84743353      -0.10953632
C       -0.32152165      -0.29189680      -0.65672417
C        0.11015697       1.05541982      -0.14608496
N        1.43987932       1.13080570      -0.24901344
C        1.50854173      -0.23069968       0.57483033
O        2.49620742      -0.53486025       1.19107129
O        0.79995278      -1.07403174      -0.31547276
H       -1.56430816      -0.94900985       0.97438495
H       -1.79678829      -1.83256625      -0.53889548
H       -2.45747529      -0.19973307      -0.36955646
H       -0.36641579      -0.20851603      -1.75114997
H        0.42228136       0.16091522       1.29393326
H       -0.55442631       1.91636808      -0.10351028
H        1.90131184       1.90523836       0.20572400
14
Frame=2 idx=008272 GeodesicLength=0.1665655793351244 rxn_smarts="[C:1]([C@@:2]1([H:11])[C:3]([H:12])([H:13])[N:4]([H:14])[C:5](=[O:6])[O:7]1)([H:8])([H:9])[H:10]>>[C:1]([C@@:2](/[C:3](=[N:4]/[H:14])[H:13])([O:7][C:5](=[O:6])[H:12])[H:11])([H:8])([H:9])[H:10]"
C       -1.61180660      -0.84885312      -0.10596403
C       -0.32088029      -0.28688890      -0.65923121
C        0.10494357       1.06097702      -0.13909890
N        1.43624342       1.13856364      -0.23679853
C        1.51098560      -0.24750738       0.57995053
O        2.49892120      -0.56847002       1.18598239
O        0.80236788      -1.07201639      -0.32226163
H       -1.55443638      -0.95243195       0.97763141
H       -1.79029341      -1.83397384      -0.53580511
H       -2.45548523      -0.20357140      -0.36003621
H       -0.37158560      -0.20416026      -1.75275269
H        0.41134009       0.17526517       1.29906214
H       -0.55640399       1.92559066      -0.14209498
H        1.89608975       1.91747676       0.21141683
14
Frame=3 idx=008272 GeodesicLength=0.24982199595056848 rxn_smarts="[C:1]([C@@:2]1([H:11])[C:3]([H:12])([H:13])[N:4]([H:14])[C:5](=[O:6])[O:7]1)([H:8])([H:9])[H:10]>>[C:1]([C@@:2](/[C:3](=[N:4]/[H:14])[H:13])([O:7][C:5](=[O:6])[H:12])[H:11])([H:8])([H:9])[H:10]"
C       -1.60614782      -0.85023070      -0.10242622
C       -0.32022001      -0.28175399      -0.66165514
C        0.09948395       1.06677013      -0.13213238
N        1.43241196       1.14637272      -0.22431172
C        1.51318098      -0.26451398       0.58523623
O        2.50128632      -0.60230221       1.18058776
O        0.80486999      -1.06977824      -0.32904687
H       -1.54456244      -0.95577194       0.98083010
H       -1.78363313      -1.83535556      -0.53274709
H       -2.45339847      -0.20742883      -0.35058674
H       -0.37675135      -0.19985144      -1.75426443
H        0.40016288       0.18986834       1.30428812
H       -0.55728818       1.93375525      -0.18026909
H        1.89060531       1.93022044       0.21649747
14
Frame=4 idx=008272 GeodesicLength=0.33306385113515613 rxn_smarts="[C:1]([C@@:2]1([H:11])[C:3]([H:12])([H:13])[N:4]([H:14])[C:5](=[O:6])[O:7]1)([H:8])([H:9])[H:10]>>[C:1]([C@@:2](/[C:3](=[N:4]/[H:14])[H:13])([O:7][C:5](=[O:6])[H:12])[H:11])([H:8])([H:9])[H:10]"
C       -1.60041642      -0.85156327      -0.09894101
C       -0.31952739      -0.27651047      -0.66401174
C        0.09379756       1.07279010      -0.12524952
N        1.42839980       1.15422531      -0.21157430
C        1.51512774      -0.28173479       0.59068734
O        2.50328713      -0.63635269       1.17489933
O        0.80746512      -1.06732827      -0.33580252
H       -1.53470280      -0.95898331       0.98396932
H       -1.77679697      -1.83672356      -0.52970703
H       -2.45120774      -0.21131142      -0.34126656
H       -0.38188413      -0.19563597      -1.75570339
H        0.38871474       0.20476457       1.30958680
H       -0.55713043       1.94088661      -0.21774221
H        1.88487379       1.94347716       0.22085550
14
Frame=5 idx=008272 GeodesicLength=0.41629425213659893 rxn_smarts="[C:1]([C@@:2]1([H:11])[C:3]([H:12])([H:13])[N:4]([H:14])[C:5](=[O:6])[O:7]1)([H:8])([H:9])[H:10]>>[C:1]([C@@:2](/[C:3](=[N:4]/[H:14])[H:13])([O:7][C:5](=[O:6])[H:12])[H:11])([H:8])([H:9])[H:10]"
C       -1.59460772      -0.85284965      -0.09552208
C       -0.31878878      -0.27117408      -0.66631190
C        0.08790404       1.07902552      -0.11849505
N        1.42422009       1.16211635      -0.19859411
C        1.51682908      -0.29919184       0.59630424
O        2.50491276      -0.67062809       1.16892640
O        0.81016111      -1.06467721      -0.34250670
H       -1.52486990      -0.96203167       0.98704126
H       -1.76977294      -1.83808847      -0.52667378
H       -2.44890633      -0.21522576      -0.33212256
H       -0.38695719      -0.19154627      -1.75708196
H        0.37696536       0.21998055       1.31494044
H       -0.55600059       1.94703961      -0.25429195
H        1.87891101       1.95725102       0.22438776
14
Frame=6 idx=008272 GeodesicLength=0.49951872535300684 rxn_smarts="[C:1]([C@@:2]1([H:11])[C:3]([H:12])([H:13])[N:4]([H:14])[C:5](=[O:6])[O:7]1)([H:8])([H:9])[H:10]>>[C:1]([C@@:2](/[C:3](=[N:4]/[H:14])[H:13])([O:7][C:5](=[O:6])[H:12])[H:11])([H:8])([H:9])[H:10]"
C       -1.58871574      -0.85409048      -0.09217843
C       -0.31799094      -0.26575661      -0.66856080
C        0.08182088       1.08546430      -0.11189197
N        1.41988236       1.17004432      -0.18536403
C        1.51829144      -0.31691311       0.60208703
O        2.50615648      -0.70514499       1.16267562
O        0.81296751      -1.06183434      -0.34914193
H       -1.51507178      -0.96489656       0.99004220
H       -1.76254790      -1.83945898      -0.52364099
H       -2.44648831      -0.21917832      -0.32318805
H       -0.39194680      -0.18759967      -1.75840645
H        0.36488805       0.23552917       1.32034027
H       -0.55397693       1.95229164      -0.28976989
H        1.87273166       1.97154364       0.22699742
14
Frame=7 idx=008272 GeodesicLength=0.5827592570832993 rxn_smarts="[C:1]([C@@:2]1([H:11])[C:3]([H:12])([H:13])[N:4]([H:14])[C:5](=[O:6])[O:7]1)([H:8])([H:9])[H:10]>>[C:1]([C@@:2](/[C:3](=[N:4]/[H:14])[H:13])([O:7][C:5](=[O:6])[H:12])[H:11])([H:8])([H:9])[H:10]"
C       -1.58273430      -0.85528744      -0.08891607
C       -0.31712088      -0.26026630      -0.67076067
C        0.07556097       1.09209731      -0.10544747
N        1.41539177       1.17801169      -0.17186653
C        1.51952497      -0.33493254       0.60803730
O        2.50701809      -0.73992920       1.15615387
O        0.81589703      -1.05880999      -0.35569327
H       -1.50531514      -0.96756706       0.99297420
H       -1.75510626      -1.84084395      -0.52060706
H       -2.44395055      -0.22317333      -0.31448910
H       -0.39683018      -0.18380168      -1.75968302
H        0.35245678       0.25141460       1.32578890
H       -0.55114181       1.95673249      -0.32407598
H        1.86634950       1.98635539       0.22858492
14
Frame=8 idx=008272 GeodesicLength=0.666151338547374 rxn_smarts="[C:1]([C@@:2]1([H:11])[C:3]([H:12])([H:13])[N:4]([H:14])[C:5](=[O:6])[O:7]1)([H:8])([H:9])[H:10]>>[C:1]([C@@:2](/[C:3](=[N:4]/[H:14])[H:13])([O:7][C:5](=[O:6])[H:12])[H:11])([H:8])([H:9])[H:10]"
C       -1.57666197      -0.85644153      -0.08573143
C       -0.31616248      -0.25470241      -0.67291914
C        0.06911863       1.09892873      -0.09915456
N        1.41074957       1.18602869      -0.15807655
C        1.52056008      -0.35330440       0.61416482
O        2.50752967      -0.77504652       1.14938537
O        0.81899094      -1.05562333      -0.36215660
H       -1.49561075      -0.97005445       0.99586793
H       -1.74742343      -1.84225302      -0.51757700
H       -2.44131432      -0.22719877      -0.30603221
H       -0.40157919      -0.18013324      -1.76094347
H        0.33963552       0.26762484       1.33132213
H       -0.54759926       1.96048412      -0.35719500
H        1.85976700       2.00169130       0.22904571
14
Frame=9 idx=008272 GeodesicLength=0.7492074576438634 rxn_smarts="[C:1]([C@@:2]1([H:11])[C:3]([H:12])([H:13])[N:4]([H:14])[C:5](=[O:6])[O:7]1)([H:8])([H:9])[H:10]>>[C:1]([C@@:2](/[C:3](=[N:4]/[H:14])[H:13])([O:7][C:5](=[O:6])[H:12])[H:11])([H:8])([H:9])[H:10]"
C       -1.57047573      -0.85755576      -0.08266788
C       -0.31511297      -0.24908401      -0.67499764
C        0.06257206       1.10589506      -0.09303147
N        1.40596815       1.19407849      -0.14395591
C        1.52132873      -0.37197950       0.62043938
O        2.50757548      -0.81036485       1.14227407
O        0.82215465      -1.05221351      -0.36846838
H       -1.48597273      -0.97224774       0.99860570
H       -1.73949422      -1.84368791      -0.51450518
H       -2.43849339      -0.23135167      -0.29794056
H       -0.40618096      -0.17665064      -1.76205987
H        0.32641930       0.28420923       1.33682311
H       -0.54335076       1.96347872      -0.38877151
H        1.85306239       2.01747409       0.22825614
14
Frame=10 idx=008272 GeodesicLength=0.832514861492421 rxn_smarts="[C:1]([C@@:2]1([H:11])[C:3]([H:12])([H:13])[N:4]([H:14])[C:5](=[O:6])[O:7]1)([H:8])([H:9])[H:10]>>[C:1]([C@@:2](/[C:3](=[N:4]/[H:14])[H:13])([O:7][C:5](=[O:6])[H:12])[H:11])([H:8])([H:9])[H:10]"
C       -1.56418450      -0.85863834      -0.07966770
C       -0.31394812      -0.24337637      -0.67701270
C        0.05583511       1.11305673      -0.08698705
N        1.40102006       1.20221107      -0.12942891
C        1.52193445      -0.39109353       0.62688639
O        2.50727325      -0.84610932       1.13494485
O        0.82553528      -1.04863394      -0.37468614
H       -1.47637560      -0.97434254       1.00132996
H       -1.73129292      -1.84513634      -0.51147872
H       -2.43558026      -0.23552663      -0.29003753
H       -0.41060723      -0.17322346      -1.76314954
H        0.31273845       0.30107252       1.34246173
H       -0.53852133       1.96597613      -0.41929692
H        1.84617337       2.03376401       0.22612229
14
Frame=11 idx=008272 GeodesicLength=0.9156042486118491 rxn_smarts="[C:1]([C@@:2]1([H:11])[C:3]([H:12])([H:13])[N:4]([H:14])[C:5](=[O:6])[O:7]1)([H:8])([H:9])[H:10]>>[C:1]([C@@:2](/[C:3](=[N:4]/[H:14])[H:13])([O:7][C:5](=[O:6])[H:12])[H:11])([H:8])([H:9])[H:10]"
C       -1.55775895      -0.85969482      -0.07677294
C       -0.31267204      -0.23759586      -0.67891663
C        0.04897235       1.12035342      -0.08099488
N        1.39589566       1.21041494      -0.11442349
C        1.52231763      -0.41059866       0.63346418
O        2.50649977      -0.88215645       1.12732762
O        0.82903550      -1.04482708      -0.38075658
H       -1.46680473      -0.97625786       1.00392707
H       -1.72281915      -1.84659561      -0.50848505
H       -2.43248343      -0.23981148      -0.28241991
H       -0.41486623      -0.16989733      -1.76408161
H        0.29860283       0.31824600       1.34815245
H       -0.53307904       1.96793218      -0.44851231
H        1.83915984       2.05048862       0.22249208
14
Frame=12 idx=008272 GeodesicLength=0.9987990192352924 rxn_smarts="[C:1]([C@@:2]1([H:11])[C:3]([H:12])([H:13])[N:4]([H:14])[C:5](=[O:6])[O:7]1)([H:8])([H:9])[H:10]>>[C:1]([C@@:2](/[C:3](=[N:4]/[H:14])[H:13])([O:7][C:5](=[O:6])[H:12])[H:11])([H:8])([H:9])[H:10]"
C       -1.55121011      -0.86072436      -0.07397490
C       -0.31125647      -0.23172399      -0.68072543
C        0.04194478       1.12782092      -0.07503579
N        1.39058670       1.21872434      -0.09890333
C        1.52253978      -0.43058022       0.64020425
O        2.50535087      -0.91861783       1.11946679
O        0.83274489      -1.04082557      -0.38667154
H       -1.45730904      -0.97801671       1.00646854
H       -1.71402487      -1.84808625      -0.50553339
H       -2.42926482      -0.24417361      -0.27510994
H       -0.41889287      -0.16661107      -1.76493258
H        0.28393206       0.33570824       1.35398938
H       -0.52717939       1.96948930      -0.47640764
H        1.83203848       2.06761682       0.21716559
14
Frame=13 idx=008272 GeodesicLength=1.082011200221331 rxn_smarts="[C:1]([C@@:2]1([H:11])[C:3]([H:12])([H:13])[N:4]([H:14])[C:5](=[O:6])[O:7]1)([H:8])([H:9])[H:10]>>[C:1]([C@@:2](/[C:3](=[N:4]/[H:14])[H:13])([O:7][C:5](=[O:6])[H:12])[H:11])([H:8])([H:9])[H:10]"
C       -1.54451978      -0.86173504      -0.07128155
C       -0.30969220      -0.22574710      -0.68240953
C        0.03475408       1.13545211      -0.06905220
N        1.38506768       1.22716367      -0.08276891
C        1.52259647      -0.45105258       0.64709398
O        2.50378771      -0.95549704       1.11135702
O        0.83666051      -1.03659544      -0.39241320
H       -1.44787515      -0.97964163       1.00893078
H       -1.70488602      -1.84960346      -0.50264915
H       -2.42589979      -0.24863944      -0.26811092
H       -0.42267180      -0.16332965      -1.76565673
H        0.26868075       0.35345259       1.35998825
H       -0.52084404       1.97069802      -0.50297825
H        1.82484158       2.08507500       0.20995040
14
Frame=14 idx=008272 GeodesicLength=1.1652272271708488 rxn_smarts="[C:1]([C@@:2]1([H:11])[C:3]([H:12])([H:13])[N:4]([H:14])[C:5](=[O:6])[O:7]1)([H:8])([H:9])[H:10]>>[C:1]([C@@:2](/[C:3](=[N:4]/[H:14])[H:13])([O:7][C:5](=[O:6])[H:12])[H:11])([H:8])([H:9])[H:10]"
C       -1.53767404      -0.86273386      -0.06869883
C       -0.30796474      -0.21964404      -0.68394328
C        0.02738862       1.14325089      -0.06298594
N        1.37930997       1.23576735      -0.06591507
C        1.52249652      -0.47203824       0.65412804
O        2.50179469      -0.99281553       1.10300413
O        0.84080215      -1.03210365      -0.39796338
H       -1.43850189      -0.98116125       1.01130532
H       -1.69536873      -1.85114456      -0.49985972
H       -2.42238084      -0.25322802      -0.26142972
H       -0.42617382      -0.16000234      -1.76622593
H        0.25278385       0.37146973       1.36618497
H       -0.51411672       1.97162034      -0.52821465
H        1.81760499       2.10276318       0.20061408
14
Frame=15 idx=008272 GeodesicLength=1.2484452223721765 rxn_smarts="[C:1]([C@@:2]1([H:11])[C:3]([H:12])([H:13])[N:4]([H:14])[C:5](=[O:6])[O:7]1)([H:8])([H:9])[H:10]>>[C:1]([C@@:2](/[C:3](=[N:4]/[H:14])[H:13])([O:7][C:5](=[O:6])[H:12])[H:11])([H:8])([H:9])[H:10]"
C       -1.53065642      -0.86372870      -0.06623463
C       -0.30605829      -0.21338772      -0.68529888
C        0.01982890       1.15122750      -0.05677185
N        1.37327547       1.24458010      -0.04822038
C        1.52225054      -0.49355576       0.66130325
O        2.49935664      -1.03059540       1.09441818
O        0.84519537      -1.02730956      -0.40330162
H       -1.42918696      -0.98260920       1.01358392
H       -1.68543059      -1.85270772      -0.49719934
H       -2.41870089      -0.25796036      -0.25507540
H       -0.42936565      -0.15656921      -1.76661313
H        0.23616241       0.38975360       1.37262510
H       -0.50704434       1.97232222      -0.55209558
H        1.81037381       2.12054021       0.18888035
14
Frame=16 idx=008272 GeodesicLength=1.331665580634803 rxn_smarts="[C:1]([C@@:2]1([H:11])[C:3]([H:12])([H:13])[N:4]([H:14])[C:5](=[O:6])[O:7]1)([H:8])([H:9])[H:10]>>[C:1]([C@@:2](/[C:3](=[N:4]/[H:14])[H:13])([O:7][C:5](=[O:6])[H:12])[H:11])([H:8])([H:9])[H:10]"
C       -1.52344743      -0.86472842      -0.06389986
C       -0.30395507      -0.20694364      -0.68644389
C        0.01204807       1.15939798      -0.05033529
N        1.36691566       1.25365951      -0.02954291
C        1.52186975      -0.51561607       0.66861988
O        2.49645847      -1.06885405       1.08560984
O        0.84987073      -1.02216081      -0.40840185
H       -1.41992751      -0.98402510       1.01575542
H       -1.67502052      -1.85429028      -0.49471126
H       -2.41485154      -0.26286152      -0.24906091
H       -0.43220778      -0.15295893      -1.76678814
H        0.21872120       0.40830175       1.37936322
H       -0.49967924       1.97287228      -0.57458272
H        1.80320520       2.13820730       0.17441847
