12
Frame=0 idx=002339 GeodesicLength=0.0 rxn_smarts="[C:1]([O:2]/[C:3]([C:4]([H:9])([H:10])[H:11])=[N:5]/[H:12])([H:6])([H:7])[H:8]>>[C:1]([O:2][C:3]#[N:5])([H:6])([H:7])[H:8].[C:4]([H:9])([H:10])([H:11])[H:12]"
C        2.01448667       0.00376678       0.29331947
O        0.71909596      -0.39172453      -0.17859729
C       -0.23830571       0.42813021       0.26767033
C       -1.72649276      -0.45538849      -0.56873860
N       -0.44081968       1.41450835       0.93542265
H        2.24501873       1.01841483      -0.03266581
H        2.05095002      -0.04131992       1.38230355
H        2.71112185      -0.70695796      -0.14229891
H       -1.45861758      -0.42686558      -1.61910207
H       -2.73661561      -0.04522996      -0.43144677
H       -1.67432904      -1.44795123      -0.13519383
H       -1.46549290       0.65061750       0.22932732
12
Frame=1 idx=002339 GeodesicLength=0.09504240981864479 rxn_smarts="[C:1]([O:2]/[C:3]([C:4]([H:9])([H:10])[H:11])=[N:5]/[H:12])([H:6])([H:7])[H:8]>>[C:1]([O:2][C:3]#[N:5])([H:6])([H:7])[H:8].[C:4]([H:9])([H:10])([H:11])[H:12]"
C        2.02257778       0.00132832       0.29914626
O        0.73688714      -0.35052590      -0.23020961
C       -0.22275896       0.46176714       0.21936227
C       -1.73591273      -0.46061571      -0.55870675
N       -0.43386328       1.42937758       0.91175904
H        2.28202297       1.02280651       0.01950152
H        2.02152458      -0.08545786       1.38619708
H        2.72038249      -0.70594988      -0.14027033
H       -1.48807465      -0.44847813      -1.61486171
H       -2.75204281      -0.06755602      -0.42086410
H       -1.66530753      -1.45040728      -0.12031197
H       -1.48543499       0.65371125       0.24925828
12
Frame=2 idx=002339 GeodesicLength=0.1897824640054505 rxn_smarts="[C:1]([O:2]/[C:3]([C:4]([H:9])([H:10])[H:11])=[N:5]/[H:12])([H:6])([H:7])[H:8]>>[C:1]([O:2][C:3]#[N:5])([H:6])([H:7])[H:8].[C:4]([H:9])([H:10])([H:11])[H:12]"
C        2.02798665      -0.00171153       0.30410966
O        0.75470005      -0.30722833      -0.28087035
C       -0.20809694       0.49665423       0.17166295
C       -1.74263128      -0.46561179      -0.54815576
N       -0.42731608       1.44545878       0.88757378
H        2.31514154       1.02433308       0.07237819
H        1.98857116      -0.12988734       1.38632768
H        2.72694398      -0.70543261      -0.13923390
H       -1.51331040      -0.47036215      -1.60912128
H       -2.76477483      -0.09019296      -0.41059812
H       -1.65388703      -1.45233849      -0.10500513
H       -1.50332681       0.65631910       0.27093229
12
Frame=3 idx=002339 GeodesicLength=0.28437969429746823 rxn_smarts="[C:1]([O:2]/[C:3]([C:4]([H:9])([H:10])[H:11])=[N:5]/[H:12])([H:6])([H:7])[H:8]>>[C:1]([O:2][C:3]#[N:5])([H:6])([H:7])[H:8].[C:4]([H:9])([H:10])([H:11])[H:12]"
C        2.03089108      -0.00526819       0.30812353
O        0.77251491      -0.26259691      -0.32970782
C       -0.19429283       0.53196020       0.12552217
C       -1.74681064      -0.47026913      -0.53721531
N       -0.42135197       1.46253844       0.86307103
H        2.34405081       1.02300703       0.12510622
H        1.95292918      -0.17377524       1.38267658
H        2.73102473      -0.70531718      -0.13920855
H       -1.53393744      -0.49234478      -1.60196470
H       -2.77488993      -0.11271329      -0.40120435
H       -1.64081811      -1.45373711      -0.08946209
H       -1.51930980       0.65851616       0.29426330
12
Frame=4 idx=002339 GeodesicLength=0.3789122367947018 rxn_smarts="[C:1]([O:2]/[C:3]([C:4]([H:9])([H:10])[H:11])=[N:5]/[H:12])([H:6])([H:7])[H:8]>>[C:1]([O:2][C:3]#[N:5])([H:6])([H:7])[H:8].[C:4]([H:9])([H:10])([H:11])[H:12]"
C        2.03169942      -0.00917526       0.31113318
O        0.79027718      -0.21774465      -0.37567276
C       -0.18124892       0.56688096       0.08168531
C       -1.74881002      -0.47445124      -0.52608989
N       -0.41618429       1.47987375       0.83900773
H        2.36858872       1.01907750       0.17651092
H        1.91589080      -0.21612903       1.37549975
H        2.73308182      -0.70545221      -0.14017478
H       -1.54973768      -0.51434488      -1.59359178
H       -2.78266016      -0.13453046      -0.39344454
H       -1.62716969      -1.45456443      -0.07376652
H       -1.53372719       0.66055995       0.31890337
12
Frame=5 idx=002339 GeodesicLength=0.4734917908131143 rxn_smarts="[C:1]([O:2]/[C:3]([C:4]([H:9])([H:10])[H:11])=[N:5]/[H:12])([H:6])([H:7])[H:8]>>[C:1]([O:2][C:3]#[N:5])([H:6])([H:7])[H:8].[C:4]([H:9])([H:10])([H:11])[H:12]"
C        2.03065676      -0.01339041       0.31320915
O        0.80809440      -0.17280771      -0.41893610
C       -0.16873657       0.60147440       0.03973466
C       -1.74889233      -0.47815236      -0.51477204
N       -0.41185645       1.49722808       0.81539743
H        2.38915721       1.01271753       0.22665772
H        1.87762736      -0.25694407       1.36503368
H        2.73340978      -0.70576142      -0.14198848
H       -1.56109818      -0.53639738      -1.58406982
H       -2.78833712      -0.15568464      -0.38724076
H       -1.61317214      -1.45479446      -0.05777024
H       -1.54685272       0.66251245       0.34474479
12
Frame=6 idx=002339 GeodesicLength=0.568119683990001 rxn_smarts="[C:1]([O:2]/[C:3]([C:4]([H:9])([H:10])[H:11])=[N:5]/[H:12])([H:6])([H:7])[H:8]>>[C:1]([O:2][C:3]#[N:5])([H:6])([H:7])[H:8].[C:4]([H:9])([H:10])([H:11])[H:12]"
C        2.02819752      -0.01777819       0.31439178
O        0.82595704      -0.12851445      -0.45908151
C       -0.15660990       0.63536007      -0.00018145
C       -1.74745432      -0.48129449      -0.50339223
N       -0.40843978       1.51398885       0.79268475
H        2.40597225       1.00428731       0.27491804
H        1.83906901      -0.29574287       1.35168970
H        2.73249384      -0.70611666      -0.14455024
H       -1.56822521      -0.55845138      -1.57357033
H       -2.79227691      -0.17587366      -0.38298446
H       -1.59955939      -1.45441388      -0.04146387
H       -1.55912414       0.66454936       0.37153982
12
Frame=7 idx=002339 GeodesicLength=0.6628244984230459 rxn_smarts="[C:1]([O:2]/[C:3]([C:4]([H:9])([H:10])[H:11])=[N:5]/[H:12])([H:6])([H:7])[H:8]>>[C:1]([O:2][C:3]#[N:5])([H:6])([H:7])[H:8].[C:4]([H:9])([H:10])([H:11])[H:12]"
C        2.02458555      -0.02229087       0.31476613
O        0.84394884      -0.08501926      -0.49632089
C       -0.14468581       0.66856423      -0.03839725
C       -1.74476261      -0.48386750      -0.49195439
N       -0.40593169       1.52994687       0.77079601
H        2.41942201       0.99403168       0.32134183
H        1.80044593      -0.33257554       1.33576943
H        2.73065241      -0.70644971      -0.14771998
H       -1.57152888      -0.58046936      -1.56215633
H       -2.79473081      -0.19513359      -0.38059534
H       -1.58655348      -1.45343399      -0.02477810
H       -1.57086145       0.66669703       0.39924888
12
Frame=8 idx=002339 GeodesicLength=0.7576346747716607 rxn_smarts="[C:1]([O:2]/[C:3]([C:4]([H:9])([H:10])[H:11])=[N:5]/[H:12])([H:6])([H:7])[H:8]>>[C:1]([O:2][C:3]#[N:5])([H:6])([H:7])[H:8].[C:4]([H:9])([H:10])([H:11])[H:12]"
C        2.02004123      -0.02689647       0.31441412
O        0.86215598      -0.04241837      -0.53090628
C       -0.13280134       0.70113476      -0.07522376
C       -1.74103780      -0.48586379      -0.48044740
N       -0.40432698       1.54494572       0.74959565
H        2.42982685       0.98217596       0.36603688
H        1.76192553      -0.36756385       1.31753017
H        2.72816503      -0.70670253      -0.15137467
H       -1.57138789      -0.60240360      -1.54987475
H       -2.79590401      -0.21352250      -0.37995250
H       -1.57429668      -1.45187946      -0.00765536
H       -1.58235990       0.66899412       0.42785791
12
Frame=9 idx=002339 GeodesicLength=0.8525689229671447 rxn_smarts="[C:1]([O:2]/[C:3]([C:4]([H:9])([H:10])[H:11])=[N:5]/[H:12])([H:6])([H:7])[H:8]>>[C:1]([O:2][C:3]#[N:5])([H:6])([H:7])[H:8].[C:4]([H:9])([H:10])([H:11])[H:12]"
C        2.01467707      -0.03160335       0.31340438
O        0.88067317      -0.00059761      -0.56320146
C       -0.12080968       0.73323894      -0.11103106
C       -1.73639265      -0.48728480      -0.46880773
N       -0.40362809       1.55890814       0.72886823
H        2.43744177       0.96885379       0.40927779
H        1.72344555      -0.40100846       1.29708773
H        2.72519399      -0.70683581      -0.15541883
H       -1.56811158      -0.62424905      -1.53670013
H       -2.79589841      -0.23119769      -0.38085282
H       -1.56272517      -1.44974359       0.01002623
H       -1.59386598       0.67151948       0.45734768
12
Frame=10 idx=002339 GeodesicLength=0.9475912952085821 rxn_smarts="[C:1]([O:2]/[C:3]([C:4]([H:9])([H:10])[H:11])=[N:5]/[H:12])([H:6])([H:7])[H:8]>>[C:1]([O:2][C:3]#[N:5])([H:6])([H:7])[H:8].[C:4]([H:9])([H:10])([H:11])[H:12]"
C        2.00874716      -0.03632954       0.31182449
O        0.89955450       0.04009018      -0.59319205
C       -0.10856010       0.76472712      -0.14597760
C       -1.73109250      -0.48807917      -0.45711452
N       -0.40387660       1.57162651       0.70844536
H        2.44254396       0.95428778       0.45079133
H        1.68536395      -0.43257797       1.27478212
H        2.72202125      -0.70686956      -0.15957394
H       -1.56210821      -0.64569803      -1.52271928
H       -2.79490224      -0.24807898      -0.38323532
H       -1.55214945      -1.44708472       0.02797640
H       -1.60554174       0.67398639       0.48799300
12
Frame=11 idx=002339 GeodesicLength=1.0427337331238413 rxn_smarts="[C:1]([O:2]/[C:3]([C:4]([H:9])([H:10])[H:11])=[N:5]/[H:12])([H:6])([H:7])[H:8]>>[C:1]([O:2][C:3]#[N:5])([H:6])([H:7])[H:8].[C:4]([H:9])([H:10])([H:11])[H:12]"
C        2.00232475      -0.04108719       0.30972826
O        0.91890264       0.07974321      -0.62120285
C       -0.09591305       0.79574284      -0.18036959
C       -1.72521473      -0.48824136      -0.44530258
N       -0.40510231       1.58302800       0.68808449
H        2.44527332       0.93860413       0.49085064
H        1.64760855      -0.46255998       1.25067891
H        2.71877909      -0.70676867      -0.16377051
H       -1.55362454      -0.66672324      -1.50789784
H       -2.79297028      -0.26427334      -0.38690035
H       -1.54249845      -1.44390975       0.04627563
H       -1.61756499       0.67644534       0.51982579
12
Frame=12 idx=002339 GeodesicLength=1.1380355328769691 rxn_smarts="[C:1]([O:2]/[C:3]([C:4]([H:9])([H:10])[H:11])=[N:5]/[H:12])([H:6])([H:7])[H:8]>>[C:1]([O:2][C:3]#[N:5])([H:6])([H:7])[H:8].[C:4]([H:9])([H:10])([H:11])[H:12]"
C        1.99543203      -0.04589967       0.30715956
O        0.93882789       0.11849778      -0.64752832
C       -0.08273248       0.82645336      -0.21451645
C       -1.71879392      -0.48776603      -0.43330169
N       -0.40736829       1.59309130       0.66749183
H        2.44572004       0.92184413       0.52971454
H        1.61002003      -0.49117790       1.22478405
H        2.71554651      -0.70653799      -0.16791024
H       -1.54287778      -0.68724155      -1.49218190
H       -2.79010288      -0.27991289      -0.39160686
H       -1.53363489      -1.44022414       0.06494401
H       -1.63003629       0.67887360       0.55295146
12
Frame=13 idx=002339 GeodesicLength=1.2334112353510767 rxn_smarts="[C:1]([O:2]/[C:3]([C:4]([H:9])([H:10])[H:11])=[N:5]/[H:12])([H:6])([H:7])[H:8]>>[C:1]([O:2][C:3]#[N:5])([H:6])([H:7])[H:8].[C:4]([H:9])([H:10])([H:11])[H:12]"
C        1.98813860      -0.05075187       0.30416906
O        0.95938926       0.15634099      -0.67226529
C       -0.06889705       0.85689927      -0.24860221
C       -1.71191087      -0.48662482      -0.42108899
N       -0.41076072       1.60165486       0.64641042
H        2.44399387       0.90404315       0.56739148
H        1.57263258      -0.51838197       1.19715386
H        2.71240425      -0.70619582      -0.17179747
H       -1.53012881      -0.70704515      -1.47554194
H       -2.78632295      -0.29505034      -0.39718386
H       -1.52552725      -1.43602311       0.08385332
H       -1.64301091       0.68113479       0.58750164
12
Frame=14 idx=002339 GeodesicLength=1.3290521001979951 rxn_smarts="[C:1]([O:2]/[C:3]([C:4]([H:9])([H:10])[H:11])=[N:5]/[H:12])([H:6])([H:7])[H:8]>>[C:1]([O:2][C:3]#[N:5])([H:6])([H:7])[H:8].[C:4]([H:9])([H:10])([H:11])[H:12]"
C        1.98024906      -0.05576728       0.30071859
O        0.98075235       0.19377844      -0.69584961
C       -0.05428245       0.88748795      -0.28296136
C       -1.70438612      -0.48484888      -0.40846446
N       -0.41535938       1.60886511       0.62452140
H        2.43989497       0.88502061       0.60454081
H        1.53489273      -0.54483081       1.16740484
H        2.70926786      -0.70571414      -0.17556245
H       -1.51525555      -0.72628446      -1.45777342
H       -2.78144926      -0.30997453      -0.40334842
H       -1.51771905      -1.43124686       0.10337064
H       -1.65660516       0.68351485       0.62340345
12
Frame=15 idx=002339 GeodesicLength=1.4250579680932944 rxn_smarts="[C:1]([O:2]/[C:3]([C:4]([H:9])([H:10])[H:11])=[N:5]/[H:12])([H:6])([H:7])[H:8]>>[C:1]([O:2][C:3]#[N:5])([H:6])([H:7])[H:8].[C:4]([H:9])([H:10])([H:11])[H:12]"
C        1.97156867      -0.06105240       0.29674865
O        1.00304269       0.23123842      -0.71849227
C       -0.03878471       0.91854242      -0.31778820
C       -1.69604495      -0.48245482      -0.39525228
N       -0.42126387       1.61478445       0.60153707
H        2.43317519       0.86447974       0.64160209
H        1.49635938      -0.57092879       1.13508320
H        2.70602273      -0.70507820      -0.17926282
H       -1.49808507      -0.74501702      -1.43863590
H       -2.77527246      -0.32495188      -0.40989796
H       -1.50980647      -1.42579213       0.12378316
H       -1.67091114       0.68623022       0.66057526
12
Frame=16 idx=002339 GeodesicLength=1.5216422470317394 rxn_smarts="[C:1]([O:2]/[C:3]([C:4]([H:9])([H:10])[H:11])=[N:5]/[H:12])([H:6])([H:7])[H:8]>>[C:1]([O:2][C:3]#[N:5])([H:6])([H:7])[H:8].[C:4]([H:9])([H:10])([H:11])[H:12]"
C        1.96176386      -0.06677972       0.29212526
O        1.02641152       0.26937561      -0.74038918
C       -0.02232051       0.95051742      -0.35321848
C       -1.68657952      -0.47948300      -0.38119778
N       -0.42857129       1.61958344       0.57719859
H        2.42337488       0.84189985       0.67916362
H        1.45638588      -0.59726721       1.09941937
H        2.70244335      -0.70426091      -0.18309093
H       -1.47815392      -0.76344299      -1.41774187
H       -2.76744362      -0.34037645      -0.41666877
H       -1.50121887      -1.41948235       0.14562294
H       -1.68609177       0.68971631       0.69877723
