14
Frame=0 idx=006284 GeodesicLength=0.0 rxn_smarts="[C:1]([C@@:2]1([H:10])[C:3]([H:11])([H:12])[O:4][C:5]([H:13])([H:14])[O:6]1)([H:7])([H:8])[H:9]>>[C-:2]1=[O+:6][C:5]([H:13])([H:14])[O:4][C:3]1([H:11])[H:12].[C:1]([H:7])([H:8])([H:9])[H:10]"
C       -1.76824907       0.16618036       0.31157756
C        0.20337145      -0.31487781       0.97687212
C        0.61100526      -1.16184117      -0.18450174
O        0.94153958      -0.21374431      -1.20388328
C        1.37076418       0.92660326      -0.53447393
O        0.83875236       0.85698174       0.80239318
H       -2.49331477      -0.64665179       0.33951288
H       -2.13349587       1.06613627       0.80264433
H       -1.43542852       0.37068483      -0.69992777
H       -0.92995906      -0.25909396       1.33294117
H        1.50282308      -1.73871620       0.09213664
H       -0.15538030      -1.83839500      -0.55445925
H        2.46265779       0.97091937      -0.44328358
H        0.98491388       1.81581441      -1.03754827
14
Frame=1 idx=006284 GeodesicLength=0.06930414198392683 rxn_smarts="[C:1]([C@@:2]1([H:10])[C:3]([H:11])([H:12])[O:4][C:5]([H:13])([H:14])[O:6]1)([H:7])([H:8])[H:9]>>[C-:2]1=[O+:6][C:5]([H:13])([H:14])[O:4][C:3]1([H:11])[H:12].[C:1]([H:7])([H:8])([H:9])[H:10]"
C       -1.77626029       0.16211558       0.32070170
C        0.20219651      -0.30893811       0.96566718
C        0.61839472      -1.16021720      -0.18990855
O        0.96128166      -0.21520328      -1.20732939
C        1.38110138       0.92852746      -0.53751708
O        0.83257835       0.86566422       0.79196813
H       -2.50925782      -0.64358506       0.35197629
H       -2.13685712       1.06715653       0.80608911
H       -1.45840794       0.36234423      -0.69706084
H       -0.94129173      -0.26893822       1.34814537
H        1.50184580      -1.74561738       0.09495441
H       -0.14931335      -1.83193905      -0.56684627
H        2.47187967       0.97271817      -0.43202696
H        1.00211016       1.81591210      -1.04881309
14
Frame=2 idx=006284 GeodesicLength=0.13868214225738001 rxn_smarts="[C:1]([C@@:2]1([H:10])[C:3]([H:11])([H:12])[O:4][C:5]([H:13])([H:14])[O:6]1)([H:7])([H:8])[H:9]>>[C-:2]1=[O+:6][C:5]([H:13])([H:14])[O:4][C:3]1([H:11])[H:12].[C:1]([H:7])([H:8])([H:9])[H:10]"
C       -1.78451906       0.15780000       0.33006071
C        0.20079628      -0.30269228       0.95399260
C        0.62576237      -1.15843114      -0.19550634
O        0.98183373      -0.21673957      -1.21073236
C        1.39188379       0.93047829      -0.54062751
O        0.82609311       0.87464841       0.78088441
H       -2.52532966      -0.64071461       0.36512554
H       -2.14050514       1.06786968       0.80969349
H       -1.48205143       0.35368124      -0.69383306
H       -0.95254343      -0.27876399       1.36343863
H        1.50036540      -1.75258161       0.09791523
H       -0.14326903      -1.82502102      -0.57978328
H        2.48128979       0.97455317      -0.42017346
H        1.02019327       1.81591343      -1.06045462
14
Frame=3 idx=006284 GeodesicLength=0.20813306919701297 rxn_smarts="[C:1]([C@@:2]1([H:10])[C:3]([H:11])([H:12])[O:4][C:5]([H:13])([H:14])[O:6]1)([H:7])([H:8])[H:9]>>[C-:2]1=[O+:6][C:5]([H:13])([H:14])[O:4][C:3]1([H:11])[H:12].[C:1]([H:7])([H:8])([H:9])[H:10]"
C       -1.79302480       0.15322001       0.33966687
C        0.19916704      -0.29612397       0.94181721
C        0.63310015      -1.15647539      -0.20130889
O        1.00323826      -0.21836227      -1.21406994
C        1.40312827       0.93245602      -0.54380103
O        0.81927191       0.88395491       0.76908527
H       -2.54151371      -0.63806318       0.37899939
H       -2.14445052       1.06826824       0.81345040
H       -1.50638746       0.34466411      -0.69022572
H       -0.96370340      -0.28855271       1.37884596
H        1.49832890      -1.75961422       0.10100798
H       -0.13724698      -1.81760757      -0.59330738
H        2.49087315       0.97642960      -0.40767662
H        1.03921919       1.81580640      -1.07248349
14
Frame=4 idx=006284 GeodesicLength=0.2776688403907438 rxn_smarts="[C:1]([C@@:2]1([H:10])[C:3]([H:11])([H:12])[O:4][C:5]([H:13])([H:14])[O:6]1)([H:7])([H:8])[H:9]>>[C-:2]1=[O+:6][C:5]([H:13])([H:14])[O:4][C:3]1([H:11])[H:12].[C:1]([H:7])([H:8])([H:9])[H:10]"
C       -1.80177570       0.14836061       0.34953412
C        0.19730470      -0.28921317       0.92910527
C        0.64039792      -1.15434080      -0.20733273
O        1.02554505      -0.22008500      -1.21731264
C        1.41485722       0.93445995      -0.54703322
O        0.81208515       0.89360755       0.75650120
H       -2.55778875      -0.63565699       0.39363981
H       -2.14870444       1.06834138       0.81735427
H       -1.53144724       0.33525733      -0.68621521
H       -0.97476055      -0.29828397       1.39439862
H        1.49566853      -1.76672060       0.10421842
H       -0.13124498      -1.80965919      -0.60746235
H        2.50060795       0.97836037      -0.39448412
H        1.05925515       1.81557256      -1.08491144
14
Frame=5 idx=006284 GeodesicLength=0.3472922477624334 rxn_smarts="[C:1]([C@@:2]1([H:10])[C:3]([H:11])([H:12])[O:4][C:5]([H:13])([H:14])[O:6]1)([H:7])([H:8])[H:9]>>[C-:2]1=[O+:6][C:5]([H:13])([H:14])[O:4][C:3]1([H:11])[H:12].[C:1]([H:7])([H:8])([H:9])[H:10]"
C       -1.81076732       0.14320890       0.35967346
C        0.19520315      -0.28194413       0.91582326
C        0.64764910      -1.15202057      -0.21359121
O        1.04879544      -0.22191903      -1.22042988
C        1.42708378       0.93649032      -0.55031889
O        0.80450867       0.90362682       0.74307127
H       -2.57413831      -0.63351664       0.40908639
H       -2.15327323       1.06808291       0.82139305
H       -1.55725729       0.32542503      -0.68178043
H       -0.98570339      -0.30793861       1.41012649
H        1.49232976      -1.77390160       0.10752934
H       -0.12526274      -1.80114234      -0.62228844
H        2.51047674       0.98035011      -0.38054712
H        1.08035563       1.81519884      -1.09774729
14
Frame=6 idx=006284 GeodesicLength=0.4169898276339016 rxn_smarts="[C:1]([C@@:2]1([H:10])[C:3]([H:11])([H:12])[O:4][C:5]([H:13])([H:14])[O:6]1)([H:7])([H:8])[H:9]>>[C-:2]1=[O+:6][C:5]([H:13])([H:14])[O:4][C:3]1([H:11])[H:12].[C:1]([H:7])([H:8])([H:9])[H:10]"
C       -1.81999405       0.13774731       0.37010189
C        0.19285116      -0.27429243       0.90192579
C        0.65483891      -1.14950451      -0.22010740
O        1.07304498      -0.22388056      -1.22338169
C        1.43983291       0.93854475      -0.55364886
O        0.79650637       0.91403860       0.72869959
H       -2.59052812      -0.63167523       0.42539572
H       -2.15817087       1.06747999       0.82556031
H       -1.58385278       0.31511553      -0.67689356
H       -0.99650838      -0.31748000       1.42606086
H        1.48822546      -1.78116180       0.11092197
H       -0.11929526      -1.79200865      -0.63784127
H        2.52043833       0.98241534      -0.36579871
H        1.10261134       1.81466166      -1.11099465
14
Frame=7 idx=006284 GeodesicLength=0.48676632670293174 rxn_smarts="[C:1]([C@@:2]1([H:10])[C:3]([H:11])([H:12])[O:4][C:5]([H:13])([H:14])[O:6]1)([H:7])([H:8])[H:9]>>[C-:2]1=[O+:6][C:5]([H:13])([H:14])[O:4][C:3]1([H:11])[H:12].[C:1]([H:7])([H:8])([H:9])[H:10]"
C       -1.82944819       0.13196270       0.38083139
C        0.19023915      -0.26623970       0.88737299
C        0.66195387      -1.14678641      -0.22689842
O        1.09833718      -0.22598425      -1.22612854
C        1.45311940       0.94062189      -0.55701445
O        0.78804842       0.92486277       0.71330682
H       -2.60693775      -0.63015499       0.44261035
H       -2.16340296       1.06652555       0.82984287
H       -1.61125862       0.30428435      -0.67152601
H       -1.00716080      -0.32688238       1.44223704
H        1.48329731      -1.78850093       0.11437331
H       -0.11334012      -1.78221644      -0.65416608
H        2.53046221       0.98456688      -0.35018503
H        1.12609089       1.81394096      -1.12465625
14
Frame=8 idx=006284 GeodesicLength=0.5566070038328633 rxn_smarts="[C:1]([C@@:2]1([H:10])[C:3]([H:11])([H:12])[O:4][C:5]([H:13])([H:14])[O:6]1)([H:7])([H:8])[H:9]>>[C-:2]1=[O+:6][C:5]([H:13])([H:14])[O:4][C:3]1([H:11])[H:12].[C:1]([H:7])([H:8])([H:9])[H:10]"
C       -1.83911708       0.12583663       0.39187929
C        0.18735202      -0.25776061       0.87211424
C        0.66897928      -1.14385496      -0.23398969
O        1.12473484      -0.22825484      -1.22861060
C        1.46696555       0.94271832      -0.56040475
O        0.77909440       0.93612543       0.69678123
H       -2.62332444      -0.62898874       0.46078982
H       -2.16897495       1.06520671       0.83423065
H       -1.63950603       0.29287199      -0.66564288
H       -1.01763140      -0.33610436       1.45869209
H        1.47744738      -1.79592239       0.11785587
H       -0.10739716      -1.77170695      -0.67133040
H        2.54049324       0.98682671      -0.33362638
H        1.15088436       1.81300708      -1.13873849
14
Frame=9 idx=006284 GeodesicLength=0.6263894273454725 rxn_smarts="[C:1]([C@@:2]1([H:10])[C:3]([H:11])([H:12])[O:4][C:5]([H:13])([H:14])[O:6]1)([H:7])([H:8])[H:9]>>[C-:2]1=[O+:6][C:5]([H:13])([H:14])[O:4][C:3]1([H:11])[H:12].[C:1]([H:7])([H:8])([H:9])[H:10]"
C       -1.84900955       0.11932814       0.40330044
C        0.18414737      -0.24880300       0.85603277
C        0.67587146      -1.14068327      -0.24145849
O        1.15238881      -0.23075726      -1.23067425
C        1.48143368       0.94481390      -0.56377560
O        0.76952539       0.94787874       0.67882215
H       -2.63961130      -0.62824479       0.48012741
H       -2.17493956       1.06348474       0.83873210
H       -1.66867767       0.28072683      -0.65918104
H       -1.02781421      -0.34500998       1.47544123
H        1.47051529      -1.80341379       0.12131436
H       -0.10147878      -1.76032925      -0.68951804
H        2.55040488       0.98924847      -0.31593143
H        1.17724419       1.81176050      -1.15323161
14
Frame=10 idx=006284 GeodesicLength=0.6962056941227045 rxn_smarts="[C:1]([C@@:2]1([H:10])[C:3]([H:11])([H:12])[O:4][C:5]([H:13])([H:14])[O:6]1)([H:7])([H:8])[H:9]>>[C-:2]1=[O+:6][C:5]([H:13])([H:14])[O:4][C:3]1([H:11])[H:12].[C:1]([H:7])([H:8])([H:9])[H:10]"
C       -1.85908215       0.11244025       0.41507743
C        0.18063528      -0.23936897       0.83912668
C        0.68263439      -1.13727991      -0.24929095
O        1.18126113      -0.23347635      -1.23232065
C        1.49649501       0.94691821      -0.56712900
O        0.75936789       0.96011398       0.65945062
H       -2.65578038      -0.62791416       0.50058478
H       -2.18125683       1.06137656       0.84329341
H       -1.69874844       0.26784284      -0.65212400
H       -1.03773641      -0.35361095       1.49255004
H        1.46245660      -1.81099287       0.12472578
H       -0.09555221      -1.74810158      -0.70870808
H        2.56017530       0.99182702      -0.29711490
H        1.20513082       1.81022591      -1.16812114
14
Frame=11 idx=006284 GeodesicLength=0.766057082240682 rxn_smarts="[C:1]([C@@:2]1([H:10])[C:3]([H:11])([H:12])[O:4][C:5]([H:13])([H:14])[O:6]1)([H:7])([H:8])[H:9]>>[C-:2]1=[O+:6][C:5]([H:13])([H:14])[O:4][C:3]1([H:11])[H:12].[C:1]([H:7])([H:8])([H:9])[H:10]"
C       -1.86931470       0.10515594       0.42722770
C        0.17680079      -0.22943658       0.82133437
C        0.68924901      -1.13363774      -0.25751718
O        1.21140004      -0.23643509      -1.23347105
C        1.51215881       0.94902688      -0.57044412
O        0.74857864       0.97284763       0.63852759
H       -2.67178236      -0.62802123       0.52223631
H       -2.18792716       1.05887379       0.84788564
H       -1.72973835       0.25414083      -0.64442722
H       -1.04736131      -0.36184371       1.51006717
H        1.45317246      -1.81866245       0.12805162
H       -0.08960576      -1.73496062      -0.72898998
H        2.56973082       0.99458510      -0.27708626
H        1.23463906       1.80836724      -1.18339459
14
Frame=12 idx=006284 GeodesicLength=0.8359248961671054 rxn_smarts="[C:1]([C@@:2]1([H:10])[C:3]([H:11])([H:12])[O:4][C:5]([H:13])([H:14])[O:6]1)([H:7])([H:8])[H:9]>>[C-:2]1=[O+:6][C:5]([H:13])([H:14])[O:4][C:3]1([H:11])[H:12].[C:1]([H:7])([H:8])([H:9])[H:10]"
C       -1.87967938       0.09745438       0.43977568
C        0.17262380      -0.21898079       0.80258153
C        0.69569201      -1.12974763      -0.26618167
O        1.24287314      -0.23966606      -1.23401366
C        1.52843907       0.95113320      -0.57368974
O        0.73710395       0.98609440       0.61587016
H       -2.68754872      -0.62859407       0.54518628
H       -2.19495300       1.05596680       0.85247260
H       -1.76167391       0.23951385      -0.63604017
H       -1.05663252      -0.36961529       1.52804255
H        1.44252445      -1.82643216       0.13123316
H       -0.08361839      -1.72082442      -0.75047652
H        2.57895164       0.99756511      -0.25573421
H        1.26589786       1.80613269      -1.19902598
14
Frame=13 idx=006284 GeodesicLength=0.9057710266061536 rxn_smarts="[C:1]([C@@:2]1([H:10])[C:3]([H:11])([H:12])[O:4][C:5]([H:13])([H:14])[O:6]1)([H:7])([H:8])[H:9]>>[C-:2]1=[O+:6][C:5]([H:13])([H:14])[O:4][C:3]1([H:11])[H:12].[C:1]([H:7])([H:8])([H:9])[H:10]"
C       -1.89013414       0.08932517       0.45272984
C        0.16808266      -0.20799258       0.78280589
C        0.70194016      -1.12560977      -0.27531140
O        1.27569925      -0.24319264      -1.23384645
C        1.54531869       0.95323175      -0.57683279
O        0.72491058       0.99984928       0.59132882
H       -2.70301510      -0.62963741       0.56949975
H       -2.20231188       1.05265522       0.85700007
H       -1.79454753       0.22386771      -0.62691024
H       -1.06550229      -0.37684272       1.54652335
H        1.43043320      -1.83430942       0.13422054
H       -0.07758326      -1.70562802      -0.77325845
H        2.58773308       1.00079429      -0.23298106
H        1.29897659       1.80348914      -1.21496788
14
Frame=14 idx=006284 GeodesicLength=0.9755903571989754 rxn_smarts="[C:1]([C@@:2]1([H:10])[C:3]([H:11])([H:12])[O:4][C:5]([H:13])([H:14])[O:6]1)([H:7])([H:8])[H:9]>>[C-:2]1=[O+:6][C:5]([H:13])([H:14])[O:4][C:3]1([H:11])[H:12].[C:1]([H:7])([H:8])([H:9])[H:10]"
C       -1.90063289       0.08074478       0.46611998
C        0.16315571      -0.19644140       0.76191207
C        0.70795775      -1.12121684      -0.28497070
O        1.30996470      -0.24706390      -1.23281272
C        1.56280678       0.95531072      -0.57982817
O        0.71193322       1.01411734       0.56464766
H       -2.71807748      -0.63118161       0.59531096
H       -2.20999675       1.04892833       0.86141831
H       -1.82838135       0.20705969      -0.61696605
H       -1.07389143      -0.38339047       1.56557810
H        1.41669522      -1.84230697       0.13692159
H       -0.07145398      -1.68925971      -0.79748532
H        2.59588811       1.00434300      -0.20867740
H        1.33403239       1.80035705      -1.23116830
14
Frame=15 idx=006284 GeodesicLength=1.0453424296373794 rxn_smarts="[C:1]([C@@:2]1([H:10])[C:3]([H:11])([H:12])[O:4][C:5]([H:13])([H:14])[O:6]1)([H:7])([H:8])[H:9]>>[C-:2]1=[O+:6][C:5]([H:13])([H:14])[O:4][C:3]1([H:11])[H:12].[C:1]([H:7])([H:8])([H:9])[H:10]"
C       -1.91111035       0.07170411       0.47995975
C        0.15782245      -0.18432321       0.73982336
C        0.71371460      -1.11657401      -0.29520655
O        1.34570651      -0.25132368      -1.23074138
C        1.58087389       0.95735939      -0.58262365
O        0.69813408       1.02887057       0.53560741
H       -2.73263429      -0.63322095       0.62271373
H       -2.21796910       1.04478816       0.86565427
H       -1.86315607       0.18896327      -0.60613766
H       -1.08172573      -0.38912666       1.58526412
H        1.40116668      -1.85044232       0.13924195
H       -0.06519468      -1.67162624      -0.82328785
H        2.60322562       1.00828270      -0.18271949
H        1.37114639       1.79666885      -1.24754800
14
Frame=16 idx=006284 GeodesicLength=1.115005971254494 rxn_smarts="[C:1]([C@@:2]1([H:10])[C:3]([H:11])([H:12])[O:4][C:5]([H:13])([H:14])[O:6]1)([H:7])([H:8])[H:9]>>[C-:2]1=[O+:6][C:5]([H:13])([H:14])[O:4][C:3]1([H:11])[H:12].[C:1]([H:7])([H:8])([H:9])[H:10]"
C       -1.92149108       0.06219765       0.49426728
C        0.15206197      -0.17163976       0.71645289
C        0.71917943      -1.11169274      -0.30608330
O        1.38296613      -0.25602399      -1.22742684
C        1.59948293       0.95936422      -0.58515655
O        0.68347192       1.04406541       0.50394102
H       -2.74656776      -0.63573767       0.65182903
H       -2.22618954       1.04024156       0.86962621
H       -1.89884254       0.16942942      -0.59434660
H       -1.08892271      -0.39388911       1.60564993
H        1.38367709      -1.85873496       0.14105599
H       -0.05874496      -1.65262756      -0.85082142
H        2.60950245       1.01270798      -0.15498578
H        1.41041666       1.79233955      -1.26400187
