11
Frame=0 idx=000742 GeodesicLength=0.0 rxn_smarts="[O:1]=[C:2]([C:3]([C:4]([C:5]#[N:6])([H:10])[H:11])([H:8])[H:9])[H:7]>>[H:7][H:9].[O:1]=[C:2]=[C:3]([C:4]([C:5]#[N:6])([H:10])[H:11])[H:8]"
O       -2.12592553       1.15948186       0.16052231
C       -1.51779514       0.20623492      -0.26006892
C       -0.22503442      -0.26922021      -0.31577792
C        0.92273250       0.57063780       0.15997690
C        2.07659966      -0.23748692       0.54494137
N        2.97712652      -0.88449919       0.83586268
H       -2.21798210      -0.75370722      -0.72953219
H       -0.04259835      -1.17525643      -0.87864360
H       -1.68959702      -1.06599586       0.09517353
H        0.60460420       1.18034806       1.00933418
H        1.23786969       1.26946316      -0.62178832
11
Frame=1 idx=000742 GeodesicLength=0.0965172638136561 rxn_smarts="[O:1]=[C:2]([C:3]([C:4]([C:5]#[N:6])([H:10])[H:11])([H:8])[H:9])[H:7]>>[H:7][H:9].[O:1]=[C:2]=[C:3]([C:4]([C:5]#[N:6])([H:10])[H:11])[H:8]"
O       -2.12287384       1.17748162       0.13681325
C       -1.51942284       0.21494505      -0.26358162
C       -0.22660797      -0.26589316      -0.32011704
C        0.92198983       0.57060034       0.16223589
C        2.07157727      -0.24318999       0.54867265
N        2.96976312      -0.89157888       0.84386567
H       -2.22880981      -0.77927439      -0.70091992
H       -0.04255508      -1.14750387      -0.92031977
H       -1.66977412      -1.08516856       0.11707655
H        0.60509645       1.17911715       1.01275708
H        1.24161702       1.27046468      -0.61648274
11
Frame=2 idx=000742 GeodesicLength=0.1930367744293164 rxn_smarts="[O:1]=[C:2]([C:3]([C:4]([C:5]#[N:6])([H:10])[H:11])([H:8])[H:9])[H:7]>>[H:7][H:9].[O:1]=[C:2]=[C:3]([C:4]([C:5]#[N:6])([H:10])[H:11])[H:8]"
O       -2.11996095       1.19501694       0.11356754
C       -1.52103029       0.22407847      -0.26727334
C       -0.22833131      -0.26265112      -0.32452172
C        0.92113967       0.57050017       0.16428033
C        2.06639456      -0.24893532       0.55226442
N        2.96213565      -0.89875488       0.85183736
H       -2.23906171      -0.80391696      -0.67198637
H       -0.04313591      -1.11923806      -0.95991965
H       -1.64899557      -1.10529861       0.13739249
H        0.60554254       1.17798723       1.01586683
H        1.24530331       1.27121213      -0.61150790
11
Frame=3 idx=000742 GeodesicLength=0.28955325367011525 rxn_smarts="[O:1]=[C:2]([C:3]([C:4]([C:5]#[N:6])([H:10])[H:11])([H:8])[H:9])[H:7]>>[H:7][H:9].[O:1]=[C:2]=[C:3]([C:4]([C:5]#[N:6])([H:10])[H:11])[H:8]"
O       -2.11715838       1.21223046       0.09073217
C       -1.52262147       0.23369816      -0.27120892
C       -0.23022980      -0.25947827      -0.32896549
C        0.92016980       0.57034297       0.16613184
C        2.06103859      -0.25471336       0.55574693
N        2.95423461      -0.90602907       0.85976670
H       -2.24877924      -0.82769960      -0.64261690
H       -0.04428282      -1.09054354      -0.99754087
H       -1.62722771      -1.12648375       0.15610879
H        0.60593465       1.17696465       1.01868681
H        1.24892176       1.27171135      -0.60684105
11
Frame=4 idx=000742 GeodesicLength=0.38606798207143367 rxn_smarts="[O:1]=[C:2]([C:3]([C:4]([C:5]#[N:6])([H:10])[H:11])([H:8])[H:9])[H:7]>>[H:7][H:9].[O:1]=[C:2]=[C:3]([C:4]([C:5]#[N:6])([H:10])[H:11])[H:8]"
O       -2.11443556       1.22925968       0.06824534
C       -1.52419948       0.24386830      -0.27547085
C       -0.23232888      -0.25635868      -0.33343640
C        0.91906360       0.57013249       0.16781033
C        2.05549054      -0.26051891       0.55914825
N        2.94604284      -0.91340711       0.86764853
H       -2.25799911      -0.85067932      -0.61264544
H       -0.04593828      -1.06149118      -1.03328454
H       -1.60441491      -1.14882491       0.17319788
H        0.60625438       1.17604747       1.02124128
H        1.25246486       1.27197218      -0.60245438
11
Frame=5 idx=000742 GeodesicLength=0.4825735341032736 rxn_smarts="[O:1]=[C:2]([C:3]([C:4]([C:5]#[N:6])([H:10])[H:11])([H:8])[H:9])[H:7]>>[H:7][H:9].[O:1]=[C:2]=[C:3]([C:4]([C:5]#[N:6])([H:10])[H:11])[H:8]"
O       -2.11176273       1.24623056       0.04604991
C       -1.52576802       0.25465471      -0.28015933
C       -0.23465556      -0.25327729      -0.33793311
C        0.91780122       0.56986949       0.16933271
C        2.04972671      -0.26635001       0.56249609
N        2.93753975      -0.92089087       0.87548560
H       -2.26675009      -0.87289051      -0.58185940
H       -0.04804834      -1.03214718      -1.06724289
H       -1.58048438      -1.17242958       0.18859812
H        0.60647671       1.17522792       1.02355204
H        1.25592473       1.27200275      -0.59831974
11
Frame=6 idx=000742 GeodesicLength=0.5790687767651179 rxn_smarts="[O:1]=[C:2]([C:3]([C:4]([C:5]#[N:6])([H:10])[H:11])([H:8])[H:9])[H:7]>>[H:7][H:9].[O:1]=[C:2]=[C:3]([C:4]([C:5]#[N:6])([H:10])[H:11])[H:8]"
O       -2.10910840       1.26326493       0.02408292
C       -1.52733092       0.26612392      -0.28539385
C       -0.23723880      -0.25021698      -0.34246880
C        0.91635789       0.56955505       0.17071313
C        2.04371736      -0.27220590       0.56581514
N        2.92868812      -0.92849246       0.88329331
H       -2.27505081      -0.89435423      -0.54997382
H       -0.05055595      -1.00256594      -1.09951627
H       -1.55533730      -1.19741786       0.20221344
H        0.60656581       1.17449364       1.02563990
H        1.25929301       1.27181582      -0.59440510
11
Frame=7 idx=000742 GeodesicLength=0.6755495131319689 rxn_smarts="[O:1]=[C:2]([C:3]([C:4]([C:5]#[N:6])([H:10])[H:11])([H:8])[H:9])[H:7]>>[H:7][H:9].[O:1]=[C:2]=[C:3]([C:4]([C:5]#[N:6])([H:10])[H:11])[H:8]"
O       -2.10643452       1.28048606       0.00226693
C       -1.52888809       0.27834690      -0.29132297
C       -0.24011106      -0.24716209      -0.34706179
C        0.91469790       0.56918708       0.17196851
C        2.03741972      -0.27808886       0.56913563
N        2.91944538      -0.93622664       0.89107557
H       -2.28289340      -0.91506697      -0.51662250
H       -0.05339778      -0.97279959      -1.13019607
H       -1.52885798      -1.22392387       0.21389855
H        0.60646790       1.17382278       1.02752695
H        1.26255194       1.27142521      -0.59066880
11
Frame=8 idx=000742 GeodesicLength=0.7720014233726692 rxn_smarts="[O:1]=[C:2]([C:3]([C:4]([C:5]#[N:6])([H:10])[H:11])([H:8])[H:9])[H:7]>>[H:7][H:9].[O:1]=[C:2]=[C:3]([C:4]([C:5]#[N:6])([H:10])[H:11])[H:8]"
O       -2.10371993       1.29801669      -0.01948133
C       -1.53045086       0.29139756      -0.29811917
C       -0.24331351      -0.24409565      -0.35174642
C        0.91278391       0.56876151       0.17311365
C        2.03079351      -0.28400498       0.57248986
N        2.90977194      -0.94411325       0.89886021
H       -2.29023584      -0.93500241      -0.48133580
H       -0.05651335      -0.94289062      -1.15939085
H       -1.50092766      -1.25210172       0.22344021
H        0.60612136       1.17318927       1.02924130
H        1.26569044       1.27084360      -0.58707167
11
Frame=9 idx=000742 GeodesicLength=0.8684851867742556 rxn_smarts="[O:1]=[C:2]([C:3]([C:4]([C:5]#[N:6])([H:10])[H:11])([H:8])[H:9])[H:7]>>[H:7][H:9].[O:1]=[C:2]=[C:3]([C:4]([C:5]#[N:6])([H:10])[H:11])[H:8]"
O       -2.10090443       1.31595353      -0.04125137
C       -1.53200538       0.30534272      -0.30599277
C       -0.24687252      -0.24100893      -0.35657345
C        0.91056301       0.56826864       0.17415715
C        2.02376135      -0.28996378       0.57590207
N        2.89954380      -0.95216259       0.90669119
H       -2.29706513      -0.95405331      -0.44349626
H       -0.05982001      -0.91286709      -1.18721312
H       -1.47132027      -1.28214907       0.23054122
H        0.60543826       1.17254908       1.03079009
H        1.26868132       1.27009080      -0.58355474
11
Frame=10 idx=000742 GeodesicLength=0.9649675794801773 rxn_smarts="[O:1]=[C:2]([C:3]([C:4]([C:5]#[N:6])([H:10])[H:11])([H:8])[H:9])[H:7]>>[H:7][H:9].[O:1]=[C:2]=[C:3]([C:4]([C:5]#[N:6])([H:10])[H:11])[H:8]"
O       -2.09797189       1.33444349      -0.06324086
C       -1.53357534       0.32025883      -0.31519439
C       -0.25084814      -0.23789082      -0.36159496
C        0.90796662       0.56769843       0.17513576
C        2.01626453      -0.29597330       0.57942944
N        2.88872939      -0.96042572       0.91455230
H       -2.30321434      -0.97209955      -0.40229620
H       -0.06323290      -0.88277316      -1.21377277
H       -1.43989934      -1.31427710       0.23478186
H        0.60429285       1.17184613       1.03223786
H        1.27148856       1.26919278      -0.58003803
11
Frame=11 idx=000742 GeodesicLength=1.0614632281988572 rxn_smarts="[O:1]=[C:2]([C:3]([C:4]([C:5]#[N:6])([H:10])[H:11])([H:8])[H:9])[H:7]>>[H:7][H:9].[O:1]=[C:2]=[C:3]([C:4]([C:5]#[N:6])([H:10])[H:11])[H:8]"
O       -2.09487177       1.35361615      -0.08573762
C       -1.53516630       0.33620824      -0.32603977
C       -0.25529089      -0.23473773      -0.36689885
C        0.90489797       0.56703020       0.17609083
C        2.00819743      -0.30205207       0.58312744
N        2.87720835      -0.96895914       0.92243556
H       -2.30845984      -0.98890851      -0.35657407
H       -0.06663396      -0.85261388      -1.23921929
H       -1.40643758      -1.34875785       0.23555925
H        0.60250447       1.17097881       1.03365036
H        1.27405213       1.26819577      -0.57639384
11
Frame=12 idx=000742 GeodesicLength=1.1580295098003297 rxn_smarts="[O:1]=[C:2]([C:3]([C:4]([C:5]#[N:6])([H:10])[H:11])([H:8])[H:9])[H:7]>>[H:7][H:9].[O:1]=[C:2]=[C:3]([C:4]([C:5]#[N:6])([H:10])[H:11])[H:8]"
O       -2.09160000       1.37360686      -0.10919652
C       -1.53682675       0.35323466      -0.33894244
C       -0.26026199      -0.23156365      -0.37261444
C        0.90123854       0.56622605       0.17709823
C        1.99946559      -0.30823416       0.58709356
N        2.86492280      -0.97783358       0.93030294
H       -2.31246531      -1.00409841      -0.30471761
H       -0.06986752      -0.82238593      -1.26376362
H       -1.37072129      -1.38590262       0.23201205
H        0.59981965       1.16979530       1.03515944
H        1.27629628       1.26715548      -0.57243158
11
Frame=13 idx=000742 GeodesicLength=1.2545549234927036 rxn_smarts="[O:1]=[C:2]([C:3]([C:4]([C:5]#[N:6])([H:10])[H:11])([H:8])[H:9])[H:7]>>[H:7][H:9].[O:1]=[C:2]=[C:3]([C:4]([C:5]#[N:6])([H:10])[H:11])[H:8]"
O       -2.08819796       1.39454180      -0.13429977
C       -1.53864342       0.37135477      -0.35443078
C       -0.26586673      -0.22838841      -0.37893059
C        0.89681327       0.56522954       0.17827105
C        1.98990360      -0.31458203       0.59147111
N        2.85179442      -0.98717203       0.93804395
H       -2.31433743      -1.01712031      -0.24445341
H       -0.07274836      -0.79204172      -1.28769058
H       -1.33271792      -1.42604295       0.22293067
H        0.59586093       1.16806784       1.03696510
H        1.27813960       1.26615349      -0.56787675
11
Frame=14 idx=000742 GeodesicLength=1.350859003202649 rxn_smarts="[O:1]=[C:2]([C:3]([C:4]([C:5]#[N:6])([H:10])[H:11])([H:8])[H:9])[H:7]>>[H:7][H:9].[O:1]=[C:2]=[C:3]([C:4]([C:5]#[N:6])([H:10])[H:11])[H:8]"
O       -2.08459036       1.41650897      -0.16214407
C       -1.54064958       0.39048690      -0.37321568
C       -0.27221320      -0.22523927      -0.38622817
C        0.89130235       0.56395208       0.17975775
C        1.97910261      -0.32122439       0.59643795
N        2.83749138      -0.99715786       0.94553406
H       -2.31233679      -1.02706763      -0.17201019
H       -0.07501137      -0.76139810      -1.31147407
H       -1.29249071      -1.46962399       0.20627727
H        0.58999215       1.16541692       1.03930115
H        1.27940352       1.26534638      -0.56223599
11
Frame=15 idx=000742 GeodesicLength=1.4468186625084216 rxn_smarts="[O:1]=[C:2]([C:3]([C:4]([C:5]#[N:6])([H:10])[H:11])([H:8])[H:9])[H:7]>>[H:7][H:9].[O:1]=[C:2]=[C:3]([C:4]([C:5]#[N:6])([H:10])[H:11])[H:8]"
O       -2.08048302       1.43935414      -0.19427262
C       -1.54273558       0.41034469      -0.39619113
C       -0.27934915      -0.22210500      -0.39520926
C        0.88409433       0.56223295       0.18165998
C        1.96608413      -0.32844851       0.60219038
N        2.82095647      -1.00811046       0.95277382
H       -2.30283785      -1.03240716      -0.08127934
H       -0.07618304      -0.72988531      -1.33581457
H       -1.25033870      -1.51711250       0.17869850
H        0.58109641       1.16115027       1.04224230
H        1.27969599       1.26498690      -0.55479805
11
Frame=16 idx=000742 GeodesicLength=1.5428271472634396 rxn_smarts="[O:1]=[C:2]([C:3]([C:4]([C:5]#[N:6])([H:10])[H:11])([H:8])[H:9])[H:7]>>[H:7][H:9].[O:1]=[C:2]=[C:3]([C:4]([C:5]#[N:6])([H:10])[H:11])[H:8]"
O       -2.07631885       1.46233087      -0.23199721
C       -1.54519901       0.43026364      -0.42436577
C       -0.28728450      -0.21899964      -0.40708857
C        0.87450471       0.55981777       0.18397930
C        1.94966766      -0.33682453       0.60916174
N        2.80099436      -1.02043834       0.96038677
H       -2.27896729      -1.03081003       0.03557056
H       -0.07563899      -0.69678739      -1.36200482
H       -1.20824984      -1.56821481       0.13551540
H        0.56772865       1.15450522       1.04575697
H        1.27876309       1.26515722      -0.54491438
