14
Frame=0 idx=005306 GeodesicLength=0.0 rxn_smarts="[C:1]([N:2]([C:3](=[O:4])[N:5]([C:6]([H:12])([H:13])[H:14])[H:11])[H:10])([H:7])([H:8])[H:9]>>[C-:1]([N:2]([C+:3]([O:4][H:8])[N:5]([C:6]([H:12])([H:13])[H:14])[H:11])[H:10])([H:7])[H:9]"
C       -2.30924185      -0.31757451       0.25607990
N       -0.94127617      -0.22404523       0.32833679
C       -0.13055755       0.70667388      -0.08875779
O       -0.65809677       1.85638536      -0.55988760
N        1.22775144       0.49601823      -0.34353539
C        1.80808790      -0.78277313      -0.00248816
H       -2.73290809      -1.04505100       0.93195919
H       -0.65351602       1.84737814      -1.52624531
H       -2.83372476       0.61045769       0.09180183
H       -0.48359527      -1.03934861       0.70914778
H        1.77963883       1.27561613      -0.01369107
H        2.86940511      -0.76434078      -0.24472418
H        1.71146064      -1.04751828       1.06214710
H        1.34657259      -1.57187795      -0.60014304
14
Frame=1 idx=005306 GeodesicLength=0.1569032697345224 rxn_smarts="[C:1]([N:2]([C:3](=[O:4])[N:5]([C:6]([H:12])([H:13])[H:14])[H:11])[H:10])([H:7])([H:8])[H:9]>>[C-:1]([N:2]([C+:3]([O:4][H:8])[N:5]([C:6]([H:12])([H:13])[H:14])[H:11])[H:10])([H:7])[H:9]"
C       -2.31360420      -0.32170200       0.29006089
N       -0.94529977      -0.23525649       0.35828581
C       -0.13795248       0.67294530      -0.11596407
O       -0.70416608       1.80413078      -0.56753354
N        1.22980849       0.49770845      -0.31900733
C        1.82480882      -0.78669865      -0.02935730
H       -2.78438622      -0.98640036       0.99947895
H       -0.58976945       1.93709941      -1.54371815
H       -2.85276273       0.55384421      -0.03718959
H       -0.48318500      -1.00992944       0.81155026
H        1.76153467       1.27076665       0.05538401
H        2.88180120      -0.75246701      -0.28952197
H        1.75223225      -1.08113539       1.02919871
H        1.36094049      -1.56290545      -0.64166669
14
Frame=2 idx=005306 GeodesicLength=0.3123953763278711 rxn_smarts="[C:1]([N:2]([C:3](=[O:4])[N:5]([C:6]([H:12])([H:13])[H:14])[H:11])[H:10])([H:7])([H:8])[H:9]>>[C-:1]([N:2]([C+:3]([O:4][H:8])[N:5]([C:6]([H:12])([H:13])[H:14])[H:11])[H:10])([H:7])[H:9]"
C       -2.32095807      -0.31354130       0.33479365
N       -0.95049735      -0.24870121       0.38118240
C       -0.14680706       0.63332494      -0.15103121
O       -0.74942120       1.73793250      -0.60367764
N        1.22981244       0.49769008      -0.29246542
C        1.84242124      -0.78926399      -0.05571258
H       -2.83568647      -0.91974679       1.06665628
H       -0.51926998       2.03458038      -1.55055485
H       -2.86603985       0.48582964      -0.14464065
H       -0.48504837      -0.97690080       0.90289590
H        1.73488915       1.26182223       0.13333734
H        2.89652660      -0.73285991      -0.32511284
H        1.78682828      -1.11889532       0.99349091
H        1.38325064      -1.55127046      -0.68916128
14
Frame=3 idx=005306 GeodesicLength=0.4654690307144868 rxn_smarts="[C:1]([N:2]([C:3](=[O:4])[N:5]([C:6]([H:12])([H:13])[H:14])[H:11])[H:10])([H:7])([H:8])[H:9]>>[C-:1]([N:2]([C+:3]([O:4][H:8])[N:5]([C:6]([H:12])([H:13])[H:14])[H:11])[H:10])([H:7])[H:9]"
C       -2.33066837      -0.28805772       0.38880295
N       -0.95743492      -0.26390889       0.39773394
C       -0.15552036       0.58808187      -0.18973329
O       -0.79090330       1.65209405      -0.67826849
N        1.22736701       0.49505768      -0.26397957
C        1.86230270      -0.78977332      -0.08085200
H       -2.88650200      -0.85069227       1.12656127
H       -0.44736323       2.13540335      -1.54090749
H       -2.87744730       0.41695512      -0.22130186
H       -0.49027915      -0.94249237       0.98153310
H        1.69890930       1.24730561       0.21706660
H        2.91496846      -0.70454728      -0.34982767
H        1.81685003      -1.15989020       0.95501813
H        1.41572112      -1.53553563      -0.74184563
14
Frame=4 idx=005306 GeodesicLength=0.614942546550689 rxn_smarts="[C:1]([N:2]([C:3](=[O:4])[N:5]([C:6]([H:12])([H:13])[H:14])[H:11])[H:10])([H:7])([H:8])[H:9]>>[C-:1]([N:2]([C+:3]([O:4][H:8])[N:5]([C:6]([H:12])([H:13])[H:14])[H:11])[H:10])([H:7])[H:9]"
C       -2.34136365      -0.23215010       0.45692991
N       -0.96660845      -0.27756141       0.41009308
C       -0.16129272       0.53737666      -0.23164849
O       -0.82105583       1.54118661      -0.79909943
N        1.22458556       0.48800523      -0.23872839
C        1.88699183      -0.78967760      -0.10242770
H       -2.93862608      -0.80011582       1.15953321
H       -0.39488652       2.23691708      -1.50209488
H       -2.89105959       0.36609218      -0.25952705
H       -0.49943547      -0.90623480       1.04932553
H        1.65697636       1.22760595       0.29467413
H        2.93974563      -0.67154802      -0.36183507
H        1.84552268      -1.20019379       0.91779183
H        1.46050623      -1.51970216      -0.79298667
14
Frame=5 idx=005306 GeodesicLength=0.7585860395195616 rxn_smarts="[C:1]([N:2]([C:3](=[O:4])[N:5]([C:6]([H:12])([H:13])[H:14])[H:11])[H:10])([H:7])([H:8])[H:9]>>[C-:1]([N:2]([C+:3]([O:4][H:8])[N:5]([C:6]([H:12])([H:13])[H:14])[H:11])[H:10])([H:7])[H:9]"
C       -2.34479559      -0.16352622       0.50636105
N       -0.97590532      -0.29541581       0.41279498
C       -0.16135938       0.47832201      -0.27154031
O       -0.83088775       1.40263729      -0.94511540
N        1.22186892       0.47591952      -0.21231700
C        1.91689722      -0.78733961      -0.12196390
H       -2.98677005      -0.70053262       1.19946819
H       -0.40519120       2.31578812      -1.41312165
H       -2.89305117       0.32227119      -0.29271752
H       -0.51365472      -0.87845546       1.09711730
H        1.61048200       1.19965991       0.37262408
H        2.96903098      -0.62946503      -0.36080752
H        1.87398624      -1.24229899       0.87848216
H        1.51934982      -1.49756429      -0.84926446
14
Frame=6 idx=005306 GeodesicLength=0.9167592184478324 rxn_smarts="[C:1]([N:2]([C:3](=[O:4])[N:5]([C:6]([H:12])([H:13])[H:14])[H:11])[H:10])([H:7])([H:8])[H:9]>>[C-:1]([N:2]([C+:3]([O:4][H:8])[N:5]([C:6]([H:12])([H:13])[H:14])[H:11])[H:10])([H:7])[H:9]"
C       -2.34286773      -0.08170752       0.53541016
N       -0.98671802      -0.32021936       0.40009215
C       -0.15406372       0.40938454      -0.32015227
O       -0.81548484       1.26567275      -1.08449286
N        1.22394016       0.45848017      -0.19072774
C        1.95846864      -0.78711936      -0.13725778
H       -3.03175793      -0.55716606       1.24045662
H       -0.50719613       2.35606595      -1.28573403
H       -2.89414854       0.30264711      -0.32119461
H       -0.53254565      -0.86146049       1.12727856
H        1.56325366       1.16631574       0.44273516
H        3.01127851      -0.58560703      -0.34175871
H        1.90691692      -1.28845447       0.84001559
H        1.60092468      -1.47683197      -0.90467022
14
Frame=7 idx=005306 GeodesicLength=1.0819972317996618 rxn_smarts="[C:1]([N:2]([C:3](=[O:4])[N:5]([C:6]([H:12])([H:13])[H:14])[H:11])[H:10])([H:7])([H:8])[H:9]>>[C-:1]([N:2]([C+:3]([O:4][H:8])[N:5]([C:6]([H:12])([H:13])[H:14])[H:11])[H:10])([H:7])[H:9]"
C       -2.33413081       0.00360464       0.53688755
N       -0.99210189      -0.31832521       0.41390151
C       -0.14198634       0.34630716      -0.34919444
O       -0.78567922       1.15105160      -1.17364081
N        1.22621007       0.43650566      -0.17234738
C        1.99266745      -0.78924795      -0.15941880
H       -3.06785108      -0.40584592       1.23261347
H       -0.65365748       2.33588366      -1.12951202
H       -2.87101273       0.25370297      -0.37610384
H       -0.54963260      -0.80154568       1.18590785
H        1.53114669       1.12493553       0.49700185
H        3.04221323      -0.55180682      -0.34087277
H        1.94007343      -1.33182629       0.79547937
H        1.66374128      -1.45339333      -0.96070153
14
Frame=8 idx=005306 GeodesicLength=1.2565445889963194 rxn_smarts="[C:1]([N:2]([C:3](=[O:4])[N:5]([C:6]([H:12])([H:13])[H:14])[H:11])[H:10])([H:7])([H:8])[H:9]>>[C-:1]([N:2]([C+:3]([O:4][H:8])[N:5]([C:6]([H:12])([H:13])[H:14])[H:11])[H:10])([H:7])[H:9]"
C       -2.32667669       0.07729020       0.52587762
N       -0.99909828      -0.31843801       0.42526045
C       -0.12831359       0.28862494      -0.36791964
O       -0.74749727       1.06234811      -1.23760244
N        1.22961252       0.41520579      -0.14632644
C        2.02853741      -0.78969054      -0.18303903
H       -3.10326445      -0.23543486       1.22952589
H       -0.81118669       2.27925163      -1.00539458
H       -2.85333090       0.20421119      -0.42096337
H       -0.57027268      -0.74490879       1.23841187
H        1.50337257       1.07858145       0.55958959
H        3.07390665      -0.51641743      -0.33313655
H        1.97371361      -1.38342795       0.73993333
H        1.73049778      -1.41719574      -1.02421671
14
Frame=9 idx=005306 GeodesicLength=1.4390520934938276 rxn_smarts="[C:1]([N:2]([C:3](=[O:4])[N:5]([C:6]([H:12])([H:13])[H:14])[H:11])[H:10])([H:7])([H:8])[H:9]>>[C-:1]([N:2]([C+:3]([O:4][H:8])[N:5]([C:6]([H:12])([H:13])[H:14])[H:11])[H:10])([H:7])[H:9]"
C       -2.32448536       0.13447589       0.50171073
N       -1.00356555      -0.30328745       0.45333953
C       -0.11526283       0.24322992      -0.36840888
O       -0.70953408       0.99570951      -1.27072793
N        1.23523986       0.39352567      -0.11841722
C        2.05913863      -0.79220198      -0.21213115
H       -3.14383991      -0.07440216       1.19564393
H       -0.95835097       2.20562966      -0.89075383
H       -2.83042454       0.12605372      -0.46657632
H       -0.58909454      -0.65373454       1.30923558
H        1.49300707       1.02962939       0.61758170
H        3.10055347      -0.49077081      -0.33744093
H        2.00709460      -1.43671600       0.67679872
H        1.77952414      -1.37714081      -1.08985393
14
Frame=10 idx=005306 GeodesicLength=1.6257887374529658 rxn_smarts="[C:1]([N:2]([C:3](=[O:4])[N:5]([C:6]([H:12])([H:13])[H:14])[H:11])[H:10])([H:7])([H:8])[H:9]>>[C-:1]([N:2]([C+:3]([O:4][H:8])[N:5]([C:6]([H:12])([H:13])[H:14])[H:11])[H:10])([H:7])[H:9]"
C       -2.32445164       0.17844674       0.47605738
N       -1.00719980      -0.28123190       0.48961501
C       -0.10354993       0.20625747      -0.35692344
O       -0.67159153       0.93964019      -1.28980079
N        1.24136373       0.37120323      -0.08583854
C        2.08579778      -0.79430440      -0.24395164
H       -3.18555375       0.07736180       1.14456840
H       -1.09272478       2.12436368      -0.80118033
H       -2.80539850       0.03930598      -0.49738201
H       -0.60771787      -0.54702390       1.38287093
H        1.49010682       0.97594067       0.67892845
H        3.12345278      -0.47030447      -0.34168558
H        2.03588576      -1.49224450       0.60345535
H        1.82158093      -1.32741059      -1.15873319
14
Frame=11 idx=005306 GeodesicLength=1.8146684087177847 rxn_smarts="[C:1]([N:2]([C:3](=[O:4])[N:5]([C:6]([H:12])([H:13])[H:14])[H:11])[H:10])([H:7])([H:8])[H:9]>>[C-:1]([N:2]([C+:3]([O:4][H:8])[N:5]([C:6]([H:12])([H:13])[H:14])[H:11])[H:10])([H:7])[H:9]"
C       -2.32574591       0.21148720       0.45138831
N       -1.00890209      -0.24935189       0.53535847
C       -0.09314148       0.17660583      -0.33482180
O       -0.63465436       0.88847015      -1.29836421
N        1.24780343       0.34708741      -0.04980908
C        2.10679456      -0.79620383      -0.27833556
H       -3.22809312       0.21009994       1.07214628
H       -1.21246553       2.04261812      -0.73022989
H       -2.77486749      -0.05519094      -0.51291378
H       -0.62448361      -0.41863729       1.45893109
H        1.49436122       0.91634214       0.74174710
H        3.14165746      -0.45635888      -0.34591626
H        2.05646506      -1.54893950       0.52007369
H        1.85527185      -1.26802846      -1.22925435
14
Frame=12 idx=005306 GeodesicLength=2.0050856891559996 rxn_smarts="[C:1]([N:2]([C:3](=[O:4])[N:5]([C:6]([H:12])([H:13])[H:14])[H:11])[H:10])([H:7])([H:8])[H:9]>>[C-:1]([N:2]([C+:3]([O:4][H:8])[N:5]([C:6]([H:12])([H:13])[H:14])[H:11])[H:10])([H:7])[H:9]"
C       -2.32902167       0.23675348       0.43002758
N       -1.01069447      -0.20911999       0.58757197
C       -0.08445295       0.15066053      -0.30518154
O       -0.59985038       0.83582583      -1.30073514
N        1.25434284       0.32032067      -0.01103991
C        2.12444360      -0.79748859      -0.31454985
H       -3.27175933       0.32451626       0.98193961
H       -1.31667990       1.96464085      -0.67282909
H       -2.74116928      -0.15268109      -0.51094390
H       -0.64219272      -0.27150138       1.53143208
H        1.50344707       0.85051386       0.80589667
H        3.15761937      -0.44739016      -0.34848342
H        2.07150439      -1.60586099       0.42657816
H        1.88446343      -1.19918928      -1.29968322
14
Frame=13 idx=005306 GeodesicLength=2.196252294598671 rxn_smarts="[C:1]([N:2]([C:3](=[O:4])[N:5]([C:6]([H:12])([H:13])[H:14])[H:11])[H:10])([H:7])([H:8])[H:9]>>[C-:1]([N:2]([C+:3]([O:4][H:8])[N:5]([C:6]([H:12])([H:13])[H:14])[H:11])[H:10])([H:7])[H:9]"
C       -2.33322223       0.25722683       0.41389537
N       -1.01384437      -0.16382824       0.64221083
C       -0.07814143       0.12351631      -0.27129607
O       -0.56824854       0.77447134      -1.30088242
N        1.25939967       0.28958266       0.02973761
C        2.14044984      -0.79643219      -0.35130691
H       -3.31240041       0.42752065       0.87835777
H       -1.40581254       1.89139000      -0.62480811
H       -2.70808282      -0.24667423      -0.48977866
H       -0.66150161      -0.11402518       1.59351870
H        1.51276597       0.77688985       0.87129654
H        3.17208901      -0.43999199      -0.34697494
H        2.08349103      -1.66011849       0.32345163
H        1.91305844      -1.11952734      -1.36742135
14
Frame=14 idx=005306 GeodesicLength=2.3877589623071134 rxn_smarts="[C:1]([N:2]([C:3](=[O:4])[N:5]([C:6]([H:12])([H:13])[H:14])[H:11])[H:10])([H:7])([H:8])[H:9]>>[C-:1]([N:2]([C+:3]([O:4][H:8])[N:5]([C:6]([H:12])([H:13])[H:14])[H:11])[H:10])([H:7])[H:9]"
C       -2.33756873       0.27544666       0.40331776
N       -1.01822404      -0.11433915       0.69658641
C       -0.07461180       0.09264160      -0.23515491
O       -0.54063962       0.70038733      -1.30059722
N        1.26201935       0.25411993       0.07140046
C        2.15512099      -0.79220794      -0.38756220
H       -3.34607711       0.52021470       0.76325825
H       -1.48140268       1.82479469      -0.58122136
H       -2.67796342      -0.33388731      -0.44983161
H       -0.68064187       0.04978846       1.64095048
H        1.51960063       0.69425931       0.93703501
H        3.18482060      -0.43309633      -0.34050160
H        2.09326265      -1.70878259       0.21208559
H        1.94230505      -1.02933936      -1.42976507
14
Frame=15 idx=005306 GeodesicLength=2.579426296611087 rxn_smarts="[C:1]([N:2]([C:3](=[O:4])[N:5]([C:6]([H:12])([H:13])[H:14])[H:11])[H:10])([H:7])([H:8])[H:9]>>[C-:1]([N:2]([C+:3]([O:4][H:8])[N:5]([C:6]([H:12])([H:13])[H:14])[H:11])[H:10])([H:7])[H:9]"
C       -2.34198782       0.29453034       0.39745176
N       -1.02366106      -0.06100792       0.74808757
C       -0.07426708       0.05659253      -0.19815290
O       -0.51771072       0.61084925      -1.30068540
N        1.26169613       0.21362523       0.11295958
C        2.16885962      -0.78441986      -0.42231398
H       -3.37048106       0.60026392       0.63994726
H       -1.54464975       1.76770729      -0.53835940
H       -2.65310228      -0.41108785      -0.39263727
H       -0.69760131       0.21676404       1.67032897
H        1.52197448       0.60181393       1.00217842
H        3.19580987      -0.42603392      -0.32928646
H        2.10241644      -1.74936778       0.09449647
H        1.97270454      -0.93022919      -1.48401461
14
Frame=16 idx=005306 GeodesicLength=2.771128806116714 rxn_smarts="[C:1]([N:2]([C:3](=[O:4])[N:5]([C:6]([H:12])([H:13])[H:14])[H:11])[H:10])([H:7])([H:8])[H:9]>>[C-:1]([N:2]([C+:3]([O:4][H:8])[N:5]([C:6]([H:12])([H:13])[H:14])[H:11])[H:10])([H:7])[H:9]"
C       -2.34635761       0.31729537       0.39456592
N       -1.02989686      -0.00461114       0.79443192
C       -0.07744888       0.01398332      -0.16093350
O       -0.50009875       0.50229507      -1.30113322
N        1.25801907       0.16787547       0.15389527
C        2.18212271      -0.77232164      -0.45477540
H       -3.38453014       0.66708775       0.51271874
H       -1.59625101       1.72230506      -0.49462229
H       -2.63569615      -0.47538559      -0.32014015
H       -0.71037588       0.38303758       1.67939889
H        1.51826352       0.49838970       1.06614139
H        3.20494486      -0.41735302      -0.31373521
H        2.11329741      -1.77968683      -0.02772529
H        2.00400771      -0.82291108      -1.52808709
