15
Frame=0 idx=010625 GeodesicLength=0.0 rxn_smarts="[O:1]=[C:2]1[C:3]([H:8])([H:9])[C:4]([H:10])([H:11])[C@@:5]2([H:12])[C:6]([H:13])([H:14])[C@@:7]12[H:15]>>[O:1]1[C@:2]2([C:3]([H:8])([H:9])[C:4]1([H:10])[H:11])[C@@:5]1([H:12])[C:6]([H:13])([H:14])[C@@:7]21[H:15]"
O       -0.77931320       0.88620618       1.61476516
C       -0.14853133       0.60591123       0.52874346
C       -1.17048288       0.48471560      -0.58311866
C       -1.90774574      -0.64233926      -0.04822505
C        0.87862386      -0.64532109       0.52917194
C        1.70317545      -0.24619859      -0.62963513
C        1.30871134       0.78330674       0.37383266
H       -0.81365368       0.27248167      -1.60302973
H       -1.79730119       1.38618696      -0.64990165
H       -1.55231764      -1.13908874       0.84045010
H       -2.79027135      -1.04677017      -0.54258101
H        1.11761933      -1.28215746       1.36587500
H        1.27488496      -0.21147988      -1.63128562
H        2.74355338      -0.55159299      -0.61282683
H        1.93304865       1.34613986       1.04776537
15
Frame=1 idx=010625 GeodesicLength=0.07506002413355117 rxn_smarts="[O:1]=[C:2]1[C:3]([H:8])([H:9])[C:4]([H:10])([H:11])[C@@:5]2([H:12])[C:6]([H:13])([H:14])[C@@:7]12[H:15]>>[O:1]1[C@:2]2([C:3]([H:8])([H:9])[C:4]1([H:10])[H:11])[C@@:5]1([H:12])[C:6]([H:13])([H:14])[C@@:7]21[H:15]"
O       -0.79288856       0.90241756       1.60133372
C       -0.15031401       0.62922847       0.51926363
C       -1.16997564       0.49068121      -0.59262568
C       -1.87587439      -0.65125771      -0.03708394
C        0.86512858      -0.64941328       0.51866615
C        1.70191922      -0.24521370      -0.63019369
C        1.30985992       0.77719127       0.38167603
H       -0.81558953       0.28061183      -1.61283150
H       -1.81201759       1.37995532      -0.66432229
H       -1.55605030      -1.14811762       0.86501505
H       -2.77091081      -1.04630381      -0.51742247
H        1.10731884      -1.29513027       1.34804914
H        1.28351280      -0.19459631      -1.63490636
H        2.74025754      -0.55711970      -0.60960726
H        1.93562393       1.32706674       1.06498945
15
Frame=2 idx=010625 GeodesicLength=0.1501509360623257 rxn_smarts="[O:1]=[C:2]1[C:3]([H:8])([H:9])[C:4]([H:10])([H:11])[C@@:5]2([H:12])[C:6]([H:13])([H:14])[C@@:7]12[H:15]>>[O:1]1[C@:2]2([C:3]([H:8])([H:9])[C:4]1([H:10])[H:11])[C@@:5]1([H:12])[C:6]([H:13])([H:14])[C@@:7]21[H:15]"
O       -0.80623416       0.91803920       1.58776346
C       -0.15194754       0.65213415       0.50964403
C       -1.16947893       0.49614417      -0.60200148
C       -1.84458458      -0.65890243      -0.02514078
C        0.85211607      -0.65353267       0.50815027
C        1.70087157      -0.24399268      -0.63067382
C        1.31047624       0.77096756       0.38956265
H       -0.81780196       0.28727060      -1.62240114
H       -1.82596784       1.37332534      -0.67902104
H       -1.56022997      -1.15739986       0.88811259
H       -2.75182879      -1.04427302      -0.49150525
H        1.09769348      -1.30825717       1.32989653
H        1.29244262      -0.17786021      -1.63817002
H        2.73730980      -0.56180406      -0.60636336
H        1.93716401       1.30814109       1.08214736
15
Frame=3 idx=010625 GeodesicLength=0.22528887137518094 rxn_smarts="[O:1]=[C:2]1[C:3]([H:8])([H:9])[C:4]([H:10])([H:11])[C@@:5]2([H:12])[C:6]([H:13])([H:14])[C@@:7]12[H:15]>>[O:1]1[C@:2]2([C:3]([H:8])([H:9])[C:4]1([H:10])[H:11])[C@@:5]1([H:12])[C:6]([H:13])([H:14])[C@@:7]21[H:15]"
O       -0.81924424       0.93322090       1.57411123
C       -0.15342056       0.67468872       0.49992886
C       -1.16899981       0.50117248      -0.61113733
C       -1.81403342      -0.66515341      -0.01223738
C        0.83953945      -0.65768925       0.49764892
C        1.69994216      -0.24259245      -0.63107213
C        1.31055063       0.76463713       0.39745064
H       -0.82033598       0.29251220      -1.63162427
H       -1.83912957       1.36642532      -0.69387970
H       -1.56470436      -1.16695100       0.90974305
H       -2.73271800      -1.04105441      -0.46534569
H        1.08869500      -1.32151127       1.31144481
H        1.30153055      -0.16132758      -1.64104797
H        2.73459935      -0.56575174      -0.60310768
H        1.93772880       1.28937436       1.09912464
15
Frame=4 idx=010625 GeodesicLength=0.3004293710959369 rxn_smarts="[O:1]=[C:2]1[C:3]([H:8])([H:9])[C:4]([H:10])([H:11])[C@@:5]2([H:12])[C:6]([H:13])([H:14])[C@@:7]12[H:15]>>[O:1]1[C@:2]2([C:3]([H:8])([H:9])[C:4]1([H:10])[H:11])[C@@:5]1([H:12])[C:6]([H:13])([H:14])[C@@:7]21[H:15]"
O       -0.83182478       0.94814340       1.56040618
C       -0.15472801       0.69694577       0.49013745
C       -1.16855868       0.50582025      -0.61996992
C       -1.78439319      -0.66991469       0.00167256
C        0.82734112      -0.66188921       0.48714329
C        1.69907486      -0.24103398      -0.63140058
C        1.31011224       0.75818874       0.40533238
H       -0.82324487       0.29638888      -1.64043518
H       -1.85148276       1.35934799      -0.70883488
H       -1.56943851      -1.17669695       0.93006048
H       -2.71324310      -1.03709122      -0.43927842
H        1.08022024      -1.33489407       1.29265151
H        1.31069467      -0.14499326      -1.64355297
H        2.73205628      -0.56901970      -0.59986549
H        1.93741449       1.27069805       1.11593358
15
Frame=5 idx=010625 GeodesicLength=0.375596582262667 rxn_smarts="[O:1]=[C:2]1[C:3]([H:8])([H:9])[C:4]([H:10])([H:11])[C@@:5]2([H:12])[C:6]([H:13])([H:14])[C@@:7]12[H:15]>>[O:1]1[C@:2]2([C:3]([H:8])([H:9])[C:4]1([H:10])[H:11])[C@@:5]1([H:12])[C:6]([H:13])([H:14])[C@@:7]21[H:15]"
O       -0.84396134       0.96291866       1.54673050
C       -0.15587510       0.71894059       0.48030410
C       -1.16819159       0.51013469      -0.62846779
C       -1.75573256      -0.67318814       0.01664423
C        0.81553725      -0.66615314       0.47667618
C        1.69828926      -0.23936072      -0.63167380
C        1.30918433       0.75162400       0.41318306
H       -0.82655508       0.29898520      -1.64883432
H       -1.86314101       1.35216059      -0.72382145
H       -1.57432744      -1.18667944       0.94912393
H       -2.69346450      -1.03252857      -0.41361998
H        1.07230200      -1.34839590       1.27360894
H        1.31991112      -0.12889719      -1.64572813
H        2.72973082      -0.57168623      -0.59664547
H        1.93629384       1.25212561       1.13251999
15
Frame=6 idx=010625 GeodesicLength=0.4507779849565155 rxn_smarts="[O:1]=[C:2]1[C:3]([H:8])([H:9])[C:4]([H:10])([H:11])[C@@:5]2([H:12])[C:6]([H:13])([H:14])[C@@:7]12[H:15]>>[O:1]1[C@:2]2([C:3]([H:8])([H:9])[C:4]1([H:10])[H:11])[C@@:5]1([H:12])[C:6]([H:13])([H:14])[C@@:7]21[H:15]"
O       -0.85560995       0.97763694       1.53308405
C       -0.15685315       0.74069243       0.47042958
C       -1.16788413       0.51413552      -0.63660434
C       -1.72804900      -0.67501789       0.03264877
C        0.80410313      -0.67049254       0.46624412
C        1.69755963      -0.23759036      -0.63188327
C        1.30777115       0.74494551       0.42098557
H       -0.83025363       0.30036973      -1.65678427
H       -1.87412335       1.34488005      -0.73877234
H       -1.57928932      -1.19691443       0.96696915
H       -2.67339292      -1.02746483      -0.38849157
H        1.06489537      -1.36200051       1.25431390
H        1.32913909      -0.11306014      -1.64756413
H        2.72758692      -0.57378133      -0.59342754
H        1.93440017       1.23366184       1.14885235
15
Frame=7 idx=010625 GeodesicLength=0.5259662066797507 rxn_smarts="[O:1]=[C:2]1[C:3]([H:8])([H:9])[C:4]([H:10])([H:11])[C@@:5]2([H:12])[C:6]([H:13])([H:14])[C@@:7]12[H:15]>>[O:1]1[C@:2]2([C:3]([H:8])([H:9])[C:4]1([H:10])[H:11])[C@@:5]1([H:12])[C:6]([H:13])([H:14])[C@@:7]21[H:15]"
O       -0.86674948       0.99237655       1.51947806
C       -0.15765882       0.76221761       0.46051633
C       -1.16763295       0.51784343      -0.64436696
C       -1.70132094      -0.67546085       0.04964190
C        0.79302755      -0.67492144       0.45584917
C        1.69688132      -0.23574158      -0.63202620
C        1.30588268       0.73815480       0.42872639
H       -0.83433013       0.30062229      -1.66427201
H       -1.88448110       1.33751522      -0.75363077
H       -1.58426440      -1.20741524       0.98362753
H       -2.65307785      -1.02196635      -0.36397208
H        1.05797557      -1.37569434       1.23478308
H        1.33835807      -0.09750488      -1.64907045
H        2.72562076      -0.57533782      -0.59019445
H        1.93176972       1.21531261       1.16491047
15
Frame=8 idx=010625 GeodesicLength=0.6011581510834316 rxn_smarts="[O:1]=[C:2]1[C:3]([H:8])([H:9])[C:4]([H:10])([H:11])[C@@:5]2([H:12])[C:6]([H:13])([H:14])[C@@:7]12[H:15]>>[O:1]1[C@:2]2([C:3]([H:8])([H:9])[C:4]1([H:10])[H:11])[C@@:5]1([H:12])[C:6]([H:13])([H:14])[C@@:7]21[H:15]"
O       -0.87736451       1.00721066       1.50591952
C       -0.15828802       0.78353246       0.45056323
C       -1.16743500       0.52127854      -0.65174668
C       -1.67550865      -0.67457830       0.06757683
C        0.78229694      -0.67945317       0.44549161
C        1.69625037      -0.23383214      -0.63210009
C        1.30352869       0.73125316       0.43639273
H       -0.83877420       0.29982458      -1.67128750
H       -1.89427004       1.33006742      -0.76834254
H       -1.58920745      -1.21818709       0.99911995
H       -2.63255780      -1.01609282      -0.34011281
H        1.05151343      -1.38946542       1.21503343
H        1.34755203      -0.08224973      -1.65025840
H        2.72382814      -0.57638896      -0.58692767
H        1.92843608       1.19708078       1.18067840
15
Frame=9 idx=010625 GeodesicLength=0.676346993025456 rxn_smarts="[O:1]=[C:2]1[C:3]([H:8])([H:9])[C:4]([H:10])([H:11])[C@@:5]2([H:12])[C:6]([H:13])([H:14])[C@@:7]12[H:15]>>[O:1]1[C@:2]2([C:3]([H:8])([H:9])[C:4]1([H:10])[H:11])[C@@:5]1([H:12])[C:6]([H:13])([H:14])[C@@:7]21[H:15]"
O       -0.88745820       1.02220695       1.49241479
C       -0.15874209       0.80465198       0.44056657
C       -1.16729913       0.52446035      -0.65874464
C       -1.65057888      -0.67242674       0.08640402
C        0.77190252      -0.68410153       0.43516871
C        1.69568046      -0.23187536      -0.63210732
C        1.30072711       0.72423778       0.44397644
H       -0.84358315       0.29805623      -1.67783490
H       -1.90356294       1.32253415      -0.78287070
H       -1.59409964      -1.22921976       1.01347526
H       -2.61186715      -1.00990277      -0.31692283
H        1.04548417      -1.40331163       1.19507915
H        1.35672691      -0.06729968      -1.65115222
H        2.72223038      -0.57696505      -0.58361065
H        1.92443963       1.17895507       1.19615831
15
Frame=10 idx=010625 GeodesicLength=0.7515487391471624 rxn_smarts="[O:1]=[C:2]1[C:3]([H:8])([H:9])[C:4]([H:10])([H:11])[C@@:5]2([H:12])[C:6]([H:13])([H:14])[C@@:7]12[H:15]>>[O:1]1[C@:2]2([C:3]([H:8])([H:9])[C:4]1([H:10])[H:11])[C@@:5]1([H:12])[C:6]([H:13])([H:14])[C@@:7]21[H:15]"
O       -0.89697952       1.03745094       1.47895510
C       -0.15899713       0.82560601       0.43052585
C       -1.16720066       0.52741848      -0.66531879
C       -1.62643989      -0.66904253       0.10611781
C        0.76179374      -0.68886995       0.42488186
C        1.69510555      -0.22990706      -0.63202971
C        1.29745491       0.71711629       0.45144996
H       -0.84874449       0.29539961      -1.68385123
H       -1.91237821       1.31491448      -0.79710947
H       -1.59884484      -1.24050654       1.02660866
H       -2.59090106      -1.00350623      -0.29452102
H        1.03981816      -1.41719562       1.17493624
H        1.36580487      -0.05270632      -1.65172241
H        2.72073042      -0.57712897      -0.58021179
H        1.91977815       1.16095740       1.21128894
15
Frame=11 idx=010625 GeodesicLength=0.8267723768966024 rxn_smarts="[O:1]=[C:2]1[C:3]([H:8])([H:9])[C:4]([H:10])([H:11])[C@@:5]2([H:12])[C:6]([H:13])([H:14])[C@@:7]12[H:15]>>[O:1]1[C@:2]2([C:3]([H:8])([H:9])[C:4]1([H:10])[H:11])[C@@:5]1([H:12])[C:6]([H:13])([H:14])[C@@:7]21[H:15]"
O       -0.90595678       1.05302010       1.46553420
C       -0.15906332       0.84640452       0.42041645
C       -1.16716108       0.53015198      -0.67149137
C       -1.60305502      -0.66449521       0.12667270
C        0.75198011      -0.69377015       0.41460305
C        1.69458136      -0.22791603      -0.63188708
C        1.29375065       0.70987945       0.45882615
H       -0.85426148       0.29189837      -1.68936848
H       -1.92081456       1.30717799      -0.81107087
H       -1.60350466      -1.25198101       1.03864903
H       -2.56974276      -0.99694709      -0.27285264
H        1.03449577      -1.43114853       1.15457628
H        1.37485845      -0.03840733      -1.65202399
H        2.71939953      -0.57688723      -0.57673415
H        1.91449379       1.14302017       1.22615071
15
Frame=12 idx=010625 GeodesicLength=0.9020075234730859 rxn_smarts="[O:1]=[C:2]1[C:3]([H:8])([H:9])[C:4]([H:10])([H:11])[C@@:5]2([H:12])[C:6]([H:13])([H:14])[C@@:7]12[H:15]>>[O:1]1[C@:2]2([C:3]([H:8])([H:9])[C:4]1([H:10])[H:11])[C@@:5]1([H:12])[C:6]([H:13])([H:14])[C@@:7]21[H:15]"
O       -0.91435676       1.06897992       1.45216893
C       -0.15892635       0.86707842       0.41025228
C       -1.16718227       0.53270937      -0.67722226
C       -1.58037934      -0.65878335       0.14805433
C        0.74240866      -0.69880605       0.40434901
C        1.69405258      -0.22594800      -0.63166635
C        1.28960635       0.70253221       0.46607535
H       -0.86014918       0.28766295      -1.69434059
H       -1.92890589       1.29935045      -0.82464802
H       -1.60801556      -1.26362689       1.04950260
H       -2.54818653      -0.99040090      -0.25205039
H        1.02944578      -1.44512965       1.13405267
H        1.38380710      -0.02448811      -1.65204983
H        2.71816736      -0.57631162      -0.57315001
H        1.90861405       1.12518124       1.24067229
15
Frame=13 idx=010625 GeodesicLength=0.977262987470138 rxn_smarts="[O:1]=[C:2]1[C:3]([H:8])([H:9])[C:4]([H:10])([H:11])[C@@:5]2([H:12])[C:6]([H:13])([H:14])[C@@:7]12[H:15]>>[O:1]1[C@:2]2([C:3]([H:8])([H:9])[C:4]1([H:10])[H:11])[C@@:5]1([H:12])[C:6]([H:13])([H:14])[C@@:7]21[H:15]"
O       -0.92217640       1.08539759       1.43886891
C       -0.15857707       0.88764925       0.40002957
C       -1.16727807       0.53511899      -0.68249233
C       -1.55835544      -0.65194170       0.17025990
C        0.73305438      -0.70398051       0.39412394
C        1.69351279      -0.22402869      -0.63137054
C        1.28503408       0.69507476       0.47318309
H       -0.86642003       0.28277814      -1.69875087
H       -1.93673192       1.29142767      -0.83777676
H       -1.61236668      -1.27538049       1.05915835
H       -2.52615943      -0.98399661      -0.23220621
H        1.02462575      -1.45912312       1.11339955
H        1.39263960      -0.01097047      -1.65182161
H        2.71702519      -0.57545449      -0.56944874
H        1.90217325       1.10742967       1.25484376
15
Frame=14 idx=010625 GeodesicLength=1.0525527161330366 rxn_smarts="[O:1]=[C:2]1[C:3]([H:8])([H:9])[C:4]([H:10])([H:11])[C@@:5]2([H:12])[C:6]([H:13])([H:14])[C@@:7]12[H:15]>>[O:1]1[C@:2]2([C:3]([H:8])([H:9])[C:4]1([H:10])[H:11])[C@@:5]1([H:12])[C:6]([H:13])([H:14])[C@@:7]21[H:15]"
O       -0.92940247       1.10234562       1.42563027
C       -0.15800651       0.90814052       0.38974307
C       -1.16745607       0.53740792      -0.68727625
C       -1.53692926      -0.64398711       0.19328377
C        0.72387530      -0.70929506       0.38392100
C        1.69293554      -0.22218362      -0.63099786
C        1.28003394       0.68750716       0.48013660
H       -0.87308811       0.27732088      -1.70256957
H       -1.94434721       1.28340637      -0.85038651
H       -1.61652985      -1.28715318       1.06760331
H       -2.50350318      -0.97789533      -0.21340873
H        1.01996759      -1.47311855       1.09262545
H        1.40133084       0.00212277      -1.65134935
H        2.71593299      -0.57437065      -0.56561397
H        1.89518647       1.08975225       1.26865876
15
Frame=15 idx=010625 GeodesicLength=1.1278889818829092 rxn_smarts="[O:1]=[C:2]1[C:3]([H:8])([H:9])[C:4]([H:10])([H:11])[C@@:5]2([H:12])[C:6]([H:13])([H:14])[C@@:7]12[H:15]>>[O:1]1[C@:2]2([C:3]([H:8])([H:9])[C:4]1([H:10])[H:11])[C@@:5]1([H:12])[C:6]([H:13])([H:14])[C@@:7]21[H:15]"
O       -0.93603204       1.11988702       1.41245430
C       -0.15720802       0.92857166       0.37938861
C       -1.16773093       0.53960169      -0.69155145
C       -1.51605546      -0.63493744       0.21712250
C        0.71482955      -0.71475104       0.37373347
C        1.69230251      -0.22043876      -0.63054959
C        1.27460866       0.67982941       0.48692554
H       -0.88017207       0.27136843      -1.70577555
H       -1.95181664       1.27528114      -0.86240815
H       -1.62047062      -1.29883621       1.07482997
H       -2.48005898      -0.97225660      -0.19575022
H        1.01540433      -1.48710644       1.07174446
H        1.40986540       0.01476835      -1.65065079
H        2.71486384      -0.57311575      -0.56163172
H        1.88767047       1.07213454       1.28211865
15
Frame=16 idx=010625 GeodesicLength=1.2033105884767208 rxn_smarts="[O:1]=[C:2]1[C:3]([H:8])([H:9])[C:4]([H:10])([H:11])[C@@:5]2([H:12])[C:6]([H:13])([H:14])[C@@:7]12[H:15]>>[O:1]1[C@:2]2([C:3]([H:8])([H:9])[C:4]1([H:10])[H:11])[C@@:5]1([H:12])[C:6]([H:13])([H:14])[C@@:7]21[H:15]"
O       -0.94206426       1.13806195       1.39932185
C       -0.15617866       0.94895292       0.36895572
C       -1.16810740       0.54172534      -0.69529602
C       -1.49567174      -0.62481962       0.24175737
C        0.70586549      -0.72035174       0.36355300
C        1.69157575      -0.21882093      -0.63001849
C        1.26874130       0.67203662       0.49353146
H       -0.88768001       0.26500989      -1.70834036
H       -1.95919070       1.26704358      -0.87377082
H       -1.62410883      -1.31029570       1.08083100
H       -2.45562771      -0.96722054      -0.17930150
H        1.01085867      -1.50107927       1.05076906
H        1.41821475       0.02694901      -1.64972624
H        2.71376062      -0.57174470      -0.55747502
H        1.87961273       1.05455319       1.29520898
