13
Frame=0 idx=001291 GeodesicLength=0.0 rxn_smarts="[N:1]([C:2](=[O:3])[C:4]([C:5]([O:6][H:13])([H:11])[H:12])([H:9])[H:10])([H:7])[H:8]>>[N:1]([C:2](=[O:3])[C:4](=[C:5]([H:11])[H:12])[H:10])([H:7])[H:8].[O:6]([H:9])[H:13]"
N       -0.87327235      -1.05355852      -1.28131529
C       -0.97696458       0.30692474      -1.04975944
O       -1.76224534       0.98563975      -1.68163417
C       -0.08251896       0.87154471      -0.02387805
C        1.16535882       0.25818133       0.30136144
O        0.61094511      -0.51801978       1.77029435
H       -0.58374735      -1.65709612      -0.53109746
H       -1.59827562      -1.42177316      -1.87406117
H       -0.22473176       0.17489246       1.29728994
H       -0.15520323       1.94806599       0.06908349
H        1.50123949      -0.62210757      -0.23510228
H        1.97316676       0.88535840       0.66349694
H        1.00624900      -0.15805219       2.57532166
13
Frame=1 idx=001291 GeodesicLength=0.07847850992739636 rxn_smarts="[N:1]([C:2](=[O:3])[C:4]([C:5]([O:6][H:13])([H:11])[H:12])([H:9])[H:10])([H:7])[H:8]>>[N:1]([C:2](=[O:3])[C:4](=[C:5]([H:11])[H:12])[H:10])([H:7])[H:8].[O:6]([H:9])[H:13]"
N       -0.87822531      -1.05620384      -1.26077061
C       -0.97082273       0.30818776      -1.05852094
O       -1.74825219       0.98282840      -1.70408996
C       -0.08264364       0.88272140      -0.02866366
C        1.16743220       0.27425579       0.29759313
O        0.59507934      -0.54220761       1.75812078
H       -0.58124819      -1.64569775      -0.50187838
H       -1.60359439      -1.43382276      -1.84688346
H       -0.24070460       0.18750584       1.30915086
H       -0.15132004       1.96118007       0.04411552
H        1.51379399      -0.59765004      -0.24619239
H        1.96832450       0.90592804       0.66782881
H        1.01218106      -0.22702530       2.57019030
13
Frame=2 idx=001291 GeodesicLength=0.1569329736404453 rxn_smarts="[N:1]([C:2](=[O:3])[C:4]([C:5]([O:6][H:13])([H:11])[H:12])([H:9])[H:10])([H:7])[H:8]>>[N:1]([C:2](=[O:3])[C:4](=[C:5]([H:11])[H:12])[H:10])([H:7])[H:8].[O:6]([H:9])[H:13]"
N       -0.88288259      -1.05831842      -1.24053092
C       -0.96485471       0.30910386      -1.06656667
O       -1.73463627       0.97951479      -1.72535636
C       -0.08278617       0.89360836      -0.03299807
C        1.16954519       0.28996098       0.29400432
O        0.57935921      -0.56497752       1.74656756
H       -0.57854688      -1.63426612      -0.47371988
H       -1.60815917      -1.44499326      -1.82061352
H       -0.25684202       0.19944605       1.32163121
H       -0.14720157       1.97366879       0.01932750
H        1.52560610      -0.57438476      -0.25591129
H        1.96385400       0.92623185       0.67119642
H        1.01754488      -0.29459461       2.56296971
13
Frame=3 idx=001291 GeodesicLength=0.23536880746185834 rxn_smarts="[N:1]([C:2](=[O:3])[C:4]([C:5]([O:6][H:13])([H:11])[H:12])([H:9])[H:10])([H:7])[H:8]>>[N:1]([C:2](=[O:3])[C:4](=[C:5]([H:11])[H:12])[H:10])([H:7])[H:8].[O:6]([H:9])[H:13]"
N       -0.88730433      -1.05994771      -1.22055159
C       -0.95903610       0.30972163      -1.07395108
O       -1.72126046       0.97578547      -1.74560937
C       -0.08294290       0.90423422      -0.03690326
C        1.17170865       0.30534663       0.29056650
O        0.56382118      -0.58643645       1.73569433
H       -0.57567084      -1.62281605      -0.44652237
H       -1.61204561      -1.45537964      -1.79515952
H       -0.27323269       0.21069113       1.33466199
H       -0.14291776       1.98552215      -0.00519887
H        1.53674814      -0.55223946      -0.26439118
H        1.95977206       0.94636499       0.67355620
H        1.02236068      -0.36084688       2.55380821
13
Frame=4 idx=001291 GeodesicLength=0.3137751516216669 rxn_smarts="[N:1]([C:2](=[O:3])[C:4]([C:5]([O:6][H:13])([H:11])[H:12])([H:9])[H:10])([H:7])[H:8]>>[N:1]([C:2](=[O:3])[C:4](=[C:5]([H:11])[H:12])[H:10])([H:7])[H:8].[O:6]([H:9])[H:13]"
N       -0.89152208      -1.06112778      -1.20080480
C       -0.95333255       0.31008003      -1.08073244
O       -1.70807706       0.97168350      -1.76493412
C       -0.08309599       0.91463023      -0.04041190
C        1.17393949       0.32045094       0.28726200
O        0.54847198      -0.60667820       1.72555193
H       -0.57264232      -1.61135811      -0.42019178
H       -1.61529132      -1.46504914      -1.77045347
H       -0.28996143       0.22125293       1.34818121
H       -0.13851105       1.99675008      -0.02941500
H        1.54728749      -0.53115511      -0.27173128
H        1.95611107       0.96638885       0.67487293
H        1.02662376      -0.42586823       2.54280672
13
Frame=5 idx=001291 GeodesicLength=0.39210725904823257 rxn_smarts="[N:1]([C:2](=[O:3])[C:4]([C:5]([O:6][H:13])([H:11])[H:12])([H:9])[H:10])([H:7])[H:8]>>[N:1]([C:2](=[O:3])[C:4](=[C:5]([H:11])[H:12])[H:10])([H:7])[H:8].[O:6]([H:9])[H:13]"
N       -0.89556833      -1.06189164      -1.18126209
C       -0.94775886       0.31020043      -1.08690865
O       -1.69488202       0.96726727      -1.78354833
C       -0.08325746       0.92481248      -0.04354048
C        1.17621181       0.33530463       0.28407276
O        0.53334822      -0.62579852       1.71616691
H       -0.56950354      -1.59990181      -0.39467795
H       -1.61800402      -1.47409208      -1.74646076
H       -0.30709506       0.23113593       1.36223132
H       -0.13402442       2.00739040      -0.05327140
H        1.55727723      -0.51103450      -0.27800003
H        1.95277904       0.98634088       0.67510664
H        1.03047741      -0.48973346       2.53009207
13
Frame=6 idx=001291 GeodesicLength=0.47040947989738024 rxn_smarts="[N:1]([C:2](=[O:3])[C:4]([C:5]([O:6][H:13])([H:11])[H:12])([H:9])[H:10])([H:7])[H:8]>>[N:1]([C:2](=[O:3])[C:4](=[C:5]([H:11])[H:12])[H:10])([H:7])[H:8].[O:6]([H:9])[H:13]"
N       -0.89948174      -1.06226858      -1.16186617
C       -0.94225977       0.31012066      -1.09255279
O       -1.68175564       0.96254515      -1.80140837
C       -0.08338663       0.93481951      -0.04633152
C        1.17857484       0.34995021       0.28097752
O        0.51842868      -0.64386683       1.70757437
H       -0.56624166      -1.58844985      -0.36986749
H       -1.62012672      -1.48255798      -1.72310918
H       -0.32471474       0.24042205       1.37671052
H       -0.12947958       2.01744603      -0.07675613
H        1.56677633      -0.49184702      -0.28330297
H        1.94988317       1.00628888       0.67423295
H        1.03378347      -0.55260223       2.51569924
13
Frame=7 idx=001291 GeodesicLength=0.5487172562374618 rxn_smarts="[N:1]([C:2](=[O:3])[C:4]([C:5]([O:6][H:13])([H:11])[H:12])([H:9])[H:10])([H:7])[H:8]>>[N:1]([C:2](=[O:3])[C:4](=[C:5]([H:11])[H:12])[H:10])([H:7])[H:8].[O:6]([H:9])[H:13]"
N       -0.90327764      -1.06228125      -1.14258334
C       -0.93681445       0.30986480      -1.09769177
O       -1.66862738       0.95754987      -1.81859683
C       -0.08346216       0.94467313      -0.04881087
C        1.18104781       0.36442391       0.27795028
O        0.50371657      -0.66097075       1.69979007
H       -0.56283853      -1.57700837      -0.34570400
H       -1.62174326      -1.49053318      -1.70030980
H       -0.34289426       0.24915192       1.39159897
H       -0.12490302       2.02694569      -0.09983739
H        1.57585447      -0.47352794      -0.28771885
H        1.94743253       1.02629870       0.67223893
H        1.03650932      -0.61458652       2.49967460
13
Frame=8 idx=001291 GeodesicLength=0.6270034713859056 rxn_smarts="[N:1]([C:2](=[O:3])[C:4]([C:5]([O:6][H:13])([H:11])[H:12])([H:9])[H:10])([H:7])[H:8]>>[N:1]([C:2](=[O:3])[C:4](=[C:5]([H:11])[H:12])[H:10])([H:7])[H:8].[O:6]([H:9])[H:13]"
N       -0.90697967      -1.06194954      -1.12336317
C       -0.93140437       0.30944802      -1.10234958
O       -1.65552305       0.95228137      -1.83510978
C       -0.08346138       0.95440080      -0.05100689
C        1.18365387       0.37875501       0.27497685
O        0.48919910      -0.67714830       1.69283493
H       -0.55929963      -1.56557190      -0.32209340
H       -1.62279710      -1.49805896      -1.67804051
H       -0.36169392       0.25739207       1.40685607
H       -0.12030919       2.03591155      -0.12251728
H        1.58454911      -0.45603503      -0.29130421
H        1.94547030       1.04639969       0.66909386
H        1.03859593      -0.67582480       2.48202311
13
Frame=9 idx=001291 GeodesicLength=0.7051952893500223 rxn_smarts="[N:1]([C:2](=[O:3])[C:4]([C:5]([O:6][H:13])([H:11])[H:12])([H:9])[H:10])([H:7])[H:8]>>[N:1]([C:2](=[O:3])[C:4](=[C:5]([H:11])[H:12])[H:10])([H:7])[H:8].[O:6]([H:9])[H:13]"
N       -0.91058550      -1.06128667      -1.10420047
C       -0.92604864       0.30888415      -1.10649970
O       -1.64228350       0.94676737      -1.85108922
C       -0.08338541       0.96400355      -0.05292416
C        1.18637366       0.39295365       0.27204077
O        0.47490796      -0.69246375       1.68672720
H       -0.55564497      -1.55414569      -0.29904937
H       -1.62339727      -1.50520462      -1.65628852
H       -0.38114896       0.26511007       1.42257878
H       -0.11570379       2.04440644      -0.14475962
H        1.59290509      -0.43929858      -0.29408616
H        1.94388719       1.06657890       0.66473090
H        1.04012413      -0.73630480       2.46281957
13
Frame=10 idx=001291 GeodesicLength=0.7833969738489479 rxn_smarts="[N:1]([C:2](=[O:3])[C:4]([C:5]([O:6][H:13])([H:11])[H:12])([H:9])[H:10])([H:7])[H:8]>>[N:1]([C:2](=[O:3])[C:4](=[C:5]([H:11])[H:12])[H:10])([H:7])[H:8].[O:6]([H:9])[H:13]"
N       -0.91410677      -1.06031216      -1.08501239
C       -0.92068679       0.30818460      -1.11019543
O       -1.62902716       0.94098122      -1.86644186
C       -0.08318669       0.97352325      -0.05459968
C        1.18927688       0.40707988       0.26912240
O        0.46081916      -0.70694825       1.68148306
H       -0.55182123      -1.54271866      -0.27642387
H       -1.62346293      -1.51202162      -1.63493496
H       -0.40133616       0.27244774       1.43864422
H       -0.11111443       2.05242765      -0.16657726
H        1.60098292      -0.42329069      -0.29615074
H        1.94283236       1.08693979       0.65917507
H        1.04083084      -0.79629277       2.44191145
13
Frame=11 idx=001291 GeodesicLength=0.861645094840203 rxn_smarts="[N:1]([C:2](=[O:3])[C:4]([C:5]([O:6][H:13])([H:11])[H:12])([H:9])[H:10])([H:7])[H:8]>>[N:1]([C:2](=[O:3])[C:4](=[C:5]([H:11])[H:12])[H:10])([H:7])[H:8].[O:6]([H:9])[H:13]"
N       -0.91755346      -1.05903596      -1.06574464
C       -0.91531787       0.30736144      -1.11342787
O       -1.61571505       0.93492859      -1.88120421
C       -0.08284647       0.98297851      -0.05605101
C        1.19237903       0.42116171       0.26619571
O        0.44695486      -0.72064799       1.67712154
H       -0.54781336      -1.53128947      -0.25416735
H       -1.62298659      -1.51857703      -1.61394457
H       -0.42229826       0.27945754       1.45507944
H       -0.10654821       2.06000729      -0.18795279
H        1.60882619      -0.40796448      -0.29754872
H        1.94229786       1.10751537       0.65237439
H        1.04062133      -0.85589551       2.41927007
13
Frame=12 idx=001291 GeodesicLength=0.9399161319609755 rxn_smarts="[N:1]([C:2](=[O:3])[C:4]([C:5]([O:6][H:13])([H:11])[H:12])([H:9])[H:10])([H:7])[H:8]>>[N:1]([C:2](=[O:3])[C:4](=[C:5]([H:11])[H:12])[H:10])([H:7])[H:8].[O:6]([H:9])[H:13]"
N       -0.92094301      -1.05746480      -1.04634966
C       -0.90993549       0.30642415      -1.11619084
O       -1.60240670       0.92861756      -1.89531614
C       -0.08233729       0.99237499      -0.05728314
C        1.19571330       0.43520588       0.26322462
O        0.43333825      -0.73360524       1.67364491
H       -0.54361890      -1.51985326      -0.23221622
H       -1.62186664      -1.52491148      -1.59334346
H       -0.44407329       0.28615486       1.47186793
H       -0.10200682       2.06716634      -0.20886615
H        1.61646830      -0.39330181      -0.29833560
H        1.94232611       1.12830220       0.64427061
H        1.03934219      -0.91510940       2.39489313
13
Frame=13 idx=001291 GeodesicLength=1.0182194191028529 rxn_smarts="[N:1]([C:2](=[O:3])[C:4]([C:5]([O:6][H:13])([H:11])[H:12])([H:9])[H:10])([H:7])[H:8]>>[N:1]([C:2](=[O:3])[C:4](=[C:5]([H:11])[H:12])[H:10])([H:7])[H:8].[O:6]([H:9])[H:13]"
N       -0.92427711      -1.05560055      -1.02678894
C       -0.90453932       0.30538513      -1.11847081
O       -1.58910168       0.92205947      -1.90876439
C       -0.08163595       1.00171837      -0.05829460
C        1.19931035       0.44922936       0.26018600
O        0.42000178      -0.74588423       1.67105836
H       -0.53921413      -1.50840611      -0.21053110
H       -1.62006581      -1.53108574      -1.57311274
H       -0.46669359       0.29255184       1.48900709
H       -0.09751548       2.07393702      -0.22928632
H        1.62394570      -0.37927478      -0.29856893
H        1.94294850       1.14930608       0.63479538
H        1.03683675      -0.97393585       2.36877100
13
Frame=14 idx=001291 GeodesicLength=1.0965455300539455 rxn_smarts="[N:1]([C:2](=[O:3])[C:4]([C:5]([O:6][H:13])([H:11])[H:12])([H:9])[H:10])([H:7])[H:8]>>[N:1]([C:2](=[O:3])[C:4](=[C:5]([H:11])[H:12])[H:10])([H:7])[H:8].[O:6]([H:9])[H:13]"
N       -0.92755740      -1.05344735      -1.00702804
C       -0.89912774       0.30425059      -1.12025078
O       -1.57585549       0.91526496      -1.92149177
C       -0.08071621       1.01101011      -0.05908521
C        1.20320211       0.46323455       0.25703720
O        0.40698574      -0.75753706       1.66935861
H       -0.53459544      -1.49694371      -0.18906141
H       -1.61749047      -1.53713911      -1.55327962
H       -0.49018327       0.29862926       1.50650772
H       -0.09307174       2.08033999      -0.24918524
H        1.63129438      -0.36586538      -0.29830073
H        1.94419568       1.17051742       0.62388141
H        1.03291985      -1.03231427       2.34089785
13
Frame=15 idx=001291 GeodesicLength=1.1749047620787252 rxn_smarts="[N:1]([C:2](=[O:3])[C:4]([C:5]([O:6][H:13])([H:11])[H:12])([H:9])[H:10])([H:7])[H:8]>>[N:1]([C:2](=[O:3])[C:4](=[C:5]([H:11])[H:12])[H:10])([H:7])[H:8].[O:6]([H:9])[H:13]"
N       -0.93081528      -1.05099936      -0.98700798
C       -0.89372638       0.30303573      -1.12148902
O       -1.56272481       0.90825468      -1.93343208
C       -0.07955498       1.02025138      -0.05963986
C        1.20742079       0.47721868       0.25373757
O        0.39433844      -0.76862026       1.66855174
H       -0.52977817      -1.48545951      -0.16774880
H       -1.61396138      -1.54314413      -1.53394091
H       -0.51455360       0.30439109       1.52439486
H       -0.08868224       2.08640798      -0.26853806
H        1.63852714      -0.35307226      -0.29759468
H        1.94611365       1.19191233       0.61142854
H        1.02739683      -1.09017637       2.31127868
13
Frame=16 idx=001291 GeodesicLength=1.253301654856521 rxn_smarts="[N:1]([C:2](=[O:3])[C:4]([C:5]([O:6][H:13])([H:11])[H:12])([H:9])[H:10])([H:7])[H:8]>>[N:1]([C:2](=[O:3])[C:4](=[C:5]([H:11])[H:12])[H:10])([H:7])[H:8].[O:6]([H:9])[H:13]"
N       -0.93406847      -1.04824954      -0.96669820
C       -0.88835126       0.30175941      -1.12215582
O       -1.54981457       0.90106809      -1.94447864
C       -0.07812227       1.02943547      -0.05994447
C        1.21200338       0.49116609       0.25023789
O        0.38211057      -0.77921414       1.66862641
H       -0.52477902      -1.47394807      -0.14655686
H       -1.60929247      -1.54916828      -1.51521773
H       -0.53980983       0.30980608       1.54268738
H       -0.08434908       2.09216022      -0.28730161
H        1.64566138      -0.34090956      -0.29651785
H        1.94875190       1.21344781       0.59732439
H        1.02005975      -1.14735357       2.27999511
