13
Frame=0 idx=003378 GeodesicLength=0.0 rxn_smarts="[C:1]([C@@:2]1([H:10])[N:3]([H:11])[C@:4]1([C:5]#[C:6][H:13])[H:12])([H:7])([H:8])[H:9]>>[C:1]([C@@:2]1([H:10])[N:3]([H:11])[C:4]1=[C:5]=[C:6]([H:12])[H:13])([H:7])([H:8])[H:9]"
C       -1.56460203      -0.87668579       0.27411565
C       -0.70861231       0.15388241      -0.40368352
N       -0.19856902       1.33613727       0.34829927
C        0.68913045       0.30288005       0.00811470
C        1.73602356      -0.41215433       0.75618105
C        2.27751434       0.08848044      -0.34401103
H       -1.15620751      -1.14029198       1.25036903
H       -2.58317389      -0.50401566       0.40113908
H       -1.60947605      -1.78529344      -0.32838448
H       -0.99705099       0.41744959      -1.41661526
H       -0.41403492       1.32035322       1.34073262
H        1.36032295       0.57421170      -1.11157187
H        3.16873542       0.52504647      -0.77468519
13
Frame=1 idx=003378 GeodesicLength=0.11729155739831396 rxn_smarts="[C:1]([C@@:2]1([H:10])[N:3]([H:11])[C@:4]1([C:5]#[C:6][H:13])[H:12])([H:7])([H:8])[H:9]>>[C:1]([C@@:2]1([H:10])[N:3]([H:11])[C:4]1=[C:5]=[C:6]([H:12])[H:13])([H:7])([H:8])[H:9]"
C       -1.56434983      -0.88165419       0.27615154
C       -0.72188311       0.16087265      -0.40056378
N       -0.21991978       1.34410638       0.35266469
C        0.67799032       0.32132287       0.00014947
C        1.72241654      -0.39004327       0.74179699
C        2.30044914       0.09566577      -0.34042554
H       -1.15025099      -1.14527923       1.25005685
H       -2.58631254      -0.52089264       0.40988737
H       -1.60156885      -1.78830454      -0.32985746
H       -1.01986415       0.42663819      -1.41018374
H       -0.43126497       1.31844278       1.34576814
H        1.37565943       0.59099317      -1.12409912
H        3.21889879       0.46813205      -0.77134540
13
Frame=2 idx=003378 GeodesicLength=0.23450523104949297 rxn_smarts="[C:1]([C@@:2]1([H:10])[N:3]([H:11])[C@:4]1([C:5]#[C:6][H:13])[H:12])([H:7])([H:8])[H:9]>>[C:1]([C@@:2]1([H:10])[N:3]([H:11])[C:4]1=[C:5]=[C:6]([H:12])[H:13])([H:7])([H:8])[H:9]"
C       -1.56317331      -0.88705797       0.27788223
C       -0.73561445       0.16843805      -0.39737693
N       -0.24286835       1.35277736       0.35754644
C        0.66612184       0.34183559      -0.00804159
C        1.70902212      -0.36505242       0.72681827
C        2.32402965       0.10549809      -0.33565325
H       -1.14284745      -1.15063679       1.24919226
H       -2.58868586      -0.53939057       0.41870180
H       -1.59199456      -1.79140817      -0.33205615
H       -1.04354952       0.43630998      -1.40347756
H       -0.44964887       1.31662421       1.35127310
H        1.39148816       0.61051552      -1.13613895
H        3.26772060       0.40154713      -0.76866967
13
Frame=3 idx=003378 GeodesicLength=0.3515534213882209 rxn_smarts="[C:1]([C@@:2]1([H:10])[N:3]([H:11])[C@:4]1([C:5]#[C:6][H:13])[H:12])([H:7])([H:8])[H:9]>>[C:1]([C@@:2]1([H:10])[N:3]([H:11])[C:4]1=[C:5]=[C:6]([H:12])[H:13])([H:7])([H:8])[H:9]"
C       -1.56096247      -0.89282002       0.27934507
C       -0.74971958       0.17649299      -0.39421777
N       -0.26717371       1.36201824       0.36277570
C        0.65361687       0.36428193      -0.01672504
C        1.69595173      -0.33747361       0.71076326
C        2.34857258       0.11819698      -0.32972882
H       -1.13377763      -1.15627234       1.24775643
H       -2.59008039      -0.55933379       0.42774225
H       -1.58085128      -1.79451781      -0.33490701
H       -1.06812259       0.44633631      -1.39655649
H       -0.46874664       1.31482232       1.35709599
H        1.40794859       0.63252238      -1.14793752
H        3.31334452       0.32574641      -0.76540605
13
Frame=4 idx=003378 GeodesicLength=0.4683796953739175 rxn_smarts="[C:1]([C@@:2]1([H:10])[N:3]([H:11])[C@:4]1([C:5]#[C:6][H:13])[H:12])([H:7])([H:8])[H:9]>>[C:1]([C@@:2]1([H:10])[N:3]([H:11])[C:4]1=[C:5]=[C:6]([H:12])[H:13])([H:7])([H:8])[H:9]"
C       -1.55777422      -0.89874689       0.28067165
C       -0.76411417       0.18487441      -0.39120542
N       -0.29222870       1.37154145       0.36805505
C        0.64064884       0.38813574      -0.02636012
C        1.68331007      -0.30815238       0.69291947
C        2.37430847       0.13271503      -0.32323282
H       -1.12297536      -1.16199261       1.24580926
H       -2.59037656      -0.58022285       0.43731300
H       -1.56861031      -1.79747466      -0.33818474
H       -1.09364124       0.45653487      -1.38947979
H       -0.48766175       1.31289519       1.36297593
H        1.42520291       0.65616271      -1.16001765
H        3.35391201       0.24373000      -0.75926383
13
Frame=5 idx=003378 GeodesicLength=0.5850906823343542 rxn_smarts="[C:1]([C@@:2]1([H:10])[N:3]([H:11])[C@:4]1([C:5]#[C:6][H:13])[H:12])([H:7])([H:8])[H:9]>>[C:1]([C@@:2]1([H:10])[N:3]([H:11])[C:4]1=[C:5]=[C:6]([H:12])[H:13])([H:7])([H:8])[H:9]"
C       -1.55375559      -0.90464950       0.28202587
C       -0.77881902       0.19345874      -0.38841611
N       -0.31741335       1.38109535       0.37309680
C        0.62732440       0.41284226      -0.03745472
C        1.67109544      -0.27778418       0.67276398
C        2.40101885       0.14633266      -0.31748687
H       -1.11040140      -1.16766651       1.24339134
H       -2.58954094      -0.60156590       0.44784051
H       -1.55585071      -1.80011161      -0.34167762
H       -1.12034739       0.46681902      -1.38221293
H       -0.50551214       1.31074751       1.36865433
H        1.44335889       0.68075271      -1.17289878
H        3.38884295       0.15972945      -0.74762579
13
Frame=6 idx=003378 GeodesicLength=0.7016958226059897 rxn_smarts="[C:1]([C@@:2]1([H:10])[N:3]([H:11])[C@:4]1([C:5]#[C:6][H:13])[H:12])([H:7])([H:8])[H:9]>>[C:1]([C@@:2]1([H:10])[N:3]([H:11])[C:4]1=[C:5]=[C:6]([H:12])[H:13])([H:7])([H:8])[H:9]"
C       -1.54897278      -0.91046607       0.28336960
C       -0.79372183       0.20215810      -0.38582649
N       -0.34254334       1.39058008       0.37790702
C        0.61369354       0.43819009      -0.04986231
C        1.65932083      -0.24643042       0.65063708
C        2.42866879       0.15786079      -0.31232177
H       -1.09620048      -1.17324062       1.24046761
H       -2.58757216      -0.62316502       0.45921312
H       -1.54277528      -1.80236701      -0.34542765
H       -1.14800748       0.47705141      -1.37475387
H       -0.52219765       1.30836628       1.37409406
H        1.46267486       0.70601867      -1.18629505
H        3.41763298       0.07544373      -0.73120137
13
Frame=7 idx=003378 GeodesicLength=0.8183697793812569 rxn_smarts="[C:1]([C@@:2]1([H:10])[N:3]([H:11])[C@:4]1([C:5]#[C:6][H:13])[H:12])([H:7])([H:8])[H:9]>>[C:1]([C@@:2]1([H:10])[N:3]([H:11])[C:4]1=[C:5]=[C:6]([H:12])[H:13])([H:7])([H:8])[H:9]"
C       -1.54405883      -0.91593151       0.28506276
C       -0.80929461       0.21086809      -0.38344957
N       -0.36694038       1.39963380       0.38222047
C        0.59957688       0.46332259      -0.06449403
C        1.64768872      -0.21548056       0.62527814
C        2.45621190       0.16289222      -0.31041698
H       -1.08062152      -1.17863516       1.23712885
H       -2.58484347      -0.64429482       0.47234223
H       -1.53071012      -1.80400530      -0.34905735
H       -1.17759776       0.48736479      -1.36682590
H       -0.53652410       1.30550766       1.37909451
H        1.48277435       0.73108008      -1.20129222
H        3.44433895      -0.00232189      -0.70559092
13
Frame=8 idx=003378 GeodesicLength=0.9350004376496214 rxn_smarts="[C:1]([C@@:2]1([H:10])[N:3]([H:11])[C@:4]1([C:5]#[C:6][H:13])[H:12])([H:7])([H:8])[H:9]>>[C:1]([C@@:2]1([H:10])[N:3]([H:11])[C:4]1=[C:5]=[C:6]([H:12])[H:13])([H:7])([H:8])[H:9]"
C       -1.53829172      -0.92141354       0.28670828
C       -0.82519504       0.21970169      -0.38121109
N       -0.39161315       1.40871792       0.38638893
C        0.58485753       0.48940611      -0.08039476
C        1.63634208      -0.18289753       0.59808855
C        2.48407284       0.16475064      -0.30912054
H       -1.06324546      -1.18393311       1.23315420
H       -2.58086125      -0.66598473       0.48630541
H       -1.51812458      -1.80536201      -0.35301003
H       -1.20835203       0.49755823      -1.35854448
H       -0.55000989       1.30253029       1.38386504
H        1.50418480       0.75787131      -1.21627311
H        3.46623586      -0.08094528      -0.67595640
13
Frame=9 idx=003378 GeodesicLength=1.051627492473996 rxn_smarts="[C:1]([C@@:2]1([H:10])[N:3]([H:11])[C@:4]1([C:5]#[C:6][H:13])[H:12])([H:7])([H:8])[H:9]>>[C:1]([C@@:2]1([H:10])[N:3]([H:11])[C:4]1=[C:5]=[C:6]([H:12])[H:13])([H:7])([H:8])[H:9]"
C       -1.53205547      -0.92675356       0.28849518
C       -0.84177256       0.22862730      -0.37909777
N       -0.41613771       1.41757688       0.39034498
C        0.56934408       0.51593973      -0.09821687
C        1.62512728      -0.14965250       0.56786762
C        2.51153821       0.16144218      -0.30990568
H       -1.04412808      -1.18915667       1.22846691
H       -2.57579272      -0.68779296       0.50176351
H       -1.50594597      -1.80623784      -0.35717245
H       -1.24100685       0.50781046      -1.34963025
H       -0.56179348       1.29916773       1.38835799
H        1.52660259       0.78582359      -1.23202234
H        3.48602066      -0.15679435      -0.63925084
13
Frame=10 idx=003378 GeodesicLength=1.1682201782348365 rxn_smarts="[C:1]([C@@:2]1([H:10])[N:3]([H:11])[C@:4]1([C:5]#[C:6][H:13])[H:12])([H:7])([H:8])[H:9]>>[C:1]([C@@:2]1([H:10])[N:3]([H:11])[C:4]1=[C:5]=[C:6]([H:12])[H:13])([H:7])([H:8])[H:9]"
C       -1.52513932      -0.93203347       0.29034623
C       -0.85901278       0.23766545      -0.37709006
N       -0.44067250       1.42627560       0.39415811
C        0.55291141       0.54319012      -0.11795346
C        1.61407964      -0.11531610       0.53448177
C        2.53840449       0.15352408      -0.31236628
H       -1.02297401      -1.19434060       1.22288695
H       -2.56938270      -0.70995586       0.51870415
H       -1.49392859      -1.80667812      -0.36167648
H       -1.27560287       0.51808883      -1.33997830
H       -0.57197879       1.29545015       1.39258034
H        1.55015804       0.81549037      -1.24829206
H        3.50313798      -0.23136044      -0.59580093
13
Frame=11 idx=003378 GeodesicLength=1.2847259950381085 rxn_smarts="[C:1]([C@@:2]1([H:10])[N:3]([H:11])[C@:4]1([C:5]#[C:6][H:13])[H:12])([H:7])([H:8])[H:9]>>[C:1]([C@@:2]1([H:10])[N:3]([H:11])[C:4]1=[C:5]=[C:6]([H:12])[H:13])([H:7])([H:8])[H:9]"
C       -1.51749476      -0.93725805       0.29221649
C       -0.87685509       0.24674095      -0.37519569
N       -0.46508067       1.43471415       0.39783683
C        0.53552506       0.57108243      -0.13969359
C        1.60323306      -0.08005730       0.49756531
C        2.56468346       0.14193279      -0.31569008
H       -0.99962756      -1.19955292       1.21620513
H       -2.56144564      -0.73238020       0.53724627
H       -1.48229423      -1.80665877      -0.36661830
H       -1.31212203       0.52831431      -1.32948868
H       -0.58031333       1.29127955       1.39647821
H        1.57503183       0.84669773      -1.26506580
H        3.51675989      -0.30485466      -0.54579608
13
Frame=12 idx=003378 GeodesicLength=1.4011128292820307 rxn_smarts="[C:1]([C@@:2]1([H:10])[N:3]([H:11])[C@:4]1([C:5]#[C:6][H:13])[H:12])([H:7])([H:8])[H:9]>>[C:1]([C@@:2]1([H:10])[N:3]([H:11])[C:4]1=[C:5]=[C:6]([H:12])[H:13])([H:7])([H:8])[H:9]"
C       -1.50813437      -0.94271097       0.29387048
C       -0.89478467       0.25584185      -0.37344569
N       -0.49004723       1.44331280       0.40132751
C        0.51723658       0.60061398      -0.16274147
C        1.59279483      -0.04187577       0.45848092
C        2.59052789       0.12846352      -0.31762668
H       -0.97341537      -1.20450003       1.20842834
H       -2.55117634      -0.75601564       0.55653937
H       -1.46916762      -1.80656879      -0.37204255
H       -1.34966911       0.53791173      -1.31844015
H       -0.58793301       1.28724540       1.39989036
H        1.60201542       0.88103535      -1.28085772
H        3.52175301      -0.38275342      -0.49338272
13
Frame=13 idx=003378 GeodesicLength=1.51734706296465 rxn_smarts="[C:1]([C@@:2]1([H:10])[N:3]([H:11])[C@:4]1([C:5]#[C:6][H:13])[H:12])([H:7])([H:8])[H:9]>>[C:1]([C@@:2]1([H:10])[N:3]([H:11])[C:4]1=[C:5]=[C:6]([H:12])[H:13])([H:7])([H:8])[H:9]"
C       -1.49910438      -0.94763294       0.29566720
C       -0.91405873       0.26523650      -0.37145486
N       -0.51315621       1.45090055       0.40530260
C        0.49768201       0.62936826      -0.18912593
C        1.58221837      -0.00640851       0.41203575
C        2.61369074       0.10714712      -0.32435644
H       -0.94563917      -1.20961337       1.19902591
H       -2.53992940      -0.77879710       0.57832056
H       -1.45854055      -1.80533727      -0.37809556
H       -1.39068816       0.54870502      -1.30529265
H       -0.59077811       1.28152524       1.40343829
H        1.62912269       0.91487059      -1.29972088
H        3.52918091      -0.44996409      -0.42574400
13
Frame=14 idx=003378 GeodesicLength=1.6334443855134297 rxn_smarts="[C:1]([C@@:2]1([H:10])[N:3]([H:11])[C@:4]1([C:5]#[C:6][H:13])[H:12])([H:7])([H:8])[H:9]>>[C:1]([C@@:2]1([H:10])[N:3]([H:11])[C:4]1=[C:5]=[C:6]([H:12])[H:13])([H:7])([H:8])[H:9]"
C       -1.48983373      -0.95224148       0.29734690
C       -0.93416797       0.27480816      -0.36923271
N       -0.53450879       1.45760764       0.40973471
C        0.47700067       0.65779376      -0.21840354
C        1.57160768       0.02736604       0.35903048
C        2.63481772       0.08137556      -0.33283854
H       -0.91570358      -1.21516223       1.18751928
H       -2.52700882      -0.80106921       0.60239635
H       -1.44998857      -1.80310879      -0.38510897
H       -1.43450124       0.56038592      -1.28998663
H       -0.58922075       1.27430253       1.40688693
H        1.65687591       0.94801377      -1.32131684
H        3.53463146      -0.51007166      -0.34602743
13
Frame=15 idx=003378 GeodesicLength=1.7496535799418262 rxn_smarts="[C:1]([C@@:2]1([H:10])[N:3]([H:11])[C@:4]1([C:5]#[C:6][H:13])[H:12])([H:7])([H:8])[H:9]>>[C:1]([C@@:2]1([H:10])[N:3]([H:11])[C:4]1=[C:5]=[C:6]([H:12])[H:13])([H:7])([H:8])[H:9]"
C       -1.47888581      -0.95696595       0.29865675
C       -0.95387556       0.28414066      -0.36702389
N       -0.55486020       1.46392295       0.41403235
C        0.45570860       0.68693025      -0.24935574
C        1.56121007       0.06208457       0.30256531
C        2.65625564       0.05787412      -0.33504902
H       -0.88268065      -1.22091683       1.17396684
H       -2.51111832      -0.82374516       0.62777165
H       -1.44141080      -1.80054992      -0.39295006
H       -1.47909396       0.57154746      -1.27328909
H       -0.58511575       1.26666867       1.40952161
H        1.68691148       0.98013186      -1.34392463
H        3.52695528      -0.57112268      -0.26492210
13
Frame=16 idx=003378 GeodesicLength=1.8654384525842285 rxn_smarts="[C:1]([C@@:2]1([H:10])[N:3]([H:11])[C@:4]1([C:5]#[C:6][H:13])[H:12])([H:7])([H:8])[H:9]>>[C:1]([C@@:2]1([H:10])[N:3]([H:11])[C:4]1=[C:5]=[C:6]([H:12])[H:13])([H:7])([H:8])[H:9]"
C       -1.46929639      -0.96092356       0.29951476
C       -0.97460434       0.29388480      -0.36398714
N       -0.57072809       1.46823686       0.41990157
C        0.43352053       0.71361166      -0.28359502
C        1.55025423       0.08996241       0.23628539
C        2.67511447       0.02898007      -0.33901614
H       -0.84914958      -1.22802158       1.15713925
H       -2.49449895      -0.84427162       0.65566619
H       -1.43825648      -1.79611417      -0.40255362
H       -1.52683145       0.58537461      -1.25278214
H       -0.57322672       1.25561081       1.41263405
H        1.71643183       1.00725870      -1.37254414
H        3.52127092      -0.61358898      -0.16666302
