13
Frame=0 idx=000096 GeodesicLength=0.0 rxn_smarts="[C:1]1([H:7])([H:8])[C@:2]2([H:9])[C@:3]3([H:10])[C:4]([H:11])([H:12])[C@@:5]1([H:13])[N:6]23>>[C:1](=[C:5]([C:4]([C@:3]1([H:10])[C:2]([H:9])=[N:6]1)([H:11])[H:12])[H:13])([H:7])[H:8]"
C        0.21730003       1.41784150       0.21630993
C        1.06891167      -0.00544493      -0.49351076
C        0.36689141      -1.22708374      -0.04754302
C       -0.95786411      -0.74411852       0.51626967
C       -0.80142951       0.56521647      -0.21479588
N        0.42819073      -0.78827273      -1.44264385
H        0.38820067       2.34002229      -0.32288716
H        0.53773684       1.38083757       1.24958743
H        2.11371666       0.30220561      -0.45270196
H        0.87122288      -2.12252419       0.30743937
H       -1.01479387      -0.59963328       1.59997597
H       -1.80894026      -1.32486647       0.16227295
H       -1.40914310       0.80582045      -1.07777274
13
Frame=1 idx=000096 GeodesicLength=0.06291744147848087 rxn_smarts="[C:1]1([H:7])([H:8])[C@:2]2([H:9])[C@:3]3([H:10])[C:4]([H:11])([H:12])[C@@:5]1([H:13])[N:6]23>>[C:1](=[C:5]([C:4]([C@:3]1([H:10])[C:2]([H:9])=[N:6]1)([H:11])[H:12])[H:13])([H:7])[H:8]"
C        0.21302163       1.42290147       0.21621558
C        1.08452470      -0.01537174      -0.49056054
C        0.36879181      -1.22921621      -0.04693079
C       -0.95424341      -0.74244040       0.51717915
C       -0.80285259       0.56566713      -0.21811697
N        0.42713664      -0.77943069      -1.44110049
H        0.37999154       2.34559856      -0.32396972
H        0.51887002       1.40073825       1.25478820
H        2.13146748       0.28308269      -0.45339904
H        0.86270994      -2.13512980       0.29470213
H       -1.00719166      -0.59818595       1.60095129
H       -1.80497609      -1.32569909       0.16626205
H       -1.41725001       0.80748578      -1.07602083
13
Frame=2 idx=000096 GeodesicLength=0.12582133514774704 rxn_smarts="[C:1]1([H:7])([H:8])[C@:2]2([H:9])[C@:3]3([H:10])[C:4]([H:11])([H:12])[C@@:5]1([H:13])[N:6]23>>[C:1](=[C:5]([C:4]([C@:3]1([H:10])[C:2]([H:9])=[N:6]1)([H:11])[H:12])[H:13])([H:7])[H:8]"
C        0.20866332       1.42802502       0.21624622
C        1.10031076      -0.02550284      -0.48759933
C        0.37078925      -1.23130685      -0.04630057
C       -0.95052080      -0.74072485       0.51810024
C       -0.80431151       0.56617272      -0.22137437
N        0.42638822      -0.77032988      -1.43937805
H        0.37164436       2.35120046      -0.32499304
H        0.49941749       1.42088354       1.25982318
H        2.14946993       0.26320085      -0.45435760
H        0.85398596      -2.14752642       0.28173152
H       -0.99948084      -0.59672459       1.60192831
H       -1.80089049      -1.32650516       0.17026806
H       -1.42546567       0.80913802      -1.07409456
13
Frame=3 idx=000096 GeodesicLength=0.18868500044486974 rxn_smarts="[C:1]1([H:7])([H:8])[C@:2]2([H:9])[C@:3]3([H:10])[C:4]([H:11])([H:12])[C@@:5]1([H:13])[N:6]23>>[C:1](=[C:5]([C:4]([C@:3]1([H:10])[C:2]([H:9])=[N:6]1)([H:11])[H:12])[H:13])([H:7])[H:8]"
C        0.20421435       1.43320713       0.21642338
C        1.11627037      -0.03584380      -0.48464256
C        0.37288681      -1.23334452      -0.04564736
C       -0.94669379      -0.73896632       0.51902988
C       -0.80580445       0.56673309      -0.22456729
N        0.42594203      -0.76097064      -1.43747102
H        0.36316341       2.35681784      -0.32593417
H        0.47935863       1.44124517       1.26469074
H        2.16771051       0.24253960      -0.45562573
H        0.84506408      -2.15967007       0.26855951
H       -0.99166841      -0.59524448       1.60290373
H       -1.79667575      -1.32727605       0.17428339
H       -1.43376779       0.81077306      -1.07200250
13
Frame=4 idx=000096 GeodesicLength=0.2515266326203721 rxn_smarts="[C:1]1([H:7])([H:8])[C@:2]2([H:9])[C@:3]3([H:10])[C:4]([H:11])([H:12])[C@@:5]1([H:13])[N:6]23>>[C:1](=[C:5]([C:4]([C@:3]1([H:10])[C:2]([H:9])=[N:6]1)([H:11])[H:12])[H:13])([H:7])[H:8]"
C        0.19966856       1.43846039       0.21676235
C        1.13241190      -0.04640461      -0.48169552
C        0.37509129      -1.23533221      -0.04496912
C       -0.94276065      -0.73716585       0.51996953
C       -0.80733284       0.56735366      -0.22769411
N        0.42580766      -0.75135236      -1.43537188
H        0.35455131       2.36246030      -0.32678439
H        0.45866463       1.46184224       1.26938722
H        2.18618393       0.22106333      -0.45722413
H        0.83595239      -2.17155488       0.25518045
H       -0.98375209      -0.59374711       1.60387904
H       -1.79233418      -1.32801504       0.17830969
H       -1.44215191       0.81239214      -1.06974913
13
Frame=5 idx=000096 GeodesicLength=0.3143402126414128 rxn_smarts="[C:1]1([H:7])([H:8])[C@:2]2([H:9])[C@:3]3([H:10])[C:4]([H:11])([H:12])[C@@:5]1([H:13])[N:6]23>>[C:1](=[C:5]([C:4]([C@:3]1([H:10])[C:2]([H:9])=[N:6]1)([H:11])[H:12])[H:13])([H:7])[H:8]"
C        0.19501613       1.44378965       0.21727917
C        1.14874228      -0.05719321      -0.47876413
C        0.37740807      -1.23726444      -0.04426462
C       -0.93871465      -0.73531894       0.52092104
C       -0.80889433       0.56803585      -0.23075327
N        0.42599287      -0.74146649      -1.43307380
H        0.34580863       2.36812469      -0.32753629
H        0.43729720       1.48267828       1.27390848
H        2.20488153       0.19873500      -0.45917426
H        0.82664998      -2.18316487       0.24159007
H       -0.97572442      -0.59222826       1.60485625
H       -1.78785791      -1.32871750       0.18235019
H       -1.45060537       0.81399023      -1.06733883
13
Frame=6 idx=000096 GeodesicLength=0.3771258060875467 rxn_smarts="[C:1]1([H:7])([H:8])[C@:2]2([H:9])[C@:3]3([H:10])[C:4]([H:11])([H:12])[C@@:5]1([H:13])[N:6]23>>[C:1](=[C:5]([C:4]([C@:3]1([H:10])[C:2]([H:9])=[N:6]1)([H:11])[H:12])[H:13])([H:7])[H:8]"
C        0.19024636       1.44920195       0.21799104
C        1.16527062      -0.06821807      -0.47585348
C        0.37984334      -1.23913741      -0.04353147
C       -0.93454997      -0.73342240       0.52188691
C       -0.81048725       0.56878181      -0.23374296
N        0.42650677      -0.73130462      -1.43056756
H        0.33693785       2.37381059      -0.32818226
H        0.41521843       1.50376010       1.27824774
H        2.22379468       0.17551790      -0.46149927
H        0.81715638      -2.19448698       0.22778210
H       -0.96757926      -0.59068520       1.60583808
H       -1.78324120      -1.32938074       0.18640817
H       -1.45911675       0.81556307      -1.06477703
13
Frame=7 idx=000096 GeodesicLength=0.43988328583487124 rxn_smarts="[C:1]1([H:7])([H:8])[C@:2]2([H:9])[C@:3]3([H:10])[C:4]([H:11])([H:12])[C@@:5]1([H:13])[N:6]23>>[C:1](=[C:5]([C:4]([C@:3]1([H:10])[C:2]([H:9])=[N:6]1)([H:11])[H:12])[H:13])([H:7])[H:8]"
C        0.18534776       1.45470604       0.21891522
C        1.18200536      -0.07948972      -0.47296789
C        0.38240351      -1.24094725      -0.04276974
C       -0.93025914      -0.73147191       0.52286925
C       -0.81210958       0.56959424      -0.23666106
N        0.42735969      -0.72085554      -1.42784555
H        0.32794108       2.37951673      -0.32871704
H        0.39238651       1.52509228       1.28239701
H        2.24291139       0.15136995      -0.46421763
H        0.80747249      -2.20550673       0.21375016
H       -0.95930679      -0.58911385       1.60682628
H       -1.77847660      -1.33000092       0.19048836
H       -1.46767568       0.81710669      -1.06206737
13
Frame=8 idx=000096 GeodesicLength=0.5026315624601302 rxn_smarts="[C:1]1([H:7])([H:8])[C@:2]2([H:9])[C@:3]3([H:10])[C:4]([H:11])([H:12])[C@@:5]1([H:13])[N:6]23>>[C:1](=[C:5]([C:4]([C@:3]1([H:10])[C:2]([H:9])=[N:6]1)([H:11])[H:12])[H:13])([H:7])[H:8]"
C        0.18031259       1.46031505       0.22007070
C        1.19896246      -0.09101432      -0.47011545
C        0.38509536      -1.24269433      -0.04197426
C       -0.92584213      -0.72947095       0.52387156
C       -0.81376362       0.57047789      -0.23950876
N        0.42855864      -0.71010654      -1.42490164
H        0.31882824       2.38525622      -0.32913570
H        0.36876950       1.54667706       1.28635172
H        2.26223173       0.12625846      -0.46736119
H        0.79760337      -2.21621458       0.19950552
H       -0.95090538      -0.58752213       1.60782804
H       -1.77357053      -1.33058529       0.19459301
H       -1.47628024       0.81862345      -1.05922353
13
Frame=9 idx=000096 GeodesicLength=0.565327741200252 rxn_smarts="[C:1]1([H:7])([H:8])[C@:2]2([H:9])[C@:3]3([H:10])[C:4]([H:11])([H:12])[C@@:5]1([H:13])[N:6]23>>[C:1](=[C:5]([C:4]([C@:3]1([H:10])[C:2]([H:9])=[N:6]1)([H:11])[H:12])[H:13])([H:7])[H:8]"
C        0.17511742       1.46602338       0.22148555
C        1.21613709      -0.10281490      -0.46729815
C        0.38792670      -1.24436699      -0.04114196
C       -0.92128359      -0.72740286       0.52489198
C       -0.81543470       0.57143069      -0.24227702
N        0.43012595      -0.69906202      -1.42170768
H        0.30959950       2.39099368      -0.32940818
H        0.34431657       1.56852908       1.29009113
H        2.28169670       0.10013933      -0.47097254
H        0.78755437      -2.22657136       0.18502445
H       -0.94237391      -0.58588733       1.60883380
H       -1.76849172      -1.33110858       0.19871769
H       -1.48489036       0.82009787      -1.05623907
13
Frame=10 idx=000096 GeodesicLength=0.6279848425689559 rxn_smarts="[C:1]1([H:7])([H:8])[C@:2]2([H:9])[C@:3]3([H:10])[C:4]([H:11])([H:12])[C@@:5]1([H:13])[N:6]23>>[C:1](=[C:5]([C:4]([C@:3]1([H:10])[C:2]([H:9])=[N:6]1)([H:11])[H:12])[H:13])([H:7])[H:8]"
C        0.16975107       1.47184553       0.22317278
C        1.23354685      -0.11489515      -0.46452027
C        0.39090243      -1.24595896      -0.04028434
C       -0.91656846      -0.72526249       0.52593755
C       -0.81712356       0.57245455      -0.24496589
N        0.43207102      -0.68768663      -1.41826759
H        0.30025004       2.39674450      -0.32954834
H        0.31896193       1.59064510       1.29360826
H        2.30131459       0.07294217      -0.47503884
H        0.77730464      -2.23657170       0.17029294
H       -0.93367305      -0.58420529       1.60985454
H       -1.76323169      -1.33157132       0.20288056
H       -1.49350581       0.82151969      -1.05312137
13
Frame=11 idx=000096 GeodesicLength=0.6906406393309373 rxn_smarts="[C:1]1([H:7])([H:8])[C@:2]2([H:9])[C@:3]3([H:10])[C:4]([H:11])([H:12])[C@@:5]1([H:13])[N:6]23>>[C:1](=[C:5]([C:4]([C@:3]1([H:10])[C:2]([H:9])=[N:6]1)([H:11])[H:12])[H:13])([H:7])[H:8]"
C        0.16420186       1.47780220       0.22515404
C        1.25121564      -0.12726829      -0.46178109
C        0.39403392      -1.24747804      -0.03938744
C       -0.91169976      -0.72305795       0.52701632
C       -0.81883277       0.57355692      -0.24757470
N        0.43441301      -0.67596536      -1.41456153
H        0.29080022       2.40252106      -0.32955091
H        0.29267086       1.61304633       1.29688378
H        2.32107612       0.04464201      -0.47960173
H        0.76686072      -2.24621991       0.15530137
H       -0.92480901      -0.58249094       1.61090149
H       -1.75780285      -1.33198415       0.20708674
H       -1.50212797       0.82289613      -1.04988634
13
Frame=12 idx=000096 GeodesicLength=0.7532753201181552 rxn_smarts="[C:1]1([H:7])([H:8])[C@:2]2([H:9])[C@:3]3([H:10])[C:4]([H:11])([H:12])[C@@:5]1([H:13])[N:6]23>>[C:1](=[C:5]([C:4]([C@:3]1([H:10])[C:2]([H:9])=[N:6]1)([H:11])[H:12])[H:13])([H:7])[H:8]"
C        0.15844824       1.48389745       0.22745616
C        1.26914925      -0.13995259      -0.45908426
C        0.39732856      -1.24891432      -0.03845343
C       -0.90666397      -0.72077762       0.52812821
C       -0.82055402       0.57473799      -0.25009876
N        0.43717155      -0.66388302      -1.41057141
H        0.28125656       2.40830731      -0.32940393
H        0.26538953       1.63572605       1.29989798
H        2.34094104       0.01518755      -0.48469067
H        0.75622486      -2.25548124       0.14004329
H       -0.91577016      -0.58072923       1.61197123
H       -1.75218511      -1.33233441       0.21133882
H       -1.51073635       0.82421607      -1.04653321
13
Frame=13 idx=000096 GeodesicLength=0.8158904595531102 rxn_smarts="[C:1]1([H:7])([H:8])[C@:2]2([H:9])[C@:3]3([H:10])[C:4]([H:11])([H:12])[C@@:5]1([H:13])[N:6]23>>[C:1](=[C:5]([C:4]([C@:3]1([H:10])[C:2]([H:9])=[N:6]1)([H:11])[H:12])[H:13])([H:7])[H:8]"
C        0.15246991       1.49014240       0.23010602
C        1.28736104      -0.15296373      -0.45643524
C        0.40079494      -1.25026418      -0.03747773
C       -0.90145350      -0.71841849       0.52927707
C       -0.82228329       0.57600022      -0.25253546
N        0.44036529      -0.65142277      -1.40627904
H        0.27163321       2.41410246      -0.32909696
H        0.23707579       1.65868313       1.30263062
H        2.36087597      -0.01545786      -0.49034116
H        0.74539692      -2.26433550       0.12451767
H       -0.90655055      -0.57891794       1.61306877
H       -1.74637040      -1.33262065       0.21563920
H       -1.51931534       0.82547292      -1.04307376
13
Frame=14 idx=000096 GeodesicLength=0.8784869916971819 rxn_smarts="[C:1]1([H:7])([H:8])[C@:2]2([H:9])[C@:3]3([H:10])[C:4]([H:11])([H:12])[C@@:5]1([H:13])[N:6]23>>[C:1](=[C:5]([C:4]([C@:3]1([H:10])[C:2]([H:9])=[N:6]1)([H:11])[H:12])[H:13])([H:7])[H:8]"
C        0.14624344       1.49654851       0.23313058
C        1.30586438      -0.16632128      -0.45383717
C        0.40444205      -1.25152361      -0.03645717
C       -0.89605981      -0.71597520       0.53046625
C       -0.82401676       0.57734623      -0.25488159
N        0.44401583      -0.63856554      -1.40166278
H        0.26194348       2.41990295      -0.32861898
H        0.20768717       1.68191209       1.30505656
H        2.38084268      -0.04733378      -0.49658623
H        0.73438011      -2.27275933       0.10872020
H       -0.89714230      -0.57705163       1.61419718
H       -1.74034971      -1.33283809       0.21999115
H       -1.52785056       0.82665869      -1.03951799
13
Frame=15 idx=000096 GeodesicLength=0.9411086855783808 rxn_smarts="[C:1]1([H:7])([H:8])[C@:2]2([H:9])[C@:3]3([H:10])[C:4]([H:11])([H:12])[C@@:5]1([H:13])[N:6]23>>[C:1](=[C:5]([C:4]([C@:3]1([H:10])[C:2]([H:9])=[N:6]1)([H:11])[H:12])[H:13])([H:7])[H:8]"
C        0.13975306       1.50314736       0.23655230
C        1.32468572      -0.18003663      -0.45129437
C        0.40827769      -1.25270320      -0.03538682
C       -0.89048309      -0.71346033       0.53170196
C       -0.82576151       0.57878628      -0.25714235
N        0.44813785      -0.62527879      -1.39670940
H        0.25221079       2.42574455      -0.32797271
H        0.17720381       1.70541347       1.30715158
H        2.40082618      -0.08047362      -0.50344487
H        0.72317830      -2.28075564       0.09266560
H       -0.88753239      -0.57515266       1.61536971
H       -1.73413893      -1.33301031       0.22440061
H       -1.53635747       0.82777953      -1.03589121
13
Frame=16 idx=000096 GeodesicLength=1.0036054723660266 rxn_smarts="[C:1]1([H:7])([H:8])[C@:2]2([H:9])[C@:3]3([H:10])[C:4]([H:11])([H:12])[C@@:5]1([H:13])[N:6]23>>[C:1](=[C:5]([C:4]([C@:3]1([H:10])[C:2]([H:9])=[N:6]1)([H:11])[H:12])[H:13])([H:7])[H:8]"
C        0.13294700       1.50988208       0.24041483
C        1.34379442      -0.19416183      -0.44881698
C        0.41230804      -1.25374995      -0.03427227
C       -0.88468723      -0.71081490       0.53298076
C       -0.82747302       0.58029736      -0.25928980
N        0.45278529      -0.61156659      -1.39136445
H        0.24244104       2.43149293      -0.32710789
H        0.14551194       1.72914484       1.30887398
H        2.42067919      -0.11491716      -0.51099494
H        0.71179189      -2.28820032       0.07631065
H       -0.87772654      -0.57314164       1.61656092
H       -1.72764980      -1.33304455       0.22886596
H       -1.54472221       0.82877975      -1.03216077
