11
Frame=0 idx=004707 GeodesicLength=0.0 rxn_smarts="[C:1]([C:2](=[O:3])[C:4]([O:5][H:11])([H:9])[H:10])([H:6])([H:7])[H:8]>>[C:1](=[C:2]([O:3][H:8])[C:4]([O:5][H:11])([H:9])[H:10])([H:6])[H:7]"
C       -1.53262056      -0.16182257      -0.33631994
C       -0.24029250       0.11111174       0.15415768
O       -0.32055226       0.88029870       1.17779267
C        1.10165949      -0.31106780      -0.33153583
O        2.15044615       0.47937425       0.14459030
H       -2.13500362      -0.73083252       0.37054191
H       -1.70918469      -0.41546763      -1.37535685
H       -1.48449787       0.91248845       0.69466744
H        1.09679132      -0.29355666      -1.42524959
H        1.21758368      -1.36517211      -0.03504798
H        1.85567081       0.89464616       0.96176018
11
Frame=1 idx=004707 GeodesicLength=0.03938334872972453 rxn_smarts="[C:1]([C:2](=[O:3])[C:4]([O:5][H:11])([H:9])[H:10])([H:6])([H:7])[H:8]>>[C:1](=[C:2]([O:3][H:8])[C:4]([O:5][H:11])([H:9])[H:10])([H:6])[H:7]"
C       -1.53140497      -0.17263003      -0.32668581
C       -0.23921418       0.10900438       0.16090443
O       -0.32015054       0.91214736       1.15839207
C        1.10062902      -0.30739680      -0.33562689
O        2.15823292       0.45472122       0.16622270
H       -2.13588340      -0.73329124       0.38494166
H       -1.69827635      -0.44937898      -1.36155444
H       -1.49663897       0.93118164       0.67921564
H        1.09904255      -0.25483142      -1.42866241
H        1.20693582      -1.37084201      -0.07216852
H        1.85672811       0.88131587       0.97502158
11
Frame=2 idx=004707 GeodesicLength=0.07835154266600992 rxn_smarts="[C:1]([C:2](=[O:3])[C:4]([O:5][H:11])([H:9])[H:10])([H:6])([H:7])[H:8]>>[C:1](=[C:2]([O:3][H:8])[C:4]([O:5][H:11])([H:9])[H:10])([H:6])[H:7]"
C       -1.52981844      -0.18331586      -0.31671428
C       -0.23798045       0.10584481       0.16875180
O       -0.31942427       0.94333650       1.13780242
C        1.09952615      -0.30401901      -0.33941061
O        2.16514217       0.42859408       0.18821669
H       -2.13707991      -0.73526173       0.39916906
H       -1.68669745      -0.48262178      -1.34690943
H       -1.50845949       0.94937433       0.66295372
H        1.10118689      -0.21525700      -1.43046474
H        1.19648159      -1.37584182      -0.11025876
H        1.85712322       0.86916749       0.98686413
11
Frame=3 idx=004707 GeodesicLength=0.11741723817285787 rxn_smarts="[C:1]([C:2](=[O:3])[C:4]([O:5][H:11])([H:9])[H:10])([H:6])([H:7])[H:8]>>[C:1](=[C:2]([O:3][H:8])[C:4]([O:5][H:11])([H:9])[H:10])([H:6])[H:7]"
C       -1.52803109      -0.19378595      -0.30653728
C       -0.23660353       0.10190775       0.17761066
O       -0.31840679       0.97361129       1.11637741
C        1.09844125      -0.30107434      -0.34282374
O        2.17131140       0.40132881       0.21025498
H       -2.13863003      -0.73720086       0.41285198
H       -1.67474890      -0.51423310      -1.33193219
H       -1.52027077       0.96667835       0.64658638
H        1.10348267      -0.17586007      -1.43066291
H        1.18615327      -1.38015046      -0.14864344
H        1.85730251       0.85877857       0.99691815
11
Frame=4 idx=004707 GeodesicLength=0.15655923260218074 rxn_smarts="[C:1]([C:2](=[O:3])[C:4]([O:5][H:11])([H:9])[H:10])([H:6])([H:7])[H:8]>>[C:1](=[C:2]([O:3][H:8])[C:4]([O:5][H:11])([H:9])[H:10])([H:6])[H:7]"
C       -1.52607576      -0.20374148      -0.29633058
C       -0.23511420       0.09737282       0.18733979
O       -0.31709021       1.00227469       1.09477111
C        1.09733440      -0.29869774      -0.34577686
O        2.17669440       0.37281472       0.23235129
H       -2.14061589      -0.73918426       0.42561142
H       -1.66236131      -0.54410802      -1.31683094
H       -1.53193358       0.98308718       0.63046621
H        1.10591488      -0.13692677      -1.42910479
H        1.17585349      -1.38384740      -0.18696036
H        1.85739377       0.85095626       1.00446372
11
Frame=5 idx=004707 GeodesicLength=0.1954450469658471 rxn_smarts="[C:1]([C:2](=[O:3])[C:4]([O:5][H:11])([H:9])[H:10])([H:6])([H:7])[H:8]>>[C:1](=[C:2]([O:3][H:8])[C:4]([O:5][H:11])([H:9])[H:10])([H:6])[H:7]"
C       -1.52387193      -0.21315583      -0.28614299
C       -0.23349106       0.09248165       0.19777617
O       -0.31545993       1.02913226       1.07291556
C        1.09608791      -0.29685672      -0.34818031
O        2.18094859       0.34329791       0.25446883
H       -2.14249029      -0.74142792       0.43734137
H       -1.64968763      -0.57159403      -1.30182359
H       -1.54353814       0.99822733       0.61484440
H        1.10851516      -0.09896293      -1.42581295
H        1.16537593      -1.38675024      -0.22459971
H        1.85761139       0.84560852       1.00921320
11
Frame=6 idx=004707 GeodesicLength=0.23462963390307784 rxn_smarts="[C:1]([C:2](=[O:3])[C:4]([O:5][H:11])([H:9])[H:10])([H:6])([H:7])[H:8]>>[C:1](=[C:2]([O:3][H:8])[C:4]([O:5][H:11])([H:9])[H:10])([H:6])[H:7]"
C       -1.52166508      -0.22187579      -0.27614737
C       -0.23180881       0.08753654       0.20861855
O       -0.31363895       1.05411272       1.05145171
C        1.09482896      -0.29560415      -0.35012962
O        2.18429009       0.31300759       0.27653969
H       -2.14454212      -0.74417364       0.44789106
H       -1.63688203      -0.59690691      -1.28719291
H       -1.55525916       1.01233063       0.60015883
H        1.11155711      -0.06233119      -1.42095231
H        1.15472989      -1.38899296      -0.26132897
H        1.85839009       0.84289716       1.01109134
11
Frame=7 idx=004707 GeodesicLength=0.27420072439020016 rxn_smarts="[C:1]([C:2](=[O:3])[C:4]([O:5][H:11])([H:9])[H:10])([H:6])([H:7])[H:8]>>[C:1](=[C:2]([O:3][H:8])[C:4]([O:5][H:11])([H:9])[H:10])([H:6])[H:7]"
C       -1.51948379      -0.23008807      -0.26625700
C       -0.23010642       0.08256199       0.21983737
O       -0.31164408       1.07751310       1.03015121
C        1.09353363      -0.29474989      -0.35175216
O        2.18656870       0.28186888       0.29892556
H       -2.14677501      -0.74717039       0.45763027
H       -1.62398016      -0.62093801      -1.27264281
H       -1.56706488       1.02574117       0.58585199
H        1.11500749      -0.02636901      -1.41457473
H        1.14398468      -1.39044640      -0.29768162
H        1.85995984       0.84207664       1.01051192
11
Frame=8 idx=004707 GeodesicLength=0.31332676116164604 rxn_smarts="[C:1]([C:2](=[O:3])[C:4]([O:5][H:11])([H:9])[H:10])([H:6])([H:7])[H:8]>>[C:1](=[C:2]([O:3][H:8])[C:4]([O:5][H:11])([H:9])[H:10])([H:6])[H:7]"
C       -1.51703180      -0.23765061      -0.25651469
C       -0.22830312       0.07777227       0.23113673
O       -0.30951619       1.09905168       1.00898505
C        1.09198947      -0.29428987      -0.35291995
O        2.18719812       0.25019512       0.32147229
H       -2.14842158      -0.75079910       0.46640960
H       -1.61083396      -0.64268422      -1.25835365
H       -1.57884052       1.03802637       0.57239123
H        1.11901427       0.00831277      -1.40667457
H        1.13268927      -1.39100893      -0.33277701
H        1.86205605       0.84307453       1.00684498
11
Frame=9 idx=004707 GeodesicLength=0.3527250445019794 rxn_smarts="[C:1]([C:2](=[O:3])[C:4]([O:5][H:11])([H:9])[H:10])([H:6])([H:7])[H:8]>>[C:1](=[C:2]([O:3][H:8])[C:4]([O:5][H:11])([H:9])[H:10])([H:6])[H:7]"
C       -1.51470481      -0.24457160      -0.24704180
C       -0.22653211       0.07333350       0.24234172
O       -0.30730745       1.11892411       0.98845089
C        1.09044875      -0.29402889      -0.35394193
O        2.18656701       0.21951647       0.34332813
H       -2.15008941      -0.75486139       0.47427011
H       -1.59782039      -0.66284256      -1.24446437
H       -1.59080260       1.04972716       0.55958243
H        1.12325336       0.04118531      -1.39792008
H        1.12175057      -1.39068656      -0.36623120
H        1.86523709       0.84430445       1.00162610
11
Frame=10 idx=004707 GeodesicLength=0.3924039688827713 rxn_smarts="[C:1]([C:2](=[O:3])[C:4]([O:5][H:11])([H:9])[H:10])([H:6])([H:7])[H:8]>>[C:1](=[C:2]([O:3][H:8])[C:4]([O:5][H:11])([H:9])[H:10])([H:6])[H:7]"
C       -1.51246432      -0.25096432      -0.23777138
C       -0.22474076       0.06930132       0.25335426
O       -0.30507081       1.13745807       0.96830239
C        1.08890210      -0.29388767      -0.35486721
O        2.18477457       0.18961619       0.36464978
H       -2.15156543      -0.75940959       0.48145993
H       -1.58498215      -0.68157269      -1.23089963
H       -1.60300924       1.06085354       0.54737128
H        1.12788810       0.07246448      -1.38841852
H        1.11094261      -1.38946089      -0.39825649
H        1.86932533       0.84560157       0.99507560
11
Frame=11 idx=004707 GeodesicLength=0.4323809212327845 rxn_smarts="[C:1]([C:2](=[O:3])[C:4]([O:5][H:11])([H:9])[H:10])([H:6])([H:7])[H:8]>>[C:1](=[C:2]([O:3][H:8])[C:4]([O:5][H:11])([H:9])[H:10])([H:6])[H:7]"
C       -1.51028110      -0.25697757      -0.22857662
C       -0.22293276       0.06572327       0.26411557
O       -0.30283335       1.15493989       0.94826992
C        1.08733643      -0.29358689      -0.35591727
O        2.18186906       0.16082703       0.38511606
H       -2.15280117      -0.76411221       0.48841047
H       -1.57227075      -0.69977333      -1.21721414
H       -1.61538616       1.07180602       0.53498931
H        1.13259829       0.10264467      -1.37841968
H        1.10050500      -1.38717675      -0.42922462
H        1.87419649       0.84568588       0.98845100
11
Frame=12 idx=004707 GeodesicLength=0.4723993860181335 rxn_smarts="[C:1]([C:2](=[O:3])[C:4]([O:5][H:11])([H:9])[H:10])([H:6])([H:7])[H:8]>>[C:1](=[C:2]([O:3][H:8])[C:4]([O:5][H:11])([H:9])[H:10])([H:6])[H:7]"
C       -1.50807132      -0.26262758      -0.21942846
C       -0.22107531       0.06260092       0.27456808
O       -0.30058431       1.17137196       0.92835014
C        1.08570842      -0.29317113      -0.35700322
O        2.17785422       0.13293012       0.40497475
H       -2.15369105      -0.76916646       0.49510164
H       -1.55963673      -0.71710020      -1.20346517
H       -1.62783915       1.08242148       0.52266299
H        1.13767408       0.13169587      -1.36789737
H        1.09009678      -1.38395249      -0.45911376
H        1.87956438       0.84499749       0.98125038
11
Frame=13 idx=004707 GeodesicLength=0.5125197159571062 rxn_smarts="[C:1]([C:2](=[O:3])[C:4]([O:5][H:11])([H:9])[H:10])([H:6])([H:7])[H:8]>>[C:1](=[C:2]([O:3][H:8])[C:4]([O:5][H:11])([H:9])[H:10])([H:6])[H:7]"
C       -1.50585748      -0.26795228      -0.21031300
C       -0.21915734       0.05997253       0.28466639
O       -0.29835522       1.18686076       0.90860787
C        1.08405943      -0.29243369      -0.35834321
O        2.17309586       0.10662167       0.42336914
H       -2.15423222      -0.77426607       0.50175255
H       -1.54713567      -0.73406089      -1.18949500
H       -1.64037529       1.09299753       0.50982814
H        1.14254560       0.15956801      -1.35732572
H        1.08013117      -1.37972409      -0.48777425
H        1.88528116       0.84241652       0.97502707
11
Frame=14 idx=004707 GeodesicLength=0.552848539061153 rxn_smarts="[C:1]([C:2](=[O:3])[C:4]([O:5][H:11])([H:9])[H:10])([H:6])([H:7])[H:8]>>[C:1](=[C:2]([O:3][H:8])[C:4]([O:5][H:11])([H:9])[H:10])([H:6])[H:7]"
C       -1.50370100      -0.27292551      -0.20128171
C       -0.21719281       0.05774912       0.29449037
O       -0.29616728       1.20139227       0.88929137
C        1.08244200      -0.29157837      -0.35977254
O        2.16777153       0.08154931       0.44071056
H       -2.15456898      -0.77964886       0.50812744
H       -1.53483514      -0.75011943      -1.17563624
H       -1.65311899       1.10334718       0.49698944
H        1.14751409       0.18606223      -1.34664301
H        1.07045020      -1.37481526      -0.51515549
H        1.89140640       0.83898732       0.96887981
11
Frame=15 idx=004707 GeodesicLength=0.5932708773328511 rxn_smarts="[C:1]([C:2](=[O:3])[C:4]([O:5][H:11])([H:9])[H:10])([H:6])([H:7])[H:8]>>[C:1](=[C:2]([O:3][H:8])[C:4]([O:5][H:11])([H:9])[H:10])([H:6])[H:7]"
C       -1.50154940      -0.27758534      -0.19229607
C       -0.21516172       0.05589676       0.30405740
O       -0.29401275       1.21502235       0.87039217
C        1.08083047      -0.29052862      -0.36134467
O        2.16204092       0.05778354       0.45676942
H       -2.15465764      -0.78519604       0.51432933
H       -1.52268786      -0.76548134      -1.16176376
H       -1.66599627       1.11356520       0.48385396
H        1.15236898       0.21132867      -1.33597722
H        1.06107537      -1.36924602      -0.54131113
H        1.89774989       0.83444085       0.96329056
11
Frame=16 idx=004707 GeodesicLength=0.6337451133313872 rxn_smarts="[C:1]([C:2](=[O:3])[C:4]([O:5][H:11])([H:9])[H:10])([H:6])([H:7])[H:8]>>[C:1](=[C:2]([O:3][H:8])[C:4]([O:5][H:11])([H:9])[H:10])([H:6])[H:7]"
C       -1.49939392      -0.28191882      -0.18337447
C       -0.21306524       0.05436012       0.31341538
O       -0.29189573       1.22776227       0.85200621
C        1.07922548      -0.28936890      -0.36297923
O        2.15598597       0.03517957       0.47170848
H       -2.15450574      -0.79098681       0.52026410
H       -1.51069439      -0.77990579      -1.14802849
H       -1.67903993       1.12356174       0.47059897
H        1.15714971       0.23531043      -1.32533948
H        1.05193917      -1.36318231      -0.56619208
H        1.90429460       0.82918850       0.95792060
