13
Frame=0 idx=007917 GeodesicLength=0.0 rxn_smarts="[C:1]([O:2]/[C:3](=[N:4]\[H:11])[N:5]([C:6](=[O:7])[H:13])[H:12])([H:8])([H:9])[H:10]>>[C:1]([O:2][C@@:3]([N:4]([H:11])[H:13])([N:5]=[C:6]=[O:7])[H:12])([H:8])([H:9])[H:10]"
C       -1.75675224      -0.15813712      -1.08162056
O       -1.17883752       0.14716729       0.17261726
C        0.11003294      -0.25657461       0.38206683
N        1.15738615       0.04970375      -0.50744349
N        0.50171898      -0.29251414       1.65715173
C        1.63520823       0.41648030       1.79545540
O        2.50252447       0.50422180       2.59437862
H       -2.81600249       0.06972673      -0.99378451
H       -1.63657574      -1.22020596      -1.32391673
H       -1.33850149       0.44749595      -1.89207673
H        0.79117731       0.49199482      -1.36027430
H        0.35336532      -1.27864950      -0.20189020
H        1.67525604       1.07929074       0.75933674
13
Frame=1 idx=007917 GeodesicLength=0.12298735517280845 rxn_smarts="[C:1]([O:2]/[C:3](=[N:4]\[H:11])[N:5]([C:6](=[O:7])[H:13])[H:12])([H:8])([H:9])[H:10]>>[C:1]([O:2][C@@:3]([N:4]([H:11])[H:13])([N:5]=[C:6]=[O:7])[H:12])([H:8])([H:9])[H:10]"
C       -1.76140677      -0.16218721      -1.08701194
O       -1.19463788       0.15134643       0.17010974
C        0.10409983      -0.21328066       0.37228105
N        1.14901846       0.07709601      -0.51718866
N        0.50586487      -0.28895476       1.64606278
C        1.63899824       0.41140802       1.80494425
O        2.50261032       0.47014998       2.61079028
H       -2.82605056       0.04031309      -1.00143630
H       -1.61651771      -1.21959977      -1.33568548
H       -1.35527856       0.45811343      -1.89255648
H        0.78259117       0.49590671      -1.38014826
H        0.36006869      -1.28631705      -0.13075014
H        1.71063989       1.06600579       0.74058915
13
Frame=2 idx=007917 GeodesicLength=0.24592708781711808 rxn_smarts="[C:1]([O:2]/[C:3](=[N:4]\[H:11])[N:5]([C:6](=[O:7])[H:13])[H:12])([H:8])([H:9])[H:10]>>[C:1]([O:2][C@@:3]([N:4]([H:11])[H:13])([N:5]=[C:6]=[O:7])[H:12])([H:8])([H:9])[H:10]"
C       -1.76521626      -0.16528199      -1.09195104
O       -1.20806564       0.15222543       0.16824770
C        0.09934028      -0.17609510       0.36256152
N        1.14100549       0.10223619      -0.52678247
N        0.50976217      -0.28476919       1.63527887
C        1.64190987       0.40751353       1.81352995
O        2.50082027       0.44002992       2.62612921
H       -2.83442550       0.01219151      -1.00704292
H       -1.59641910      -1.21681233      -1.34995257
H       -1.37173962       0.47142865      -1.89097498
H        0.77466073       0.49846241      -1.39884842
H        0.36523918      -1.29301602      -0.06022742
H        1.74312812       1.05188699       0.72003257
13
Frame=3 idx=007917 GeodesicLength=0.36884353760789074 rxn_smarts="[C:1]([O:2]/[C:3](=[N:4]\[H:11])[N:5]([C:6](=[O:7])[H:13])[H:12])([H:8])([H:9])[H:10]>>[C:1]([O:2][C@@:3]([N:4]([H:11])[H:13])([N:5]=[C:6]=[O:7])[H:12])([H:8])([H:9])[H:10]"
C       -1.76831965      -0.16754753      -1.09658076
O       -1.21930500       0.15019676       0.16686616
C        0.09564022      -0.14473762       0.35287013
N        1.13333252       0.12554168      -0.53617056
N        0.51345732      -0.27982153       1.62511838
C        1.64425913       0.40463499       1.82140050
O        2.49777345       0.41338324       2.64052155
H       -2.84130350      -0.01454141      -1.01110419
H       -1.57666238      -1.21208631      -1.36641821
H       -1.38787784       0.48686261      -1.88760922
H        0.76729399       0.49997036      -1.41643382
H        0.36901034      -1.29929442       0.00946202
H        1.77270142       1.03743918       0.69807802
13
Frame=4 idx=007917 GeodesicLength=0.49175271930564957 rxn_smarts="[C:1]([O:2]/[C:3](=[N:4]\[H:11])[N:5]([C:6](=[O:7])[H:13])[H:12])([H:8])([H:9])[H:10]>>[C:1]([O:2][C@@:3]([N:4]([H:11])[H:13])([N:5]=[C:6]=[O:7])[H:12])([H:8])([H:9])[H:10]"
C       -1.77084097      -0.16912550      -1.10102601
O       -1.22857006       0.14565576       0.16578624
C        0.09289533      -0.11878377       0.34313548
N        1.12597999       0.14749513      -0.54534278
N        0.51698753      -0.27405364       1.61574773
C        1.64631641       0.40255912       1.82871274
O        2.49397982       0.38959558       2.65407333
H       -2.84686385      -0.03986794      -1.01407129
H       -1.55753930      -1.20568777      -1.38474207
H       -1.40368095       0.50384683      -1.88273773
H        0.76041773       0.50070165      -1.43304037
H        0.37148537      -1.30548542       0.07842761
H        1.79943295       1.02314996       0.67507711
13
Frame=5 idx=007917 GeodesicLength=0.6146534261000014 rxn_smarts="[C:1]([O:2]/[C:3](=[N:4]\[H:11])[N:5]([C:6](=[O:7])[H:13])[H:12])([H:8])([H:9])[H:10]>>[C:1]([O:2][C@@:3]([N:4]([H:11])[H:13])([N:5]=[C:6]=[O:7])[H:12])([H:8])([H:9])[H:10]"
C       -1.77287662      -0.17015203      -1.10538455
O       -1.23604642       0.13895060       0.16483833
C        0.09105142      -0.09780662       0.33326011
N        1.11891595       0.16858599      -0.55431008
N        0.52040699      -0.26745334       1.60721407
C        1.64827962       0.40105951       1.83559937
O        2.48982431       0.36803623       2.66687323
H       -2.85126252      -0.06378329      -1.01630702
H       -1.53928406      -1.19787904      -1.40459151
H       -1.41911871       0.52186511      -1.87661435
H        0.75396749       0.50085541      -1.44883281
H        0.37273232      -1.31174710       0.14694349
H        1.82341024       1.00946857       0.65131172
13
Frame=6 idx=007917 GeodesicLength=0.737550714815224 rxn_smarts="[C:1]([O:2]/[C:3](=[N:4]\[H:11])[N:5]([C:6](=[O:7])[H:13])[H:12])([H:8])([H:9])[H:10]>>[C:1]([O:2][C@@:3]([N:4]([H:11])[H:13])([N:5]=[C:6]=[O:7])[H:12])([H:8])([H:9])[H:10]"
C       -1.77450238      -0.17073447      -1.10973142
O       -1.24188865       0.13034291       0.16387746
C        0.09006954      -0.08146508       0.32314542
N        1.11211648       0.18924281      -0.56310033
N        0.52373750      -0.26003561       1.59949691
C        1.65032046       0.39994584       1.84216385
O        2.48559403       0.34815510       2.67899843
H       -2.85464536      -0.08634413      -1.01806802
H       -1.52203649      -1.18886179      -1.42574297
H       -1.43417755       0.54056424      -1.86941625
H        0.74793183       0.50053124      -1.46399150
H        0.37271667      -1.31817916       0.21538558
H        1.84476392       0.99683810       0.62698282
13
Frame=7 idx=007917 GeodesicLength=0.8604397148068909 rxn_smarts="[C:1]([O:2]/[C:3](=[N:4]\[H:11])[N:5]([C:6](=[O:7])[H:13])[H:12])([H:8])([H:9])[H:10]>>[C:1]([O:2][C@@:3]([N:4]([H:11])[H:13])([N:5]=[C:6]=[O:7])[H:12])([H:8])([H:9])[H:10]"
C       -1.77576789      -0.17096370      -1.11411774
O       -1.24619053       0.12003552       0.16277576
C        0.08997137      -0.06951845       0.31267770
N        1.10553501       0.20988485      -0.57174698
N        0.52702041      -0.25183758       1.59251685
C        1.65255285       0.39903542       1.84848929
O        2.48147686       0.32946101       2.69052149
H       -2.85712382      -0.10757344      -1.01952603
H       -1.50592021      -1.17881782      -1.44800180
H       -1.44882751       0.55964688      -1.86129027
H        0.74230540       0.49976265      -1.47869698
H        0.37137481      -1.32479100       0.28415915
H        1.86359325       0.98567567       0.60223955
13
Frame=8 idx=007917 GeodesicLength=0.9833236086677347 rxn_smarts="[C:1]([O:2]/[C:3](=[N:4]\[H:11])[N:5]([C:6](=[O:7])[H:13])[H:12])([H:8])([H:9])[H:10]>>[C:1]([O:2][C@@:3]([N:4]([H:11])[H:13])([N:5]=[C:6]=[O:7])[H:12])([H:8])([H:9])[H:10]"
C       -1.77670445      -0.17091096      -1.11857869
O       -1.24899686       0.10817218       0.16141967
C        0.09081996      -0.06183905       0.30173476
N        1.09910253       0.23091453      -0.58028373
N        0.53029300      -0.24289902       1.58616002
C        1.65505903       0.39816884       1.85463835
O        2.47759679       0.31151787       2.70150545
H       -2.85878971      -0.12750037      -1.02077698
H       -1.49102210      -1.16789047      -1.47124016
H       -1.46304130       0.57890489      -1.85233614
H        0.73711249       0.49850601      -1.49312745
H        0.36858681      -1.33154119       0.35370108
H        1.87998382       0.97639673       0.57718382
13
Frame=9 idx=007917 GeodesicLength=1.1061992205339035 rxn_smarts="[C:1]([O:2]/[C:3](=[N:4]\[H:11])[N:5]([C:6](=[O:7])[H:13])[H:12])([H:8])([H:9])[H:10]>>[C:1]([O:2][C@@:3]([N:4]([H:11])[H:13])([N:5]=[C:6]=[O:7])[H:12])([H:8])([H:9])[H:10]"
C       -1.77732549      -0.17063501      -1.12313509
O       -1.25029731       0.09485353       0.15970194
C        0.09273614      -0.05841102       0.29017102
N        1.09270582       0.25273410      -0.58873858
N        0.53360880      -0.23325741       1.58027266
C        1.65789016       0.39719427       1.86066026
O        2.47402305       0.29393625       2.71200144
H       -2.85971443      -0.14614165      -1.02184893
H       -1.47741391      -1.15620103      -1.49537416
H       -1.47678536       0.59818279      -1.84262180
H        0.73240289       0.49665960      -1.50744587
H        0.36418595      -1.33831723       0.42446227
H        1.89398369       0.96940280       0.55189483
13
Frame=10 idx=007917 GeodesicLength=1.2290481499136283 rxn_smarts="[C:1]([O:2]/[C:3](=[N:4]\[H:11])[N:5]([C:6](=[O:7])[H:13])[H:12])([H:8])([H:9])[H:10]>>[C:1]([O:2][C@@:3]([N:4]([H:11])[H:13])([N:5]=[C:6]=[O:7])[H:12])([H:8])([H:9])[H:10]"
C       -1.77762695      -0.17017775      -1.12779001
O       -1.25002287       0.08012555       0.15752324
C        0.09587914      -0.05934343       0.27782183
N        1.08618550       0.27575433      -0.59713038
N        0.53700529      -0.22297592       1.57465971
C        1.66108462       0.39597820       1.86658025
O        2.47077401       0.27639757       2.72204820
H       -2.85994074      -0.16351652      -1.02269814
H       -1.46515402      -1.14382505      -1.52036987
H       -1.49002754       0.61738930      -1.83216666
H        0.72828311       0.49405161      -1.52180802
H        0.35793398      -1.34495956       0.49689569
H        1.90562645       0.96510166       0.52643417
13
Frame=11 idx=007917 GeodesicLength=1.351863336101149 rxn_smarts="[C:1]([O:2]/[C:3](=[N:4]\[H:11])[N:5]([C:6](=[O:7])[H:13])[H:12])([H:8])([H:9])[H:10]>>[C:1]([O:2][C@@:3]([N:4]([H:11])[H:13])([N:5]=[C:6]=[O:7])[H:12])([H:8])([H:9])[H:10]"
C       -1.77758610      -0.16957696      -1.13253563
O       -1.24804551       0.06400545       0.15478060
C        0.10047825      -0.06485364       0.26450204
N        1.07928788       0.30039544      -0.60546166
N        0.54053668      -0.21211399       1.56909847
C        1.66465736       0.39438514       1.87239638
O        2.46782970       0.25860656       2.73167373
H       -2.85948818      -0.17964969      -1.02322702
H       -1.45428089      -1.13081727      -1.54622513
H       -1.50273199       0.63646104      -1.82096229
H        0.72490704       0.49049707      -1.53633001
H        0.34952982      -1.35120068       0.57146672
H        1.91490595       0.96386154       0.50082379
13
Frame=12 idx=007917 GeodesicLength=1.474642597428162 rxn_smarts="[C:1]([O:2]/[C:3](=[N:4]\[H:11])[N:5]([C:6](=[O:7])[H:13])[H:12])([H:8])([H:9])[H:10]>>[C:1]([O:2][C@@:3]([N:4]([H:11])[H:13])([N:5]=[C:6]=[O:7])[H:12])([H:8])([H:9])[H:10]"
C       -1.77716034      -0.16887359      -1.13735134
O       -1.24418006       0.04647977       0.15136700
C        0.10682226      -0.07525010       0.25001176
N        1.07164084       0.32702982      -0.61371634
N        0.54425667      -0.20072815       1.56333265
C        1.66861060       0.39228937       1.87807084
O        2.46512405       0.24031221       2.74089986
H       -2.85834584      -0.19462224      -1.02328201
H       -1.44478171      -1.11719253      -1.57297916
H       -1.51488028       0.65536806      -1.80895776
H        0.72248573       0.48587884      -1.55105359
H        0.33857193      -1.35662663       0.64863929
H        1.92183616       0.96593518       0.47501879
13
Frame=13 idx=007917 GeodesicLength=1.5973572314864 rxn_smarts="[C:1]([O:2]/[C:3](=[N:4]\[H:11])[N:5]([C:6](=[O:7])[H:13])[H:12])([H:8])([H:9])[H:10]>>[C:1]([O:2][C@@:3]([N:4]([H:11])[H:13])([N:5]=[C:6]=[O:7])[H:12])([H:8])([H:9])[H:10]"
C       -1.77628094      -0.16812705      -1.14219129
O       -1.23819639       0.02750300       0.14717344
C        0.11523020      -0.09086890       0.23414736
N        1.06274581       0.35588965      -0.62184310
N        0.54819580      -0.18887111       1.55705672
C        1.67293447       0.38960124       1.88352984
O        2.46250860       0.22134923       2.74974754
H       -2.85645259      -0.20866617      -1.02264424
H       -1.43653482      -1.10289131      -1.60071178
H       -1.52650389       0.67412099      -1.79602133
H        0.72127004       0.48026480      -1.56589748
H        0.32451333      -1.36058930       0.72879318
H        1.92657036       0.97128492       0.44886114
13
Frame=14 idx=007917 GeodesicLength=1.7199874953004137 rxn_smarts="[C:1]([O:2]/[C:3](=[N:4]\[H:11])[N:5]([C:6](=[O:7])[H:13])[H:12])([H:8])([H:9])[H:10]>>[C:1]([O:2][C@@:3]([N:4]([H:11])[H:13])([N:5]=[C:6]=[O:7])[H:12])([H:8])([H:9])[H:10]"
C       -1.77488412      -0.16743987      -1.14699079
O       -1.22987419       0.00703812       0.14210388
C        0.12604091      -0.11190529       0.21677348
N        1.05200266       0.38678495      -0.62978785
N        0.55241682      -0.17658593       1.54995385
C        1.67756510       0.38628699       1.88869593
O        2.45967879       0.20177353       2.75838293
H       -2.85373606      -0.22225844      -1.02108373
H       -1.42923883      -1.08778737      -1.62953015
H       -1.53777168       0.69274880      -1.78194146
H        0.72139571       0.47431565      -1.58058461
H        0.30679720      -1.36206069       0.81206479
H        1.92960767       0.97908956       0.42194375
13
Frame=15 idx=007917 GeodesicLength=1.8425217862742318 rxn_smarts="[C:1]([O:2]/[C:3](=[N:4]\[H:11])[N:5]([C:6](=[O:7])[H:13])[H:12])([H:8])([H:9])[H:10]>>[C:1]([O:2][C@@:3]([N:4]([H:11])[H:13])([N:5]=[C:6]=[O:7])[H:12])([H:8])([H:9])[H:10]"
C       -1.77292278      -0.16696653      -1.15162551
O       -1.21909505      -0.01490856       0.13612794
C        0.13946258      -0.13811821       0.19790905
N        1.03887475       0.41894960      -0.63747330
N        0.55698445      -0.16398424       1.54172368
C        1.68233354       0.38244671       1.89356068
O        2.45605000       0.18192572       2.76721353
H       -2.85009010      -0.23620516      -1.01837835
H       -1.42237291      -1.07164577      -1.65948747
H       -1.54903532       0.71127483      -1.76637314
H        0.72270565       0.46931344      -1.59468556
H        0.28505256      -1.35959109       0.89793162
H        1.93205263       0.98750927       0.39355682
13
Frame=16 idx=007917 GeodesicLength=1.9649534736251564 rxn_smarts="[C:1]([O:2]/[C:3](=[N:4]\[H:11])[N:5]([C:6](=[O:7])[H:13])[H:12])([H:8])([H:9])[H:10]>>[C:1]([O:2][C@@:3]([N:4]([H:11])[H:13])([N:5]=[C:6]=[O:7])[H:12])([H:8])([H:9])[H:10]"
C       -1.77041548      -0.16685613      -1.15587961
O       -1.20599447      -0.03825540       0.12936280
C        0.15540532      -0.16853200       0.17781605
N        1.02313803       0.45109249      -0.64477182
N        0.56198497      -0.15139150       1.53214815
C        1.68687352       0.37837083       1.89828293
O        2.45072744       0.16249701       2.77692320
H       -2.84543513      -0.25147134      -1.01439093
H       -1.41530486      -1.05412916      -1.69046530
H       -1.56078363       0.72970748      -1.74882088
H        0.72470005       0.46671035      -1.60775041
H        0.25957360      -1.35157615       0.98474609
H        1.93553062       0.99383352       0.36279975
