15
Frame=0 idx=008777 GeodesicLength=0.0 rxn_smarts="[O:1]=[C:2]1[C:3]([H:8])([H:9])[C:4]([H:10])([H:11])[C:5]([H:12])([H:13])[C:6]([H:14])=[C:7]1[H:15]>>[O:1]1[C:2]2=[C:7]([H:15])[C@:6]2([H:14])[C:5]([H:12])([H:13])[C:4]([H:10])([H:11])[C:3]1([H:8])[H:9]"
O        0.49702994      -2.16920456      -0.72538913
C        0.87281079      -1.07339289      -0.14708453
C       -1.00079701      -0.96690543      -0.07812157
C       -1.11199423       0.47471789       0.36261249
C       -0.06858177       1.28879586      -0.37374060
C        1.18134941       0.41488058      -0.35404986
C        1.51430831      -0.44195375       0.82481406
H       -1.36472147      -1.14928990      -1.08077083
H       -1.29806917      -1.72477690       0.63417986
H       -2.13126315       0.79513644       0.11607204
H       -0.96752834       0.53503494       1.44124418
H       -0.37770110       1.45954218      -1.40937946
H        0.09248726       2.26705321       0.08704100
H        2.00175956       0.76788848      -0.98237576
H        2.16091103      -0.47752616       1.68494805
15
Frame=1 idx=008777 GeodesicLength=0.06841966851210597 rxn_smarts="[O:1]=[C:2]1[C:3]([H:8])([H:9])[C:4]([H:10])([H:11])[C:5]([H:12])([H:13])[C:6]([H:14])=[C:7]1[H:15]>>[O:1]1[C:2]2=[C:7]([H:15])[C@:6]2([H:14])[C:5]([H:12])([H:13])[C:4]([H:10])([H:11])[C:3]1([H:8])[H:9]"
O        0.48932231      -2.19252284      -0.66665828
C        0.86796421      -1.07765934      -0.13496802
C       -1.00121935      -0.97124681      -0.08717090
C       -1.11557761       0.46951104       0.35897260
C       -0.06871193       1.29018898      -0.36791869
C        1.18566496       0.42371580      -0.35272455
C        1.52732469      -0.43160667       0.81891580
H       -1.35268039      -1.14201891      -1.09730667
H       -1.33981190      -1.72350293       0.61320844
H       -2.13308594       0.79412466       0.11192622
H       -0.97607129       0.52536716       1.43873745
H       -0.37481518       1.46870622      -1.40322366
H        0.08680076       2.26594861       0.09994500
H        2.00074412       0.77825209      -0.98670963
H        2.20415254      -0.47725706       1.65497489
15
Frame=2 idx=008777 GeodesicLength=0.1364039866300174 rxn_smarts="[O:1]=[C:2]1[C:3]([H:8])([H:9])[C:4]([H:10])([H:11])[C:5]([H:12])([H:13])[C:6]([H:14])=[C:7]1[H:15]>>[O:1]1[C:2]2=[C:7]([H:15])[C@:6]2([H:14])[C:5]([H:12])([H:13])[C:4]([H:10])([H:11])[C:3]1([H:8])[H:9]"
O        0.48070143      -2.21445460      -0.60577067
C        0.86323582      -1.08212173      -0.12282521
C       -1.00144077      -0.97576910      -0.09589716
C       -1.11894614       0.46417256       0.35546999
C       -0.06882634       1.29147749      -0.36202569
C        1.19002833       0.43260693      -0.35171823
C        1.54068634      -0.42166969       0.81219755
H       -1.33927379      -1.13514098      -1.11354158
H       -1.38131208      -1.72164683       0.59070863
H       -2.13474309       0.79288727       0.10807448
H       -0.98416501       0.51552972       1.43630198
H       -0.37221697       1.47784135      -1.39682949
H        0.08122215       2.26461136       0.11296837
H        1.99960719       0.78890484      -0.99135492
H        2.24544294      -0.47722858       1.62424195
15
Frame=3 idx=008777 GeodesicLength=0.2039381734818315 rxn_smarts="[O:1]=[C:2]1[C:3]([H:8])([H:9])[C:4]([H:10])([H:11])[C:5]([H:12])([H:13])[C:6]([H:14])=[C:7]1[H:15]>>[O:1]1[C:2]2=[C:7]([H:15])[C@:6]2([H:14])[C:5]([H:12])([H:13])[C:4]([H:10])([H:11])[C:3]1([H:8])[H:9]"
O        0.47109618      -2.23477622      -0.54284078
C        0.85862149      -1.08680199      -0.11073737
C       -1.00147383      -0.98047944      -0.10429072
C       -1.12209933       0.45870306       0.35209722
C       -0.06892151       1.29264821      -0.35608690
C        1.19444476       0.44155537      -0.35104139
C        1.55435641      -0.41221980       0.80458224
H       -1.32462242      -1.12869967      -1.12938449
H       -1.42229746      -1.71923667       0.56671692
H       -2.13623570       0.79142874       0.10451793
H       -0.99179972       0.50553612       1.43393135
H       -0.36990709       1.48691501      -1.39022506
H        0.07576571       2.26303161       0.12607415
H        1.99837260       0.79987778      -0.99627679
H        2.28469988      -0.47748212       1.59296368
15
Frame=4 idx=008777 GeodesicLength=0.2710326269531822 rxn_smarts="[O:1]=[C:2]1[C:3]([H:8])([H:9])[C:4]([H:10])([H:11])[C:5]([H:12])([H:13])[C:6]([H:14])=[C:7]1[H:15]>>[O:1]1[C:2]2=[C:7]([H:15])[C@:6]2([H:14])[C:5]([H:12])([H:13])[C:4]([H:10])([H:11])[C:3]1([H:8])[H:9]"
O        0.46044981      -2.25326292      -0.47796699
C        0.85410858      -1.09172442      -0.09873899
C       -1.00134142      -0.98538299      -0.11235274
C       -1.12506061       0.45310994       0.34883252
C       -0.06900184       1.29369272      -0.35012274
C        1.19891319       0.45056510      -0.35066721
C        1.56827163      -0.40331824       0.79605163
H       -1.30885143      -1.12273504      -1.14476601
H       -1.46253041      -1.71631238       0.54128371
H       -2.13758591       0.78975760       0.10121740
H       -0.99901260       0.49541178       1.43160925
H       -0.36787395       1.49589449      -1.38344305
H        0.07042532       2.26121095       0.13922790
H        1.99706653       0.81120056      -1.00139621
H        2.32202312      -0.47810715       1.56123152
15
Frame=5 idx=008777 GeodesicLength=0.33767738453821744 rxn_smarts="[O:1]=[C:2]1[C:3]([H:8])([H:9])[C:4]([H:10])([H:11])[C:5]([H:12])([H:13])[C:6]([H:14])=[C:7]1[H:15]>>[O:1]1[C:2]2=[C:7]([H:15])[C@:6]2([H:14])[C:5]([H:12])([H:13])[C:4]([H:10])([H:11])[C:3]1([H:8])[H:9]"
O        0.44872565      -2.26961482      -0.41137520
C        0.84968862      -1.09689237      -0.08678598
C       -1.00105433      -0.99047351      -0.12004793
C       -1.12787118       0.44741090       0.34565378
C       -0.06908270       1.29458966      -0.34417099
C        1.20343562       0.45965818      -0.35049261
C        1.58233459      -0.39498971       0.78667734
H       -1.29211034      -1.11726621      -1.15957511
H       -1.50179105      -1.71292589       0.51448967
H       -2.13883040       0.78786366       0.09810029
H       -1.00588827       0.48522493       1.42931455
H       -0.36608224       1.50466531      -1.37655215
H        0.06513707       2.25916990       0.15231390
H        1.99573513       0.82291939      -1.00654122
H        2.35765383      -0.47933943       1.52899166
15
Frame=6 idx=008777 GeodesicLength=0.4039109053104035 rxn_smarts="[O:1]=[C:2]1[C:3]([H:8])([H:9])[C:4]([H:10])([H:11])[C:5]([H:12])([H:13])[C:6]([H:14])=[C:7]1[H:15]>>[O:1]1[C:2]2=[C:7]([H:15])[C@:6]2([H:14])[C:5]([H:12])([H:13])[C:4]([H:10])([H:11])[C:3]1([H:8])[H:9]"
O        0.43587453      -2.28371764      -0.34294940
C        0.84531532      -1.10235388      -0.07499042
C       -1.00065841      -0.99575327      -0.12746900
C       -1.13052942       0.44159023       0.34253377
C       -0.06914024       1.29534321      -0.33820134
C        1.20799808       0.46879684      -0.35061276
C        1.59652678      -0.38732575       0.77630713
H       -1.27446930      -1.11230916      -1.17386537
H       -1.53980208      -1.70915018       0.48642076
H       -2.13995613       0.78578545       0.09517393
H       -1.01241576       0.47490502       1.42702792
H       -0.36452553       1.51334965      -1.36949607
H        0.06000007       2.25684708       0.16547378
H        1.99435175       0.83499106      -1.01182080
H        2.39143034      -0.48099864       1.49646787
15
Frame=7 idx=008777 GeodesicLength=0.46978453558888933 rxn_smarts="[O:1]=[C:2]1[C:3]([H:8])([H:9])[C:4]([H:10])([H:11])[C:5]([H:12])([H:13])[C:6]([H:14])=[C:7]1[H:15]>>[O:1]1[C:2]2=[C:7]([H:15])[C@:6]2([H:14])[C:5]([H:12])([H:13])[C:4]([H:10])([H:11])[C:3]1([H:8])[H:9]"
O        0.42186020      -2.29526659      -0.27287826
C        0.84098898      -1.10811235      -0.06323724
C       -1.00014942      -1.00121468      -0.13458230
C       -1.13309899       0.43567182       0.33943620
C       -0.06920079       1.29593756      -0.33224986
C        1.21259944       0.47801685      -0.35086550
C        1.61074209      -0.38032213       0.76509243
H       -1.25605748      -1.10788069      -1.18754758
H       -1.57644326      -1.70503065       0.45718012
H       -2.14102350       0.78349039       0.09230843
H       -1.01873036       0.46453202       1.42471739
H       -0.36315607       1.52181825      -1.36235573
H        0.05489944       2.25428539       0.17857650
H        1.99297516       0.84751057      -1.01696922
H        2.42379455      -0.48343575       1.46337461
15
Frame=8 idx=008777 GeodesicLength=0.5353663281934224 rxn_smarts="[O:1]=[C:2]1[C:3]([H:8])([H:9])[C:4]([H:10])([H:11])[C:5]([H:12])([H:13])[C:6]([H:14])=[C:7]1[H:15]>>[O:1]1[C:2]2=[C:7]([H:15])[C@:6]2([H:14])[C:5]([H:12])([H:13])[C:4]([H:10])([H:11])[C:3]1([H:8])[H:9]"
O        0.40665558      -2.30408455      -0.20115063
C        0.83667969      -1.11421455      -0.05151290
C       -0.99956147      -1.00686177      -0.14145114
C       -1.13561032       0.42965911       0.33633260
C       -0.06925715       1.29638109      -0.32629498
C        1.21723883       0.48729710      -0.35126195
C        1.62496969      -0.37402320       0.75299147
H       -1.23694806      -1.10398515      -1.20065846
H       -1.61153523      -1.70068119       0.42684759
H       -2.14206477       0.78100435       0.08946699
H       -1.02487530       0.45409074       1.42236240
H       -0.36196227       1.53013124      -1.35510523
H        0.04987465       2.25147270       0.19169781
H        1.99159787       0.86043925      -1.02201679
H        2.45479827      -0.48662517       1.42975321
15
Frame=9 idx=008777 GeodesicLength=0.6007034157226022 rxn_smarts="[O:1]=[C:2]1[C:3]([H:8])([H:9])[C:4]([H:10])([H:11])[C:5]([H:12])([H:13])[C:6]([H:14])=[C:7]1[H:15]>>[O:1]1[C:2]2=[C:7]([H:15])[C@:6]2([H:14])[C:5]([H:12])([H:13])[C:4]([H:10])([H:11])[C:3]1([H:8])[H:9]"
O        0.39023155      -2.30990874      -0.12770432
C        0.83233220      -1.12067862      -0.03983453
C       -0.99891276      -1.01268369      -0.14814720
C       -1.13808326       0.42354213       0.33317493
C       -0.06929458       1.29666548      -0.32031029
C        1.22189758       0.49661817      -0.35182005
C        1.63914587      -0.36847869       0.73993832
H       -1.21719599      -1.10062071      -1.21323333
H       -1.64484651      -1.69621576       0.39558152
H       -2.14307574       0.77833582       0.08658748
H       -1.03090803       0.44354500       1.41991914
H       -0.36089858       1.53835897      -1.34770334
H        0.04497280       2.24834289       0.20493911
H        1.99020305       0.87375057      -1.02697663
H        2.48443242      -0.49057281       1.39558918
15
Frame=10 idx=008777 GeodesicLength=0.6658287568809014 rxn_smarts="[O:1]=[C:2]1[C:3]([H:8])([H:9])[C:4]([H:10])([H:11])[C:5]([H:12])([H:13])[C:6]([H:14])=[C:7]1[H:15]>>[O:1]1[C:2]2=[C:7]([H:15])[C@:6]2([H:14])[C:5]([H:12])([H:13])[C:4]([H:10])([H:11])[C:3]1([H:8])[H:9]"
O        0.37257930      -2.31243976      -0.05299081
C        0.82796134      -1.12752011      -0.02809478
C       -0.99817364      -1.01867644      -0.15461599
C       -1.14055256       0.41734463       0.32994878
C       -0.06932633       1.29676875      -0.31434424
C        1.22659700       0.50601345      -0.35237953
C        1.65320187      -0.36370515       0.72605761
H       -1.19697811      -1.09777605      -1.22516935
H       -1.67623983      -1.69170945       0.36361092
H       -2.14409782       0.77544389       0.08358172
H       -1.03690907       0.43297809       1.41737366
H       -0.35991943       1.54634499      -1.34024553
H        0.04008356       2.24494566       0.21813803
H        1.98886749       0.88753479      -1.03159650
H        2.51290621      -0.49554729       1.36072601
15
Frame=11 idx=008777 GeodesicLength=0.730836301897436 rxn_smarts="[O:1]=[C:2]1[C:3]([H:8])([H:9])[C:4]([H:10])([H:11])[C:5]([H:12])([H:13])[C:6]([H:14])=[C:7]1[H:15]>>[O:1]1[C:2]2=[C:7]([H:15])[C@:6]2([H:14])[C:5]([H:12])([H:13])[C:4]([H:10])([H:11])[C:3]1([H:8])[H:9]"
O        0.35371745      -2.31145305       0.02295444
C        0.82352886      -1.13477595      -0.01634188
C       -0.99736586      -1.02485329      -0.16092228
C       -1.14304403       0.41106970       0.32659637
C       -0.06933823       1.29670618      -0.30837712
C        1.23134506       0.51547730      -0.35295498
C        1.66711159      -0.35976988       0.71126935
H       -1.17641925      -1.09547775      -1.23650508
H       -1.70551496      -1.68733249       0.33119227
H       -2.14515129       0.77235588       0.08037120
H       -1.04292678       0.42238142       1.41467697
H       -0.35899285       1.55418272      -1.33270272
H        0.03525886       2.24125632       0.23139521
H        1.98761971       0.90180206      -1.03585781
H        2.54017170      -0.50156916       1.32520606
15
Frame=12 idx=008777 GeodesicLength=0.7957977032365054 rxn_smarts="[O:1]=[C:2]1[C:3]([H:8])([H:9])[C:4]([H:10])([H:11])[C:5]([H:12])([H:13])[C:6]([H:14])=[C:7]1[H:15]>>[O:1]1[C:2]2=[C:7]([H:15])[C@:6]2([H:14])[C:5]([H:12])([H:13])[C:4]([H:10])([H:11])[C:3]1([H:8])[H:9]"
O        0.33366784      -2.30669223       0.09985330
C        0.81900656      -1.14245627      -0.00445614
C       -0.99647643      -1.03121198      -0.16706086
C       -1.14559376       0.40472988       0.32308243
C       -0.06932872       1.29646971      -0.30240723
C        1.23614945       0.52501989      -0.35345080
C        1.68082584      -0.35668652       0.69563034
H       -1.15560405      -1.09370229      -1.24722146
H       -1.73257086      -1.68322212       0.29854568
H       -2.14626365       0.76905760       0.07685625
H       -1.04905230       0.41179350       1.41179798
H       -0.35806495       1.56184214      -1.32509205
H        0.03046697       2.23727379       0.24469724
H        1.98648070       0.91655434      -1.03965438
H        2.56635736      -0.50876943       1.28887970
15
Frame=13 idx=008777 GeodesicLength=0.8608565096465186 rxn_smarts="[O:1]=[C:2]1[C:3]([H:8])([H:9])[C:4]([H:10])([H:11])[C:5]([H:12])([H:13])[C:6]([H:14])=[C:7]1[H:15]>>[O:1]1[C:2]2=[C:7]([H:15])[C@:6]2([H:14])[C:5]([H:12])([H:13])[C:4]([H:10])([H:11])[C:3]1([H:8])[H:9]"
O        0.31243100      -2.29790023       0.17756916
C        0.81437800      -1.15058285       0.00767321
C       -0.99548178      -1.03775607      -0.17303410
C       -1.14824238       0.39833505       0.31935853
C       -0.06929671       1.29605700      -0.29641986
C        1.24101455       0.53464952      -0.35377559
C        1.69430991      -0.35447554       0.67917698
H       -1.13456614      -1.09245325      -1.25731792
H       -1.75737273      -1.67948053       0.26587291
H       -2.14746834       0.76551922       0.07290436
H       -1.05539176       0.40123516       1.40869435
H       -0.35708430       1.56932168      -1.31741237
H        0.02566522       2.23299098       0.25806826
H        1.98547853       0.93184526      -1.04284191
H        2.59162694      -0.51730542       1.25148401
15
Frame=14 idx=008777 GeodesicLength=0.9259617105269493 rxn_smarts="[O:1]=[C:2]1[C:3]([H:8])([H:9])[C:4]([H:10])([H:11])[C:5]([H:12])([H:13])[C:6]([H:14])=[C:7]1[H:15]>>[O:1]1[C:2]2=[C:7]([H:15])[C@:6]2([H:14])[C:5]([H:12])([H:13])[C:4]([H:10])([H:11])[C:3]1([H:8])[H:9]"
O        0.29023873      -2.28497136       0.25513761
C        0.80962895      -1.15913815       0.01986454
C       -0.99437547      -1.04450545      -0.17874865
C       -1.15096191       0.39191614       0.31539581
C       -0.06922104       1.29545970      -0.29050164
C        1.24600782       0.54443308      -0.35384757
C        1.70746843      -0.35323407       0.66185599
H       -1.11374174      -1.09175965      -1.26665796
H       -1.77964130      -1.67631129       0.23387753
H       -2.14873590       0.76177115       0.06848588
H       -1.06190770       0.39083625       1.40533739
H       -0.35597992       1.57651266      -1.30978943
H        0.02084055       2.22844573       0.27134654
H        1.98478807       0.94781286      -1.04517650
H        2.61559242      -0.52726762       1.21342045
15
Frame=15 idx=008777 GeodesicLength=0.9911649615740975 rxn_smarts="[O:1]=[C:2]1[C:3]([H:8])([H:9])[C:4]([H:10])([H:11])[C:5]([H:12])([H:13])[C:6]([H:14])=[C:7]1[H:15]>>[O:1]1[C:2]2=[C:7]([H:15])[C@:6]2([H:14])[C:5]([H:12])([H:13])[C:4]([H:10])([H:11])[C:3]1([H:8])[H:9]"
O        0.26726761      -2.26792445       0.33178243
C        0.80478509      -1.16813451       0.03209189
C       -0.99312841      -1.05146159      -0.18411945
C       -1.15372951       0.38550186       0.31120817
C       -0.06909264       1.29466959      -0.28471983
C        1.25117898       0.55441877      -0.35356162
C        1.72025393      -0.35299605       0.64367366
H       -1.09335678      -1.09160067      -1.27516714
H       -1.79938369      -1.67379845       0.20297443
H       -2.15005986       0.75780760       0.06362030
H       -1.06856166       0.38068182       1.40174064
H       -0.35472392       1.58329001      -1.30233076
H        0.01593187       2.22369796       0.28436316
H        1.98451118       0.96455002      -1.04647018
H        2.63810781      -0.53870192       1.17491431
15
Frame=16 idx=008777 GeodesicLength=1.0565269256271386 rxn_smarts="[O:1]=[C:2]1[C:3]([H:8])([H:9])[C:4]([H:10])([H:11])[C:5]([H:12])([H:13])[C:6]([H:14])=[C:7]1[H:15]>>[O:1]1[C:2]2=[C:7]([H:15])[C@:6]2([H:14])[C:5]([H:12])([H:13])[C:4]([H:10])([H:11])[C:3]1([H:8])[H:9]"
O        0.24375489      -2.24687049       0.40689627
C        0.79981961      -1.17754854       0.04434790
C       -0.99175329      -1.05864322      -0.18905865
C       -1.15655747       0.37912288       0.30675752
C       -0.06890281       1.29369463      -0.27911019
C        1.25656957       0.56466396      -0.35279318
C        1.73259999      -0.35378075       0.62465318
H       -1.07363072      -1.09200734      -1.28278652
H       -1.81664975      -1.67206023       0.17360523
H       -2.15144065       0.75365455       0.05820531
H       -1.07540536       0.37087584       1.39787288
H       -0.35323621       1.58960262      -1.29511472
H        0.01089603       2.21879061       0.29703842
H        1.98477254       0.98218311      -1.04646394
H        2.65916364      -0.55167765       1.13595048
