15
Frame=0 idx=009904 GeodesicLength=0.0 rxn_smarts="[C:1]([C@@:2]1([H:11])[C@:3]([C:4]#[N:5])([H:12])[N:6]1[C:7]([H:13])([H:14])[H:15])([H:8])([H:9])[H:10]>>[C:1]([C@@:2]1([H:11])[C-:3]([H:12])[N+:6]1([C:4]#[N:5])[C:7]([H:13])([H:14])[H:15])([H:8])([H:9])[H:10]"
C       -2.01512724       0.19992949      -0.06374467
C       -0.68063291      -0.30069668      -0.53308710
C        0.26361095       0.53404830      -1.29018065
C        0.68772762       1.46727964       0.28280072
N        1.00573971       2.48022130       0.76794748
N        0.51912100       0.08358028       0.23966572
C        1.54512348      -0.84529810       0.69068648
H       -1.96415197       1.26680560       0.15363226
H       -2.74586817       0.05003940      -0.86028429
H       -2.35697368      -0.33617504       0.82304963
H       -0.62900287      -1.37632973      -0.69490120
H        0.97005562      -0.01273653      -1.91685058
H        1.56127598      -1.71129256       0.02902498
H        1.33052745      -1.15990286       1.71171960
H        2.50857502      -0.33947246       0.66052167
15
Frame=1 idx=009904 GeodesicLength=0.06711219785439593 rxn_smarts="[C:1]([C@@:2]1([H:11])[C@:3]([C:4]#[N:5])([H:12])[N:6]1[C:7]([H:13])([H:14])[H:15])([H:8])([H:9])[H:10]>>[C:1]([C@@:2]1([H:11])[C-:3]([H:12])[N+:6]1([C:4]#[N:5])[C:7]([H:13])([H:14])[H:15])([H:8])([H:9])[H:10]"
C       -2.01345425       0.20059967      -0.06204559
C       -0.67959687      -0.30357111      -0.52894536
C        0.26958885       0.53062284      -1.28155144
C        0.68472102       1.48397832       0.27839277
N        0.99175568       2.50225296       0.75687300
N        0.51971292       0.08126338       0.24330432
C        1.54498330      -0.85161063       0.68713344
H       -1.96268985       1.26733836       0.15557906
H       -2.74356066       0.05182502      -0.85943420
H       -2.35804768      -0.33474845       0.82420907
H       -0.63092692      -1.37909405      -0.69323291
H        0.97781816      -0.01444591      -1.90735321
H        1.56203962      -1.71219095       0.01809407
H        1.32759278      -1.17374732       1.70526809
H        2.51006389      -0.34847212       0.66370889
15
Frame=2 idx=009904 GeodesicLength=0.13421151788682278 rxn_smarts="[C:1]([C@@:2]1([H:11])[C@:3]([C:4]#[N:5])([H:12])[N:6]1[C:7]([H:13])([H:14])[H:15])([H:8])([H:9])[H:10]>>[C:1]([C@@:2]1([H:11])[C-:3]([H:12])[N+:6]1([C:4]#[N:5])[C:7]([H:13])([H:14])[H:15])([H:8])([H:9])[H:10]"
C       -2.01168052       0.20128559      -0.06026924
C       -0.67848090      -0.30639724      -0.52478214
C        0.27564570       0.52729919      -1.27278443
C        0.68167859       1.50091341       0.27364605
N        0.97719939       2.52449035       0.74544855
N        0.52039148       0.07881071       0.24704120
C        1.54483700      -0.85810704       0.68364138
H       -1.96112251       1.26786168       0.15772291
H       -2.74115125       0.05372758      -0.85852400
H       -2.35903544      -0.33340303       0.82537234
H       -0.63280393      -1.38177122      -0.69172397
H        0.98562747      -0.01599522      -1.89779427
H        1.56270284      -1.71320609       0.00726301
H        1.32463067      -1.18771452       1.69882085
H        2.51156140      -0.35779415       0.66692176
15
Frame=3 idx=009904 GeodesicLength=0.2012978374500446 rxn_smarts="[C:1]([C@@:2]1([H:11])[C@:3]([C:4]#[N:5])([H:12])[N:6]1[C:7]([H:13])([H:14])[H:15])([H:8])([H:9])[H:10]>>[C:1]([C@@:2]1([H:11])[C-:3]([H:12])[N+:6]1([C:4]#[N:5])[C:7]([H:13])([H:14])[H:15])([H:8])([H:9])[H:10]"
C       -2.00980619       0.20198716      -0.05841249
C       -0.67728348      -0.30917270      -0.52059458
C        0.28178560       0.52408181      -1.26386910
C        0.67858917       1.51809390       0.26855363
N        0.96207379       2.54693143       0.73364387
N        0.52115669       0.07622049       0.25088479
C        1.54468356      -0.86479236       0.68021139
H       -1.95945173       1.26837451       0.16007162
H       -2.73863797       0.05574975      -0.85755274
H       -2.35993873      -0.33214259       0.82653965
H       -0.63463200      -1.38435607      -0.69037918
H        0.99348965      -0.01737687      -1.88816421
H        1.56327104      -1.71433494      -0.00347728
H        1.32163491      -1.20182117       1.69237471
H        2.51306568      -0.36744235       0.67016992
15
Frame=4 idx=009904 GeodesicLength=0.2683711786061637 rxn_smarts="[C:1]([C@@:2]1([H:11])[C@:3]([C:4]#[N:5])([H:12])[N:6]1[C:7]([H:13])([H:14])[H:15])([H:8])([H:9])[H:10]>>[C:1]([C@@:2]1([H:11])[C-:3]([H:12])[N+:6]1([C:4]#[N:5])[C:7]([H:13])([H:14])[H:15])([H:8])([H:9])[H:10]"
C       -2.00782964       0.20270559      -0.05647170
C       -0.67600242      -0.31189506      -0.51637977
C        0.28801357       0.52097426      -1.25479520
C        0.67544273       1.53552843       0.26310514
N        0.94637078       2.56957394       0.72143159
N        0.52200934       0.07349042       0.25484301
C        1.54452213      -0.87167228       0.67684402
H       -1.95767649       1.26887695       0.16263338
H       -2.73601744       0.05789638      -0.85651838
H       -2.36075764      -0.33096924       0.82771183
H       -0.63640928      -1.38684329      -0.68920256
H        1.00141063      -0.01858498      -1.87845357
H        1.56374991      -1.71557452      -0.01413586
H        1.31859902      -1.21608462       1.68592527
H        2.51457481      -0.37742198       0.67346279
15
Frame=5 idx=009904 GeodesicLength=0.3354316809355338 rxn_smarts="[C:1]([C@@:2]1([H:11])[C@:3]([C:4]#[N:5])([H:12])[N:6]1[C:7]([H:13])([H:14])[H:15])([H:8])([H:9])[H:10]>>[C:1]([C@@:2]1([H:11])[C-:3]([H:12])[N+:6]1([C:4]#[N:5])[C:7]([H:13])([H:14])[H:15])([H:8])([H:9])[H:10]"
C       -2.00574934       0.20344199      -0.05444312
C       -0.67463540      -0.31456172      -0.51213481
C        0.29433486       0.51798050      -1.24555175
C        0.67222859       1.55322606       0.25728940
N        0.93008246       2.59241467       0.70878379
N        0.52295018       0.07061796       0.25892415
C        1.54435181      -0.87875253       0.67353993
H       -1.95579579       1.26936874       0.16541750
H       -2.73328612       0.06017307      -0.85541913
H       -2.36149267      -0.32988597       0.82888911
H       -0.63813374      -1.38922708      -0.68819868
H        1.00939657      -0.01961319      -1.86865242
H        1.56414440      -1.71692198      -0.02472103
H        1.31551715      -1.23052136       1.67946818
H        2.51608704      -0.38773915       0.67680887
15
Frame=6 idx=009904 GeodesicLength=0.4024793417166675 rxn_smarts="[C:1]([C@@:2]1([H:11])[C@:3]([C:4]#[N:5])([H:12])[N:6]1[C:7]([H:13])([H:14])[H:15])([H:8])([H:9])[H:10]>>[C:1]([C@@:2]1([H:11])[C-:3]([H:12])[N+:6]1([C:4]#[N:5])[C:7]([H:13])([H:14])[H:15])([H:8])([H:9])[H:10]"
C       -2.00356373       0.20419755      -0.05232307
C       -0.67317996      -0.31716994      -0.50785669
C        0.30075492       0.51510485      -1.23612701
C        0.66893512       1.57119608       0.25109415
N        0.91320093       2.61544881       0.69567315
N        0.52397998       0.06760028       0.26313688
C        1.54417185      -0.88603889       0.67029968
H       -1.95380864       1.26984955       0.16843344
H       -2.73044023       0.06258567      -0.85425340
H       -2.36214453      -0.32889581       0.83007140
H       -0.63980309      -1.39150128      -0.68737235
H        1.01745357      -0.02045474      -1.85875029
H        1.56445875      -1.71837456      -0.03524039
H        1.31238426      -1.24514697       1.67299911
H        2.51760082      -0.39840062       0.68021537
15
Frame=7 idx=009904 GeodesicLength=0.4695141791312992 rxn_smarts="[C:1]([C@@:2]1([H:11])[C@:3]([C:4]#[N:5])([H:12])[N:6]1[C:7]([H:13])([H:14])[H:15])([H:8])([H:9])[H:10]>>[C:1]([C@@:2]1([H:11])[C-:3]([H:12])[N+:6]1([C:4]#[N:5])[C:7]([H:13])([H:14])[H:15])([H:8])([H:9])[H:10]"
C       -2.00127074       0.20497384      -0.05010744
C       -0.67163337      -0.31971687      -0.50354238
C        0.30727971       0.51235152      -1.22650880
C        0.66555071       1.58944793       0.24450488
N        0.89571461       2.63867100       0.68207240
N        0.52509976       0.06443423       0.26749004
C        1.54398152      -0.89353744       0.66712375
H       -1.95171304       1.27031924       0.17169190
H       -2.72747547       0.06514148      -0.85301931
H       -2.36271371      -0.32800180       0.83125857
H       -0.64141498      -1.39365931      -0.68672857
H        1.02558791      -0.02110315      -1.84873638
H        1.56469735      -1.71992927      -0.04570154
H        1.30919509      -1.25997737       1.66651312
H        2.51911463      -0.40941403       0.68368977
15
Frame=8 idx=009904 GeodesicLength=0.5365368585160355 rxn_smarts="[C:1]([C@@:2]1([H:11])[C@:3]([C:4]#[N:5])([H:12])[N:6]1[C:7]([H:13])([H:14])[H:15])([H:8])([H:9])[H:10]>>[C:1]([C@@:2]1([H:11])[C-:3]([H:12])[N+:6]1([C:4]#[N:5])[C:7]([H:13])([H:14])[H:15])([H:8])([H:9])[H:10]"
C       -1.99886788       0.20577267      -0.04779177
C       -0.66999256      -0.32219946      -0.49918870
C        0.31391567       0.50972491      -1.21668415
C        0.66206336       1.60799131       0.23750558
N        0.87760944       2.66207552       0.66795271
N        0.52631072       0.06111620       0.27199280
C        1.54378004      -0.90125465       0.66401263
H       -1.94950618       1.27077742       0.17520538
H       -2.72438686       0.06784952      -0.85171487
H       -2.36320078      -0.32720770       0.83244994
H       -0.64296679      -1.39569405      -0.68627267
H        1.03380624      -0.02155179      -1.83859922
H        1.56486443      -1.72158303      -0.05611191
H        1.30594422      -1.27502893       1.66000478
H        2.52062694      -0.42078795       0.68723948
15
Frame=9 idx=009904 GeodesicLength=0.6035470218465326 rxn_smarts="[C:1]([C@@:2]1([H:11])[C@:3]([C:4]#[N:5])([H:12])[N:6]1[C:7]([H:13])([H:14])[H:15])([H:8])([H:9])[H:10]>>[C:1]([C@@:2]1([H:11])[C-:3]([H:12])[N+:6]1([C:4]#[N:5])[C:7]([H:13])([H:14])[H:15])([H:8])([H:9])[H:10]"
C       -1.99635294       0.20659576      -0.04537198
C       -0.66825448      -0.32461449      -0.49479255
C        0.32066932       0.50723014      -1.20663903
C        0.65845919       1.62683620       0.23007864
N        0.85887388       2.68565349       0.65328820
N        0.52761377       0.05764234       0.27665484
C        1.54356672      -0.90919676       0.66096671
H       -1.94718599       1.27122386       0.17898478
H       -2.72116964       0.07071740      -0.85033826
H       -2.36360626      -0.32651651       0.83364495
H       -0.64445563      -1.39759785      -0.68601051
H        1.04211496      -0.02179318      -1.82832665
H        1.56496293      -1.72333311      -0.06647774
H        1.30262768      -1.29031575       1.65346924
H        2.52213647      -0.43253155       0.69086935
15
Frame=10 idx=009904 GeodesicLength=0.6705447943996936 rxn_smarts="[C:1]([C@@:2]1([H:11])[C@:3]([C:4]#[N:5])([H:12])[N:6]1[C:7]([H:13])([H:14])[H:15])([H:8])([H:9])[H:10]>>[C:1]([C@@:2]1([H:11])[C-:3]([H:12])[N+:6]1([C:4]#[N:5])[C:7]([H:13])([H:14])[H:15])([H:8])([H:9])[H:10]"
C       -1.99372337       0.20744494      -0.04284358
C       -0.66641579      -0.32695855      -0.49035063
C        0.32754760       0.50487253      -1.19635844
C        0.65472362       1.64599281       0.22220447
N        0.83949482       2.70939556       0.63805134
N        0.52900986       0.05400832       0.28148632
C        1.54334078      -0.91737031       0.65798639
H       -1.94474962       1.27165787       0.18304323
H       -2.71781830       0.07375474      -0.84888773
H       -2.36393107      -0.32593230       0.83484224
H       -0.64587831      -1.39936243      -0.68594827
H        1.05052079      -0.02181960      -1.81790566
H        1.56499576      -1.72517653      -0.07680519
H        1.29924134      -1.30585233       1.64690121
H        2.52364189      -0.44465474       0.69458429
15
Frame=11 idx=009904 GeodesicLength=0.7375304213642855 rxn_smarts="[C:1]([C@@:2]1([H:11])[C@:3]([C:4]#[N:5])([H:12])[N:6]1[C:7]([H:13])([H:14])[H:15])([H:8])([H:9])[H:10]>>[C:1]([C@@:2]1([H:11])[C-:3]([H:12])[N+:6]1([C:4]#[N:5])[C:7]([H:13])([H:14])[H:15])([H:8])([H:9])[H:10]"
C       -1.99097628       0.20832230      -0.04020169
C       -0.66447288      -0.32922803      -0.48585956
C        0.33455791       0.50265761      -1.18582640
C        0.65084125       1.66547155       0.21386091
N        0.81945726       2.73329145       0.62221384
N        0.53050005       0.05020936       0.28649784
C        1.54310141      -0.92578217       0.65507204
H       -1.94219349       1.27207871       0.18739522
H       -2.71432682       0.07697246      -0.84736127
H       -2.36417606      -0.32545937       0.83604025
H       -0.64723141      -1.40097888      -0.68609255
H        1.05903064      -0.02162313      -1.80732245
H        1.56496601      -1.72710990      -0.08710052
H        1.29578067      -1.32165379       1.64029475
H        2.52514174      -0.45716817       0.69838959
15
Frame=12 idx=009904 GeodesicLength=0.8045039053547725 rxn_smarts="[C:1]([C@@:2]1([H:11])[C@:3]([C:4]#[N:5])([H:12])[N:6]1[C:7]([H:13])([H:14])[H:15])([H:8])([H:9])[H:10]>>[C:1]([C@@:2]1([H:11])[C-:3]([H:12])[N+:6]1([C:4]#[N:5])[C:7]([H:13])([H:14])[H:15])([H:8])([H:9])[H:10]"
C       -1.98810890       0.20922974      -0.03744138
C       -0.66242206      -0.33141914      -0.48131575
C        0.34170775       0.50059151      -1.17502556
C        0.64679472       1.68528312       0.20502346
N        0.79874866       2.75732887       0.60574736
N        0.53208509       0.04624028       0.29170064
C        1.54284776      -0.93443911       0.65222402
H       -1.93951414       1.27248494       0.19205659
H       -2.71068874       0.08038249      -0.84575730
H       -2.36434286      -0.32510319       0.83723635
H       -0.64851111      -1.40243763      -0.68645030
H        1.06765128      -0.02119516      -1.79656224
H        1.56487632      -1.72912960      -0.09736948
H        1.29224174      -1.33773432       1.63364400
H        2.52663448      -0.47008277       0.70228960
15
Frame=13 idx=009904 GeodesicLength=0.8714653065057696 rxn_smarts="[C:1]([C@@:2]1([H:11])[C@:3]([C:4]#[N:5])([H:12])[N:6]1[C:7]([H:13])([H:14])[H:15])([H:8])([H:9])[H:10]>>[C:1]([C@@:2]1([H:11])[C-:3]([H:12])[N+:6]1([C:4]#[N:5])[C:7]([H:13])([H:14])[H:15])([H:8])([H:9])[H:10]"
C       -1.98511803       0.21016970      -0.03455757
C       -0.66025929      -0.33352795      -0.47671547
C        0.34900525       0.49868041      -1.16393759
C        0.64256587       1.70543829       0.19566398
N        0.77735315       2.78149386       0.58862530
N        0.53376593       0.04209530       0.29710638
C        1.54257915      -0.94334820       0.64944259
H       -1.93670707       1.27287537       0.19704410
H       -2.70689682       0.08399836      -0.84407427
H       -2.36443321      -0.32486892       0.83842748
H       -0.64971338      -1.40372852      -0.68702847
H        1.07638945      -0.02052741      -1.78560956
H        1.56472891      -1.73123221      -0.10761734
H        1.28862117      -1.35410767       1.62694299
H        2.52811892      -0.48341043       0.70628746
15
Frame=14 idx=009904 GeodesicLength=0.9384149940997144 rxn_smarts="[C:1]([C@@:2]1([H:11])[C@:3]([C:4]#[N:5])([H:12])[N:6]1[C:7]([H:13])([H:14])[H:15])([H:8])([H:9])[H:10]>>[C:1]([C@@:2]1([H:11])[C-:3]([H:12])[N+:6]1([C:4]#[N:5])[C:7]([H:13])([H:14])[H:15])([H:8])([H:9])[H:10]"
C       -1.98199917       0.21114589      -0.03154454
C       -0.65797987      -0.33555018      -0.47205490
C        0.35645962       0.49693021      -1.15254322
C        0.63813736       1.72594748       0.18574953
N        0.75524481       2.80577146       0.57082187
N        0.53554413       0.03776783       0.30272704
C        1.54229510      -0.95251738       0.64672785
H       -1.93376523       1.27324952       0.20237661
H       -2.70294252       0.08783699      -0.84231015
H       -2.36444826      -0.32476096       0.83961027
H       -0.65083405      -1.40484055      -0.68783413
H        1.08525225      -0.01961252      -1.77444832
H        1.56452599      -1.73341470      -0.11784934
H        1.28491570      -1.37078833       1.62018525
H        2.52959415      -0.49716476       0.71038618
15
Frame=15 idx=009904 GeodesicLength=1.005356597293658 rxn_smarts="[C:1]([C@@:2]1([H:11])[C@:3]([C:4]#[N:5])([H:12])[N:6]1[C:7]([H:13])([H:14])[H:15])([H:8])([H:9])[H:10]>>[C:1]([C@@:2]1([H:11])[C-:3]([H:12])[N+:6]1([C:4]#[N:5])[C:7]([H:13])([H:14])[H:15])([H:8])([H:9])[H:10]"
C       -1.97875238       0.21215974      -0.02839736
C       -0.65558075      -0.33748216      -0.46732945
C        0.36407765       0.49534881      -1.14081972
C        0.63348405       1.74682400       0.17524846
N        0.73242190       2.83015089       0.55230168
N        0.53741997       0.03325114       0.30857757
C        1.54199669      -0.96195472       0.64408095
H       -1.93068769       1.27360439       0.20807858
H       -2.69882063       0.09191556      -0.84046667
H       -2.36439473      -0.32478885       0.84077805
H       -0.65186804      -1.40576367      -0.68887574
H        1.09424614      -0.01843910      -1.76306010
H        1.56427431      -1.73567327      -0.12807178
H        1.28112287      -1.38779465       1.61336335
H        2.53106064      -0.51135810       0.71459217
15
Frame=16 idx=009904 GeodesicLength=1.0722744838295812 rxn_smarts="[C:1]([C@@:2]1([H:11])[C@:3]([C:4]#[N:5])([H:12])[N:6]1[C:7]([H:13])([H:14])[H:15])([H:8])([H:9])[H:10]>>[C:1]([C@@:2]1([H:11])[C-:3]([H:12])[N+:6]1([C:4]#[N:5])[C:7]([H:13])([H:14])[H:15])([H:8])([H:9])[H:10]"
C       -1.97537452       0.21320479      -0.02511024
C       -0.65305741      -0.33931855      -0.46253119
C        0.37186530       0.49394736      -1.12873987
C        0.62856888       1.76807473       0.16411989
N        0.70892776       2.85459763       0.53302907
N        0.53938730       0.02854040       0.31467281
C        1.54167494      -0.97165863       0.64150138
H       -1.92747279       1.27392307       0.21417413
H       -2.69451519       0.09624345      -0.83854254
H       -2.36427853      -0.32497179       0.84192194
H       -0.65280681      -1.40648023      -0.69015798
H        1.10337624      -0.01698627      -1.75142092
H        1.56397189      -1.73798807      -0.13828929
H        1.27722815      -1.40513555       1.60646564
H        2.53250480      -0.52599234       0.71890718
