14
Frame=0 idx=011415 GeodesicLength=0.0 rxn_smarts="[O:1]=[C:2]1[C:3]([H:8])([H:9])[C:4]([H:10])=[C:5]([H:11])[C:6]([H:12])([H:13])[N:7]1[H:14]>>[O:1]=[C:2]=[N:7][C:6]([C:5]([C:4](=[C:3]([H:8])[H:9])[H:10])([H:11])[H:14])([H:12])[H:13]"
O        1.54917193       2.15106448       0.52395315
C        0.71671723       1.32603094       0.23744482
C        1.32376168      -0.12827545      -0.24298986
C        0.46806239      -1.15180718       0.28311222
C       -0.90004772      -0.91157726       0.22151731
C       -1.30213628       0.33965115      -0.51907658
N       -0.61526651       1.38075167       0.27238679
H        2.37644298      -0.20336813       0.00345920
H        1.18588341      -0.00349126      -1.32423352
H        0.85266969      -1.95652842       0.90165048
H       -1.61876397      -1.65173473       0.55375256
H       -2.37383021       0.51201196      -0.44890125
H       -1.02888034       0.32644906      -1.58075435
H       -0.63378426      -0.02917689       1.11867903
14
Frame=1 idx=011415 GeodesicLength=0.10960254865182195 rxn_smarts="[O:1]=[C:2]1[C:3]([H:8])([H:9])[C:4]([H:10])=[C:5]([H:11])[C:6]([H:12])([H:13])[N:7]1[H:14]>>[O:1]=[C:2]=[N:7][C:6]([C:5]([C:4](=[C:3]([H:8])[H:9])[H:10])([H:11])[H:14])([H:12])[H:13]"
O        1.54298422       2.16677366       0.52488113
C        0.71570424       1.34144293       0.22841937
C        1.33326494      -0.13781336      -0.24225072
C        0.46970506      -1.15409401       0.28143740
C       -0.89888554      -0.90739072       0.22925832
C       -1.30666482       0.33965813      -0.51622521
N       -0.61356291       1.38291865       0.26481113
H        2.38347756      -0.21639295       0.01460824
H        1.20699030      -0.01246538      -1.32443054
H        0.85223541      -1.97197630       0.88366687
H       -1.61700191      -1.66103934       0.53232672
H       -2.37846460       0.50899511      -0.43441068
H       -1.04572329       0.32112609      -1.58055910
H       -0.64405866       0.00025750       1.13846707
14
Frame=2 idx=011415 GeodesicLength=0.21911574426865232 rxn_smarts="[O:1]=[C:2]1[C:3]([H:8])([H:9])[C:4]([H:10])=[C:5]([H:11])[C:6]([H:12])([H:13])[N:7]1[H:14]>>[O:1]=[C:2]=[N:7][C:6]([C:5]([C:4](=[C:3]([H:8])[H:9])[H:10])([H:11])[H:14])([H:12])[H:13]"
O        1.53647992       2.18276113       0.52551266
C        0.71458290       1.35701473       0.21922632
C        1.34293846      -0.14762214      -0.24129735
C        0.47140069      -1.15665301       0.27949742
C       -0.89761323      -0.90323918       0.23745912
C       -1.31122352       0.33946542      -0.51312028
N       -0.61185573       1.38504900       0.25701683
H        2.39048799      -0.22975070       0.02624436
H        1.22863261      -0.02143619      -1.32428986
H        0.85153612      -1.98787859       0.86464139
H       -1.61463001      -1.66998199       0.51024458
H       -2.38297328       0.50588006      -0.41953131
H       -1.06299330       0.31542955      -1.58002447
H       -0.65476962       0.03096193       1.15842061
14
Frame=3 idx=011415 GeodesicLength=0.328566924306856 rxn_smarts="[O:1]=[C:2]1[C:3]([H:8])([H:9])[C:4]([H:10])=[C:5]([H:11])[C:6]([H:12])([H:13])[N:7]1[H:14]>>[O:1]=[C:2]=[N:7][C:6]([C:5]([C:4](=[C:3]([H:8])[H:9])[H:10])([H:11])[H:14])([H:12])[H:13]"
O        1.52963388       2.19902017       0.52586784
C        0.71333236       1.37273108       0.20989473
C        1.35279847      -0.15771226      -0.24013158
C        0.47315767      -1.15952503       0.27721162
C       -0.89620919      -0.89915661       0.24609051
C       -1.31580052       0.33904762      -0.50977072
N       -0.61015208       1.38709582       0.24900925
H        2.39747272      -0.24345789       0.03839271
H        1.25085412      -0.03036021      -1.32380012
H        0.85055420      -2.00424201       0.84446769
H       -1.61162211      -1.67843192       0.48770342
H       -2.38734209       0.50263891      -0.40428096
H       -1.08067749       0.30935681      -1.57914199
H       -0.66599994       0.06299551       1.17848761
14
Frame=4 idx=011415 GeodesicLength=0.4379953633328507 rxn_smarts="[O:1]=[C:2]1[C:3]([H:8])([H:9])[C:4]([H:10])=[C:5]([H:11])[C:6]([H:12])([H:13])[N:7]1[H:14]>>[O:1]=[C:2]=[N:7][C:6]([C:5]([C:4](=[C:3]([H:8])[H:9])[H:10])([H:11])[H:14])([H:12])[H:13]"
O        1.52241515       2.21554015       0.52597855
C        0.71193245       1.38857541       0.20045528
C        1.36286665      -0.16809388      -0.23875833
C        0.47498744      -1.16275473       0.27448196
C       -0.89464539      -0.89518248       0.25510175
C       -1.32038152       0.33838068      -0.50619295
N       -0.60845877       1.38901025       0.24079296
H        2.40443143      -0.25753395       0.05108178
H        1.27371047      -0.03918278      -1.32294864
H        0.84927637      -2.02106939       0.82302381
H       -1.60797766      -1.68626072       0.46497266
H       -2.39155433       0.49924244      -0.38868451
H       -1.09875931       0.30291282      -1.57791209
H       -0.67784299       0.09641618       1.19860776
14
Frame=5 idx=011415 GeodesicLength=0.5474135903190388 rxn_smarts="[O:1]=[C:2]1[C:3]([H:8])([H:9])[C:4]([H:10])=[C:5]([H:11])[C:6]([H:12])([H:13])[N:7]1[H:14]>>[O:1]=[C:2]=[N:7][C:6]([C:5]([C:4](=[C:3]([H:8])[H:9])[H:10])([H:11])[H:14])([H:12])[H:13]"
O        1.51479859       2.23230193       0.52589185
C        0.71036266       1.40453322       0.19093736
C        1.37316707      -0.17877577      -0.23719174
C        0.47690205      -1.16638880       0.27119729
C       -0.89288595      -0.89135091       0.26443139
C       -1.32495260       0.33744336      -0.50240713
N       -0.60677770       1.39074515       0.23238124
H        2.41136657      -0.27199633       0.06433071
H        1.29726134      -0.04784408      -1.32173095
H        0.84769147      -2.03835726       0.80021279
H       -1.60371436      -1.69335612       0.44235426
H       -2.39559566       0.49565821      -0.37277057
H       -1.11722078       0.29611265      -1.57634040
H       -0.69040269       0.13127475       1.21870392
14
Frame=6 idx=011415 GeodesicLength=0.6568707233289084 rxn_smarts="[O:1]=[C:2]1[C:3]([H:8])([H:9])[C:4]([H:10])=[C:5]([H:11])[C:6]([H:12])([H:13])[N:7]1[H:14]>>[O:1]=[C:2]=[N:7][C:6]([C:5]([C:4](=[C:3]([H:8])[H:9])[H:10])([H:11])[H:14])([H:12])[H:13]"
O        1.50675823       2.24928839       0.52565917
C        0.70860624       1.42058898       0.18137530
C        1.38372879      -0.18976787      -0.23544350
C        0.47891968      -1.17047744       0.26722997
C       -0.89088940      -0.88770495       0.27400051
C       -1.32949721       0.33621440      -0.49843670
N       -0.60511365       1.39225409       0.22378365
H        2.41827674      -0.28688060       0.07816246
H        1.32157720      -0.05627244      -1.32013128
H        0.84579668      -2.05608920       0.77591082
H       -1.59887560      -1.69962570       0.42020543
H       -2.39944775       0.49185256      -0.35657003
H       -1.13604301       0.28897655      -1.57443722
H       -0.70379694       0.16764324       1.23869143
14
Frame=7 idx=011415 GeodesicLength=0.7663669781530787 rxn_smarts="[O:1]=[C:2]1[C:3]([H:8])([H:9])[C:4]([H:10])=[C:5]([H:11])[C:6]([H:12])([H:13])[N:7]1[H:14]>>[O:1]=[C:2]=[N:7][C:6]([C:5]([C:4](=[C:3]([H:8])[H:9])[H:10])([H:11])[H:14])([H:12])[H:13]"
O        1.49827337       2.26646893       0.52535269
C        0.70664732       1.43673118       0.17179643
C        1.39458246      -0.20108124      -0.23353561
C        0.48105554      -1.17507330       0.26243584
C       -0.88860477      -0.88427023       0.28374468
C       -1.33399983       0.33467710      -0.49430197
N       -0.60346254       1.39349458       0.21501112
H        2.42516298      -0.30222170       0.09259042
H        1.34673310      -0.06439430      -1.31814116
H        0.84359239      -2.07423734       0.75002427
H       -1.59351561      -1.70500256       0.39887635
H       -2.40309538       0.48779200      -0.34010866
H       -1.15521327       0.28152082      -1.57220894
H       -0.71815574       0.20559606       1.25846456
14
Frame=8 idx=011415 GeodesicLength=0.8759309331727283 rxn_smarts="[O:1]=[C:2]1[C:3]([H:8])([H:9])[C:4]([H:10])=[C:5]([H:11])[C:6]([H:12])([H:13])[N:7]1[H:14]>>[O:1]=[C:2]=[N:7][C:6]([C:5]([C:4](=[C:3]([H:8])[H:9])[H:10])([H:11])[H:14])([H:12])[H:13]"
O        1.48932991       2.28381961       0.52502538
C        0.70447818       1.45294939       0.16222701
C        1.40576087      -0.21272935      -0.23148508
C        0.48332804      -1.18022646       0.25665829
C       -0.88597430      -0.88107546       0.29358998
C       -1.33844533       0.33281560      -0.49001651
N       -0.60182135       1.39442742       0.20608649
H        2.43201818      -0.31807374       0.10763138
H        1.37280683      -0.07213185      -1.31573889
H        0.84108657      -2.09276464       0.72246181
H       -1.58770363      -1.70945823       0.37870857
H       -2.40652230       0.48344026      -0.32340343
H       -1.17472070       0.27377281      -1.56966017
H       -0.73362097       0.24523464       1.27791518
14
Frame=9 idx=011415 GeodesicLength=0.9855281235918402 rxn_smarts="[O:1]=[C:2]1[C:3]([H:8])([H:9])[C:4]([H:10])=[C:5]([H:11])[C:6]([H:12])([H:13])[N:7]1[H:14]>>[O:1]=[C:2]=[N:7][C:6]([C:5]([C:4](=[C:3]([H:8])[H:9])[H:10])([H:11])[H:14])([H:12])[H:13]"
O        1.47994445       2.30124979       0.52491291
C        0.70210586       1.46921965       0.15274805
C        1.41726989      -0.22475594      -0.22931280
C        0.48568620      -1.18600893       0.24943335
C       -0.88288286      -0.87806571       0.30360186
C       -1.34283999       0.33057497      -0.48560213
N       -0.60022590       1.39510489       0.19687351
H        2.43875739      -0.33460257       0.12336243
H        1.39995503      -0.07935146      -1.31281403
H        0.83828027      -2.11162251       0.69292978
H       -1.58128439      -1.71289119       0.36032506
H       -2.40974464       0.47868933      -0.30651070
H       -1.19459749       0.26564231      -1.56679530
H       -0.75042382       0.28681737       1.29684800
14
Frame=10 idx=011415 GeodesicLength=1.0951648202392001 rxn_smarts="[O:1]=[C:2]1[C:3]([H:8])([H:9])[C:4]([H:10])=[C:5]([H:11])[C:6]([H:12])([H:13])[N:7]1[H:14]>>[O:1]=[C:2]=[N:7][C:6]([C:5]([C:4](=[C:3]([H:8])[H:9])[H:10])([H:11])[H:14])([H:12])[H:13]"
O        1.47007445       2.31880255       0.52488125
C        0.69950830       1.48556934       0.14329332
C        1.42916449      -0.23715916      -0.22702598
C        0.48818515      -1.19240771       0.24087007
C       -0.87929452      -0.87530862       0.31362543
C       -1.34715597       0.32798543      -0.48103517
N       -0.59861843       1.39540858       0.18754133
H        2.44541439      -0.35178714       0.13977924
H        1.42821143      -0.08606137      -1.30939275
H        0.83515803      -2.13076900       0.66151487
H       -1.57450041      -1.71543409       0.34368181
H       -2.41271938       0.47357635      -0.28935009
H       -1.21482782       0.25724727      -1.56358305
H       -0.76859970       0.33033758       1.31519973
14
Frame=11 idx=011415 GeodesicLength=1.204840949872017 rxn_smarts="[O:1]=[C:2]1[C:3]([H:8])([H:9])[C:4]([H:10])=[C:5]([H:11])[C:6]([H:12])([H:13])[N:7]1[H:14]>>[O:1]=[C:2]=[N:7][C:6]([C:5]([C:4](=[C:3]([H:8])[H:9])[H:10])([H:11])[H:14])([H:12])[H:13]"
O        1.45972400       2.33645484       0.52496356
C        0.69668204       1.50199758       0.13387486
C        1.44147240      -0.24996155      -0.22464659
C        0.49082646      -1.19945296       0.23079592
C       -0.87514020      -0.87281781       0.32361349
C       -1.35138564       0.32503978      -0.47630293
N       -0.59698175       1.39531836       0.17810965
H        2.45196604      -0.36969920       0.15690199
H        1.45766137      -0.09220082      -1.30544201
H        0.83172675      -2.15014559       0.62818995
H       -1.56740841      -1.71714594       0.32896837
H       -2.41543310       0.46807043      -0.27188463
H       -1.23543101       0.24860939      -1.55999942
H       -0.78827896       0.37593350       1.33285779
14
Frame=12 idx=011415 GeodesicLength=1.3145334885251354 rxn_smarts="[O:1]=[C:2]1[C:3]([H:8])([H:9])[C:4]([H:10])=[C:5]([H:11])[C:6]([H:12])([H:13])[N:7]1[H:14]>>[O:1]=[C:2]=[N:7][C:6]([C:5]([C:4](=[C:3]([H:8])[H:9])[H:10])([H:11])[H:14])([H:12])[H:13]"
O        1.44889571       2.35418865       0.52517921
C        0.69362372       1.51851812       0.12447989
C        1.45422413      -0.26319221      -0.22218277
C        0.49360327      -1.20715296       0.21902368
C       -0.87032788      -0.87058673       0.33355310
C       -1.35552317       0.32172818      -0.47137411
N       -0.59529780       1.39481929       0.16859711
H        2.45836884      -0.38843574       0.17477796
H        1.48841001      -0.09771714      -1.30089475
H        0.82798048      -2.16969675       0.59286999
H       -1.56005097      -1.71811905       0.31634018
H       -2.41787040       0.46213526      -0.25405613
H       -1.25644107       0.23973343      -1.55599990
H       -0.80959488       0.42377765       1.34968653
14
Frame=13 idx=011415 GeodesicLength=1.4242081652450267 rxn_smarts="[O:1]=[C:2]1[C:3]([H:8])([H:9])[C:4]([H:10])=[C:5]([H:11])[C:6]([H:12])([H:13])[N:7]1[H:14]>>[O:1]=[C:2]=[N:7][C:6]([C:5]([C:4](=[C:3]([H:8])[H:9])[H:10])([H:11])[H:14])([H:12])[H:13]"
O        1.43759655       2.37197732       0.52553762
C        0.69032732       1.53513811       0.11509903
C        1.46744438      -0.27688481      -0.21964900
C        0.49651084      -1.21551786       0.20538379
C       -0.86477286      -0.86862050       0.34341990
C       -1.35956291       0.31804757      -0.46620318
N       -0.59354127       1.39389173       0.15904043
H        2.46458137      -0.40808759       0.19343074
H        1.52054044      -0.10256387      -1.29569575
H        0.82393144      -2.18935901       0.55555213
H       -1.55245913      -1.71844869       0.30586678
H       -2.42001462       0.45574041      -0.23578396
H       -1.27789768       0.23064216      -1.55152562
H       -0.83268385       0.47404503       1.36552707
14
Frame=14 idx=011415 GeodesicLength=1.533861106028012 rxn_smarts="[O:1]=[C:2]1[C:3]([H:8])([H:9])[C:4]([H:10])=[C:5]([H:11])[C:6]([H:12])([H:13])[N:7]1[H:14]>>[O:1]=[C:2]=[N:7][C:6]([C:5]([C:4](=[C:3]([H:8])[H:9])[H:10])([H:11])[H:14])([H:12])[H:13]"
O        1.42584625       2.38981938       0.52601153
C        0.68679196       1.55187798       0.10570811
C        1.48115773      -0.29108102      -0.21703427
C        0.49953719      -1.22452229       0.18969735
C       -0.85837811      -0.86692823       0.35320254
C       -1.36350374       0.31398746      -0.46072863
N       -0.59170460       1.39252474       0.14949252
H        2.47053056      -0.42879412       0.21292048
H        1.55415772      -0.10670632      -1.28972758
H        0.81957559      -2.20907925       0.51611783
H       -1.54461855      -1.71825819       0.29761794
H       -2.42185090       0.44883222      -0.21697071
H       -1.29985092       0.22135151      -1.54649697
H       -0.85769019       0.52697613       1.38018984
14
Frame=15 idx=011415 GeodesicLength=1.6434474784804622 rxn_smarts="[O:1]=[C:2]1[C:3]([H:8])([H:9])[C:4]([H:10])=[C:5]([H:11])[C:6]([H:12])([H:13])[N:7]1[H:14]>>[O:1]=[C:2]=[N:7][C:6]([C:5]([C:4](=[C:3]([H:8])[H:9])[H:10])([H:11])[H:14])([H:12])[H:13]"
O        1.41366843       2.40769996       0.52656417
C        0.68301062       1.56875393       0.09627977
C        1.49538127      -0.30582929      -0.21433320
C        0.50266959      -1.23413351       0.17180755
C       -0.85104725      -0.86552624       0.36287862
C       -1.36734479       0.30954577      -0.45487053
N       -0.58977149       1.39070147       0.14003385
H        2.47614384      -0.45068627       0.23327852
H        1.58934144      -0.11012265      -1.28287786
H        0.81492539      -2.22878305       0.47453689
H       -1.53650587      -1.71767781       0.29156618
H       -2.42336201       0.44136112      -0.19749365
H       -1.32235704       0.21189917      -1.54081457
H       -0.88475212       0.58279740       1.39344428
14
Frame=16 idx=011415 GeodesicLength=1.7529388946692441 rxn_smarts="[O:1]=[C:2]1[C:3]([H:8])([H:9])[C:4]([H:10])=[C:5]([H:11])[C:6]([H:12])([H:13])[N:7]1[H:14]>>[O:1]=[C:2]=[N:7][C:6]([C:5]([C:4](=[C:3]([H:8])[H:9])[H:10])([H:11])[H:14])([H:12])[H:13]"
O        1.40108720       2.42562649       0.52712363
C        0.67896802       1.58579303       0.08677421
C        1.51013224      -0.32118448      -0.21151580
C        0.50589669      -1.24428615       0.15158399
C       -0.84267108      -0.86443739       0.37243299
C       -1.37108660       0.30471647      -0.44852604
N       -0.58772667       1.38840385       0.13076063
H        2.48132570      -0.47392063       0.25456556
H        1.62618137      -0.11281109      -1.27498730
H        0.80997605      -2.24841466       0.43067230
H       -1.52806329      -1.71685118       0.28765950
H       -2.42452756       0.43326284      -0.17719951
H       -1.34548159       0.20231834      -1.53435112
H       -0.91401048       0.64178458       1.40500698
