11
Frame=0 idx=002838 GeodesicLength=0.0 rxn_smarts="[C:1]([c:2]1[n:3][o:4][c:5]([H:10])[c:6]1[H:11])([H:7])([H:8])[H:9]>>[C:1]([C:2]1=[N:3][C@:6]1([C:5](=[O:4])[H:10])[H:11])([H:7])([H:8])[H:9]"
C       -1.79538522      -0.01760367       0.07026783
C       -0.35460911      -0.43584293       0.17398038
N        0.08774695      -1.51947033       0.55801880
O        2.40790407      -1.13853748      -0.15084238
C        2.03349952       0.01347418      -0.29616966
C        0.75282843       0.51319333       0.00747315
H       -2.46103432      -0.82218264       0.37319684
H       -1.96323739       0.85674018       0.69892870
H       -1.98984196       0.25705797      -0.96694401
H        2.69400489       0.75446553      -0.78729903
H        0.58812409       1.53870587       0.31938937
11
Frame=1 idx=002838 GeodesicLength=0.06508168175493972 rxn_smarts="[C:1]([c:2]1[n:3][o:4][c:5]([H:10])[c:6]1[H:11])([H:7])([H:8])[H:9]>>[C:1]([C:2]1=[N:3][C@:6]1([C:5](=[O:4])[H:10])[H:11])([H:7])([H:8])[H:9]"
C       -1.79684974      -0.02279081       0.06379375
C       -0.35368402      -0.42360540       0.17259704
N        0.11080009      -1.48724268       0.59089687
O        2.36978190      -1.15457496      -0.18050401
C        2.02405498       0.01029645      -0.31807692
C        0.75769746       0.52026588       0.02652839
H       -2.45252451      -0.83585355       0.36617756
H       -1.98014415       0.85096459       0.68907484
H       -1.99086300       0.24704352      -0.97482126
H        2.70794227       0.74920334      -0.77625778
H        0.60378872       1.54629361       0.34059152
11
Frame=2 idx=002838 GeodesicLength=0.13023281403667436 rxn_smarts="[C:1]([c:2]1[n:3][o:4][c:5]([H:10])[c:6]1[H:11])([H:7])([H:8])[H:9]>>[C:1]([C:2]1=[N:3][C@:6]1([C:5](=[O:4])[H:10])[H:11])([H:7])([H:8])[H:9]"
C       -1.79817984      -0.02795356       0.05820520
C       -0.35275308      -0.41118088       0.17209675
N        0.13292333      -1.45601418       0.61843032
O        2.33222602      -1.16823547      -0.20612386
C        2.01341217       0.00752679      -0.34164433
C        0.76249792       0.52699273       0.04396098
H       -2.44368747      -0.84929949       0.36039161
H       -1.99658100       0.84498880       0.68010590
H       -1.99214598       0.23705273      -0.98170259
H        2.72267696       0.74243502      -0.76316467
H        0.61961097       1.55368751       0.35944468
11
Frame=3 idx=002838 GeodesicLength=0.19552373159343922 rxn_smarts="[C:1]([c:2]1[n:3][o:4][c:5]([H:10])[c:6]1[H:11])([H:7])([H:8])[H:9]>>[C:1]([C:2]1=[N:3][C@:6]1([C:5](=[O:4])[H:10])[H:11])([H:7])([H:8])[H:9]"
C       -1.79936957      -0.03315150       0.05318058
C       -0.35174920      -0.39848914       0.17180408
N        0.15429581      -1.42517005       0.64242494
O        2.29501344      -1.17994107      -0.22877037
C        2.00226098       0.00559725      -0.36511360
C        0.76722799       0.53372943       0.05959620
H       -2.43442059      -0.86286583       0.35498415
H       -2.01272199       0.83837733       0.67222051
H       -1.99372034       0.22751411      -0.98779435
H        2.73757089       0.73350145      -0.74951588
H        0.63561257       1.56089802       0.37698374
11
Frame=4 idx=002838 GeodesicLength=0.2609601642100328 rxn_smarts="[C:1]([c:2]1[n:3][o:4][c:5]([H:10])[c:6]1[H:11])([H:7])([H:8])[H:9]>>[C:1]([C:2]1=[N:3][C@:6]1([C:5](=[O:4])[H:10])[H:11])([H:7])([H:8])[H:9]"
C       -1.80024434      -0.03839865       0.04838714
C       -0.35060200      -0.38529308       0.17288056
N        0.17510029      -1.39485706       0.66382169
O        2.25741584      -1.19021301      -0.25092852
C        1.99091031       0.00466414      -0.38720742
C        0.77212737       0.54057915       0.07501261
H       -2.42468076      -0.87632193       0.34997636
H       -2.02892059       0.83170479       0.66406245
H       -1.99459936       0.21740309      -0.99383248
H        2.75157976       0.72259062      -0.73647849
H        0.65191347       1.56814195       0.39430610
11
Frame=5 idx=002838 GeodesicLength=0.3266268998649203 rxn_smarts="[C:1]([c:2]1[n:3][o:4][c:5]([H:10])[c:6]1[H:11])([H:7])([H:8])[H:9]>>[C:1]([C:2]1=[N:3][C@:6]1([C:5](=[O:4])[H:10])[H:11])([H:7])([H:8])[H:9]"
C       -1.80082607      -0.04374738       0.04366773
C       -0.34931923      -0.37154880       0.17486557
N        0.19538275      -1.36464835       0.68350402
O        2.21917903      -1.19926076      -0.27279325
C        1.97977812       0.00478325      -0.40706052
C        0.77709348       0.54777063       0.08983441
H       -2.41439983      -0.88986986       0.34498595
H       -2.04525213       0.82469603       0.65574039
H       -1.99491352       0.20691581      -0.99988956
H        2.76463394       0.70960290      -0.72504966
H        0.66864346       1.57530653       0.41219492
11
Frame=6 idx=002838 GeodesicLength=0.3924402985885462 rxn_smarts="[C:1]([c:2]1[n:3][o:4][c:5]([H:10])[c:6]1[H:11])([H:7])([H:8])[H:9]>>[C:1]([C:2]1=[N:3][C@:6]1([C:5](=[O:4])[H:10])[H:11])([H:7])([H:8])[H:9]"
C       -1.80111270      -0.04911615       0.03898563
C       -0.34797321      -0.35732396       0.17775146
N        0.21506600      -1.33494818       0.70124348
O        2.18072767      -1.20703425      -0.29360574
C        1.96880058       0.00570322      -0.42493666
C        0.78217834       0.55514186       0.10452618
H       -2.40366616      -0.90335964       0.33995946
H       -2.06166152       0.81742125       0.64721605
H       -1.99455736       0.19620624      -1.00599990
H        2.77635807       0.69498666      -0.71586775
H        0.68584030       1.58232295       0.43072778
11
Frame=7 idx=002838 GeodesicLength=0.45845947869588316 rxn_smarts="[C:1]([c:2]1[n:3][o:4][c:5]([H:10])[c:6]1[H:11])([H:7])([H:8])[H:9]>>[C:1]([C:2]1=[N:3][C@:6]1([C:5](=[O:4])[H:10])[H:11])([H:7])([H:8])[H:9]"
C       -1.80115625      -0.05454367       0.03430746
C       -0.34661311      -0.34258789       0.18129928
N        0.23417394      -1.30548495       0.71752639
O        2.14195116      -1.21363703      -0.31342126
C        1.95801089       0.00731179      -0.44103957
C        0.78729117       0.56279150       0.11871989
H       -2.39246252      -0.91688609       0.33482272
H       -2.07819024       0.80975318       0.63854638
H       -1.99369536       0.18531157      -1.01215225
H        2.78703476       0.67889154      -0.70876406
H        0.70365556       1.58908006       0.45015502
11
Frame=8 idx=002838 GeodesicLength=0.524696547045203 rxn_smarts="[C:1]([c:2]1[n:3][o:4][c:5]([H:10])[c:6]1[H:11])([H:7])([H:8])[H:9]>>[C:1]([C:2]1=[N:3][C@:6]1([C:5](=[O:4])[H:10])[H:11])([H:7])([H:8])[H:9]"
C       -1.80093716      -0.06003998       0.02964484
C       -0.34528043      -0.32723997       0.18587197
N        0.25280038      -1.27633590       0.73253018
O        2.10252334      -1.21916464      -0.33300543
C        1.94720522       0.00950286      -0.45588508
C        0.79248620       0.57070344       0.13269635
H       -2.38077030      -0.93035657       0.32986199
H       -2.09492173       0.80190322       0.62933726
H       -1.99212529       0.17378167      -1.01846476
H        2.79684452       0.66159057      -0.70292574
H        0.72217526       1.59565531       0.47033842
11
Frame=9 idx=002838 GeodesicLength=0.5912104346855029 rxn_smarts="[C:1]([c:2]1[n:3][o:4][c:5]([H:10])[c:6]1[H:11])([H:7])([H:8])[H:9]>>[C:1]([C:2]1=[N:3][C@:6]1([C:5](=[O:4])[H:10])[H:11])([H:7])([H:8])[H:9]"
C       -1.80046299      -0.06563284       0.02496538
C       -0.34400946      -0.31123276       0.19138524
N        0.27096205      -1.24733486       0.74654774
O        2.06239316      -1.22361519      -0.35214740
C        1.93634721       0.01220971      -0.46963917
C        0.79773027       0.57895035       0.14633914
H       -2.36855110      -0.94388960       0.32485270
H       -2.11191354       0.79369108       0.61969891
H       -1.98983508       0.16179329      -1.02491768
H        2.80580673       0.64307198      -0.69852379
H        0.74153275       1.60198884       0.49143893
11
Frame=10 idx=002838 GeodesicLength=0.657957463377264 rxn_smarts="[C:1]([c:2]1[n:3][o:4][c:5]([H:10])[c:6]1[H:11])([H:7])([H:8])[H:9]>>[C:1]([C:2]1=[N:3][C@:6]1([C:5](=[O:4])[H:10])[H:11])([H:7])([H:8])[H:9]"
C       -1.79972933      -0.07128581       0.02029911
C       -0.34284045      -0.29461066       0.19774289
N        0.28864706      -1.21863406       0.75946535
O        2.02169359      -1.22697382      -0.37070415
C        1.92539620       0.01534665      -0.48248752
C        0.80303265       0.58744684       0.15973398
H       -2.35582218      -0.95740746       0.31987591
H       -2.12909150       0.78512513       0.60968020
H       -1.98685500       0.14940657      -1.03145990
H        2.81389438       0.62352072      -0.69529106
H        0.76167458       1.60806589       0.51314521
11
Frame=11 idx=002838 GeodesicLength=0.7250045100464568 rxn_smarts="[C:1]([c:2]1[n:3][o:4][c:5]([H:10])[c:6]1[H:11])([H:7])([H:8])[H:9]>>[C:1]([C:2]1=[N:3][C@:6]1([C:5](=[O:4])[H:10])[H:11])([H:7])([H:8])[H:9]"
C       -1.79870982      -0.07702243       0.01560850
C       -0.34179537      -0.27730635       0.20501747
N        0.30586470      -1.19011521       0.77155575
O        1.98034004      -1.22925014      -0.38854892
C        1.91427022       0.01886579      -0.49454668
C        0.80839660       0.59624243       0.17293366
H       -2.34252345      -0.97101907       0.31467550
H       -2.14652845       0.77604597       0.59932667
H       -1.98304902       0.13677956      -1.03810088
H        2.82101649       0.60291693      -0.69347882
H        0.78271807       1.61386252       0.53555776
11
Frame=12 idx=002838 GeodesicLength=0.7923225987374989 rxn_smarts="[C:1]([c:2]1[n:3][o:4][c:5]([H:10])[c:6]1[H:11])([H:7])([H:8])[H:9]>>[C:1]([C:2]1=[N:3][C@:6]1([C:5](=[O:4])[H:10])[H:11])([H:7])([H:8])[H:9]"
C       -1.79738545      -0.08281630       0.01090952
C       -0.34090430      -0.25935313       0.21315244
N        0.32261885      -1.16186892       0.78276919
O        1.93836858      -1.23044066      -0.40570709
C        1.90294083       0.02272579      -0.50592404
C        0.81381628       0.60528232       0.18597524
H       -2.32865372      -0.98463896       0.30937750
H       -2.16415614       0.76649200       0.58859999
H       -1.97842120       0.12387604      -1.04482659
H        2.82714264       0.58140786      -0.69282373
H        0.80463362       1.61933396       0.55849757
11
Frame=13 idx=002838 GeodesicLength=0.8599173989026534 rxn_smarts="[C:1]([c:2]1[n:3][o:4][c:5]([H:10])[c:6]1[H:11])([H:7])([H:8])[H:9]>>[C:1]([C:2]1=[N:3][C@:6]1([C:5](=[O:4])[H:10])[H:11])([H:7])([H:8])[H:9]"
C       -1.79572012      -0.08863850       0.00616312
C       -0.34018012      -0.24081792       0.22205396
N        0.33881982      -1.13392239       0.79326789
O        1.89606911      -1.23058886      -0.42150495
C        1.89137905       0.02681807      -0.51656445
C        0.81930028       0.61448903       0.19900059
H       -2.31420059      -0.99834294       0.30354149
H       -2.18192915       0.75623947       0.57776766
H       -1.97289094       0.11120698      -1.05157906
H        2.83197221       0.55912674      -0.69399940
H        0.82738045       1.62443033       0.58185315
11
Frame=14 idx=002838 GeodesicLength=0.9277760364645146 rxn_smarts="[C:1]([c:2]1[n:3][o:4][c:5]([H:10])[c:6]1[H:11])([H:7])([H:8])[H:9]>>[C:1]([C:2]1=[N:3][C@:6]1([C:5](=[O:4])[H:10])[H:11])([H:7])([H:8])[H:9]"
C       -1.79370588      -0.09447493       0.00139231
C       -0.33964794      -0.22172453       0.23164043
N        0.35448752      -1.10627593       0.80305155
O        1.85339790      -1.22971786      -0.43614175
C        1.87958250       0.03112863      -0.52656628
C        0.82481230       0.62385380       0.21191643
H       -2.29914609      -1.01205884       0.29735239
H       -2.19978511       0.74533863       0.56677410
H       -1.96652389       0.09865848      -1.05834840
H        2.83558896       0.53617556      -0.69656555
H        0.85093973       1.62909700       0.60549475
11
Frame=15 idx=002838 GeodesicLength=0.9958839590856937 rxn_smarts="[C:1]([c:2]1[n:3][o:4][c:5]([H:10])[c:6]1[H:11])([H:7])([H:8])[H:9]>>[C:1]([C:2]1=[N:3][C@:6]1([C:5](=[O:4])[H:10])[H:11])([H:7])([H:8])[H:9]"
C       -1.79131075      -0.10029401      -0.00342587
C       -0.33931603      -0.20215570       0.24182989
N        0.36955904      -1.07897825       0.81223962
O        1.81057758      -1.22790864      -0.44923372
C        1.86753160       0.03557229      -0.53589595
C        0.83034863       0.63329701       0.22482361
H       -2.28348399      -1.02579461       0.29058720
H       -2.21765007       0.73369490       0.55575396
H       -1.95928679       0.08654324      -1.06510717
H        2.83779313       0.51273252      -0.70086701
H        0.87523764       1.63329125       0.62929543
11
Frame=16 idx=002838 GeodesicLength=1.0642482676933855 rxn_smarts="[C:1]([c:2]1[n:3][o:4][c:5]([H:10])[c:6]1[H:11])([H:7])([H:8])[H:9]>>[C:1]([C:2]1=[N:3][C@:6]1([C:5](=[O:4])[H:10])[H:11])([H:7])([H:8])[H:9]"
C       -1.78851698      -0.10607640      -0.00828281
C       -0.33919421      -0.18216723       0.25254646
N        0.38403224      -1.05203760       0.82087973
O        1.76764931      -1.22520904      -0.46081051
C        1.85522488       0.04011818      -0.54458153
C        0.83588300       0.64278174       0.23770224
H       -2.26720340      -1.03950129       0.28328565
H       -2.23544706       0.72131394       0.54471343
H       -1.95121386       0.07489638      -1.07183514
H        2.83858039       0.48891239      -0.70673723
H        0.90020568       1.63696893       0.65311972
