13
Frame=0 idx=003341 GeodesicLength=0.0 rxn_smarts="[C:1]1([H:7])([H:8])[C@@:2]2([H:9])[C@:3]1([H:10])[N:4]1[C:5]([H:11])([H:12])[C@@:6]21[H:13]>>[C:1]1([H:7])([H:8])[C+:2]([H:9])[C:5]([H:11])([H:12])[C@:6]2([H:13])[C@@:3]1([H:10])[N-:4]2"
C       -0.74740545       1.19357111       0.00854349
C       -0.74247453      -0.35396281      -0.02815685
C       -0.18948671       0.51247202      -1.15920252
N        1.17273408       0.06303684      -1.04293666
C        1.04732794      -0.56635389       1.12189447
C        0.69880427      -1.00273959      -0.19919626
H       -0.11294753       1.76271578       0.67417200
H       -1.76656990       1.55379052      -0.09158821
H       -1.64605745      -0.92997297       0.11325986
H       -0.69879577       0.48628684      -2.11841315
H        0.42704984      -0.78325956       1.98660836
H        1.87397564       0.11950496       1.24253758
H        0.68384552      -2.05508925      -0.50752216
13
Frame=1 idx=003341 GeodesicLength=0.062302586061992904 rxn_smarts="[C:1]1([H:7])([H:8])[C@@:2]2([H:9])[C@:3]1([H:10])[N:4]1[C:5]([H:11])([H:12])[C@@:6]21[H:13]>>[C:1]1([H:7])([H:8])[C+:2]([H:9])[C:5]([H:11])([H:12])[C@:6]2([H:13])[C@@:3]1([H:10])[N-:4]2"
C       -0.75514887       1.19213370       0.00948543
C       -0.74682609      -0.35072870      -0.01131923
C       -0.18400227       0.50932413      -1.15428126
N        1.18068578       0.07084337      -1.02634035
C        1.04210785      -0.55725453       1.11008248
C        0.69333586      -1.00664375      -0.20835659
H       -0.12798113       1.76579825       0.67822951
H       -1.77200417       1.55434399      -0.10520869
H       -1.65085589      -0.92886057       0.11637539
H       -0.68746334       0.48057205      -2.11645007
H        0.43772706      -0.77140742       1.98611816
H        1.89086913       0.09920234       1.23960767
H        0.67955608      -2.05732287      -0.51794243
13
Frame=2 idx=003341 GeodesicLength=0.12454461185190574 rxn_smarts="[C:1]1([H:7])([H:8])[C@@:2]2([H:9])[C@:3]1([H:10])[N:4]1[C:5]([H:11])([H:12])[C@@:6]21[H:13]>>[C:1]1([H:7])([H:8])[C+:2]([H:9])[C:5]([H:11])([H:12])[C@:6]2([H:13])[C@@:3]1([H:10])[N-:4]2"
C       -0.76286291       1.19068124       0.01031147
C       -0.75102793      -0.34744622       0.00548426
C       -0.17856263       0.50631996      -1.14946600
N        1.18834694       0.07828832      -1.01004662
C        1.03700285      -0.54795201       1.09848160
C        0.68797038      -1.01006442      -0.21739807
H       -0.14296089       1.76906736       0.68187038
H       -1.77736629       1.55455371      -0.11865255
H       -1.65532327      -0.92770097       0.11958832
H       -0.67634436       0.47506276      -2.11446521
H        0.44853249      -0.75960657       1.98539872
H        1.90709324       0.07797271       1.23695979
H        0.67550237      -2.05917587      -0.52806609
13
Frame=3 idx=003341 GeodesicLength=0.18679287298532615 rxn_smarts="[C:1]1([H:7])([H:8])[C@@:2]2([H:9])[C@:3]1([H:10])[N:4]1[C:5]([H:11])([H:12])[C@@:6]21[H:13]>>[C:1]1([H:7])([H:8])[C+:2]([H:9])[C:5]([H:11])([H:12])[C@:6]2([H:13])[C@@:3]1([H:10])[N-:4]2"
C       -0.77047956       1.18912846       0.01106147
C       -0.75503715      -0.34410110       0.02225805
C       -0.17313952       0.50342067      -1.14474525
N        1.19564065       0.08535254      -0.99407924
C        1.03194425      -0.53845862       1.08708151
C        0.68266572      -1.01299265      -0.22633231
H       -0.15783736       1.77239611       0.68513107
H       -1.78253936       1.55433629      -0.13186876
H       -1.65937099      -0.92644441       0.12290636
H       -0.66537700       0.46974556      -2.11244564
H        0.45942215      -0.74783210       1.98443112
H        1.92249684       0.05602281       1.23452218
H        0.67161134      -2.06057356      -0.53792056
13
Frame=4 idx=003341 GeodesicLength=0.2489629289997826 rxn_smarts="[C:1]1([H:7])([H:8])[C@@:2]2([H:9])[C@:3]1([H:10])[N:4]1[C:5]([H:11])([H:12])[C@@:6]21[H:13]>>[C:1]1([H:7])([H:8])[C+:2]([H:9])[C:5]([H:11])([H:12])[C@:6]2([H:13])[C@@:3]1([H:10])[N-:4]2"
C       -0.77801073       1.18752865       0.01172715
C       -0.75885635      -0.34070851       0.03899792
C       -0.16774336       0.50066278      -1.14013127
N        1.20268851       0.09205728      -0.97845209
C        1.02704367      -0.52878056       1.07588788
C        0.67747238      -1.01548082      -0.23514737
H       -0.17260076       1.77586915       0.68800353
H       -1.78759405       1.55375828      -0.14484809
H       -1.66304033      -0.92513227       0.12637433
H       -0.65461911       0.46464473      -2.11040873
H        0.47039102      -0.73610386       1.98322694
H        1.93692091       0.03330198       1.23226631
H        0.66794820      -2.06161684      -0.54749650
13
Frame=5 idx=003341 GeodesicLength=0.3110466663403367 rxn_smarts="[C:1]1([H:7])([H:8])[C@@:2]2([H:9])[C@:3]1([H:10])[N:4]1[C:5]([H:11])([H:12])[C@@:6]21[H:13]>>[C:1]1([H:7])([H:8])[C+:2]([H:9])[C:5]([H:11])([H:12])[C@:6]2([H:13])[C@@:3]1([H:10])[N-:4]2"
C       -0.78544120       1.18587996       0.01232925
C       -0.76249788      -0.33728104       0.05570483
C       -0.16235081       0.49804743      -1.13562080
N        1.20952201       0.09838935      -0.96317374
C        1.02229495      -0.51898805       1.06490686
C        0.67239026      -1.01759364      -0.24384156
H       -0.18721833       1.77947552       0.69050833
H       -1.79253218       1.55284886      -0.15757231
H       -1.66636811      -0.92377743       0.12999294
H       -0.64404434       0.45979055      -2.10835639
H        0.48141653      -0.72448999       1.98177946
H        1.95034592       0.01007219       1.23014401
H        0.66448319      -2.06237371      -0.55680088
13
Frame=6 idx=003341 GeodesicLength=0.37309057517729266 rxn_smarts="[C:1]1([H:7])([H:8])[C@@:2]2([H:9])[C@:3]1([H:10])[N:4]1[C:5]([H:11])([H:12])[C@@:6]21[H:13]>>[C:1]1([H:7])([H:8])[C+:2]([H:9])[C:5]([H:11])([H:12])[C@:6]2([H:13])[C@@:3]1([H:10])[N-:4]2"
C       -0.79274056       1.18414410       0.01289003
C       -0.76595615      -0.33382297       0.07237934
C       -0.15694045       0.49555897      -1.13121040
N        1.21610794       0.10433834      -0.94824908
C        1.01765551      -0.50912141       1.05413482
C        0.66739991      -1.01935449      -0.25242448
H       -0.20166268       1.78314715       0.69267373
H       -1.79730922       1.55159081      -0.17001682
H       -1.66933248      -0.92236912       0.13375939
H       -0.63361254       0.45519428      -2.10628809
H        0.49245558      -0.71298782       1.98009009
H        1.96276235      -0.01347758       1.22811084
H        0.66117277      -2.06284027      -0.56584937
13
Frame=7 idx=003341 GeodesicLength=0.4350274820739103 rxn_smarts="[C:1]1([H:7])([H:8])[C@@:2]2([H:9])[C@:3]1([H:10])[N:4]1[C:5]([H:11])([H:12])[C@@:6]21[H:13]>>[C:1]1([H:7])([H:8])[C+:2]([H:9])[C:5]([H:11])([H:12])[C@:6]2([H:13])[C@@:3]1([H:10])[N-:4]2"
C       -0.79985504       1.18230833       0.01342278
C       -0.76917672      -0.33032428       0.08902964
C       -0.15152318       0.49319134      -1.12689874
N        1.22250999       0.10990042      -0.93370924
C        1.01320650      -0.49918775       1.04355216
C        0.66250585      -1.02077510      -0.26090217
H       -0.21587393       1.78686555       0.69451117
H       -1.80187249       1.54997257      -0.18215187
H       -1.67188699      -0.92089652       0.13770870
H       -0.62336961       0.45083911      -2.10420098
H        0.50351411      -0.70161471       1.97816078
H        1.97380749      -0.03725855       1.22614384
H        0.65801402      -2.06302040      -0.57466608
13
Frame=8 idx=003341 GeodesicLength=0.4968764837073446 rxn_smarts="[C:1]1([H:7])([H:8])[C@@:2]2([H:9])[C@:3]1([H:10])[N:4]1[C:5]([H:11])([H:12])[C@@:6]21[H:13]>>[C:1]1([H:7])([H:8])[C+:2]([H:9])[C:5]([H:11])([H:12])[C@:6]2([H:13])[C@@:3]1([H:10])[N-:4]2"
C       -0.80679757       1.18039322       0.01394419
C       -0.77220240      -0.32680941       0.10565058
C       -0.14606996       0.49094996      -1.12268719
N        1.22877343       0.11506110      -0.91954594
C        1.00891712      -0.48926544       1.03316817
C        0.65771147      -1.02193501      -0.26928016
H       -0.22984785       1.79064844       0.69604654
H       -1.80626447       1.54805368      -0.19396078
H       -1.67410854      -0.91938667       0.14183640
H       -0.61327695       0.44675415      -2.10210500
H        0.51454106      -0.69042852       1.97599396
H        1.98363356      -0.06102239       1.22420737
H        0.65499112      -2.06301311      -0.58326813
13
Frame=9 idx=003341 GeodesicLength=0.55867271666848 rxn_smarts="[C:1]1([H:7])([H:8])[C@@:2]2([H:9])[C@:3]1([H:10])[N:4]1[C:5]([H:11])([H:12])[C@@:6]21[H:13]>>[C:1]1([H:7])([H:8])[C+:2]([H:9])[C:5]([H:11])([H:12])[C@:6]2([H:13])[C@@:3]1([H:10])[N-:4]2"
C       -0.81352207       1.17835508       0.01447773
C       -0.77501523      -0.32328090       0.12223761
C       -0.14056607       0.48880974      -1.11857463
N        1.23486949       0.11979501      -0.90575763
C        1.00474213      -0.47939743       1.02298073
C        0.65298554      -1.02285276      -0.27757198
H       -0.24352895       1.79441024       0.69730986
H       -1.81042366       1.54581417      -0.20540897
H       -1.67596987      -0.91781609       0.14613407
H       -0.60331072       0.44293721      -2.10000542
H        0.52549207      -0.67945021       1.97358919
H        1.99219701      -0.08452047       1.22227371
H        0.65205032      -2.06280358      -0.59168426
13
Frame=10 idx=003341 GeodesicLength=0.6203848103884351 rxn_smarts="[C:1]1([H:7])([H:8])[C@@:2]2([H:9])[C@:3]1([H:10])[N:4]1[C:5]([H:11])([H:12])[C@@:6]21[H:13]>>[C:1]1([H:7])([H:8])[C+:2]([H:9])[C:5]([H:11])([H:12])[C@:6]2([H:13])[C@@:3]1([H:10])[N-:4]2"
C       -0.82002222       1.17620036       0.01502611
C       -0.77762167      -0.31974536       0.13879764
C       -0.13500077       0.48677834      -1.11455154
N        1.24081345       0.12411725      -0.89236330
C        1.00071091      -0.46962716       1.01296787
C        0.64834429      -1.02356378      -0.28577893
H       -0.25691319       1.79816001       0.69831273
H       -1.81434943       1.54328183      -0.21650778
H       -1.67748918      -0.91621186       0.15060253
H       -0.59346327       0.43941188      -2.09788055
H        0.53637135      -0.66868748       1.97095972
H        1.99942974      -0.10767453       1.22031929
H        0.64918998      -2.06243950      -0.59990378
13
Frame=11 idx=003341 GeodesicLength=0.6820158246408036 rxn_smarts="[C:1]1([H:7])([H:8])[C@@:2]2([H:9])[C@:3]1([H:10])[N:4]1[C:5]([H:11])([H:12])[C@@:6]21[H:13]>>[C:1]1([H:7])([H:8])[C+:2]([H:9])[C:5]([H:11])([H:12])[C@:6]2([H:13])[C@@:3]1([H:10])[N-:4]2"
C       -0.82629441       1.17393338       0.01559893
C       -0.78001526      -0.31620383       0.15532592
C       -0.12938402       0.48484983      -1.11062964
N        1.24667453       0.12802115      -0.87933724
C        0.99681676      -0.45996300       1.00314415
C        0.64376838      -1.02409002      -0.29390929
H       -0.26998917       1.80188781       0.69907599
H       -1.81805047       1.54046918      -0.22724377
H       -1.67867669      -0.91456119       0.15524786
H       -0.58375639       0.43615284      -2.09576509
H        0.54714208      -0.65817419       1.96812328
H        2.00536766      -0.13038302       1.21833725
H        0.64639699      -2.06193893      -0.60796835
13
Frame=12 idx=003341 GeodesicLength=0.7435972625889959 rxn_smarts="[C:1]1([H:7])([H:8])[C@@:2]2([H:9])[C@:3]1([H:10])[N:4]1[C:5]([H:11])([H:12])[C@@:6]21[H:13]>>[C:1]1([H:7])([H:8])[C+:2]([H:9])[C:5]([H:11])([H:12])[C@:6]2([H:13])[C@@:3]1([H:10])[N-:4]2"
C       -0.83235092       1.17154763       0.01619825
C       -0.78221792      -0.31266065       0.17181943
C       -0.12370353       0.48302331      -1.10680533
N        1.25243680       0.13151747      -0.86666428
C        0.99302202      -0.45044062       0.99350078
C        0.63924404      -1.02445931      -0.30197444
H       -0.28277343       1.80557326       0.69961790
H       -1.82154136       1.53738101      -0.23763496
H       -1.67955450      -0.91287544       0.16007070
H       -0.57414967       0.43317026      -2.09365903
H        0.55777050      -0.64788014       1.96510291
H        2.01018584      -0.15257638       1.21633968
H        0.64363213      -2.06132039      -0.61591162
13
Frame=13 idx=003341 GeodesicLength=0.8051294277059746 rxn_smarts="[C:1]1([H:7])([H:8])[C@@:2]2([H:9])[C@:3]1([H:10])[N:4]1[C:5]([H:11])([H:12])[C@@:6]21[H:13]>>[C:1]1([H:7])([H:8])[C+:2]([H:9])[C:5]([H:11])([H:12])[C@:6]2([H:13])[C@@:3]1([H:10])[N-:4]2"
C       -0.83818780       1.16903381       0.01682529
C       -0.78421318      -0.30910894       0.18828562
C       -0.11796219       0.48129732      -1.10307555
N        1.25811863       0.13462079      -0.85433510
C        0.98932798      -0.44106692       0.98403244
C        0.63476023      -1.02467216      -0.30997344
H       -0.29527160       1.80919575       0.69995121
H       -1.82482007       1.53400402      -0.24769964
H       -1.68011224      -0.91115082       0.16507994
H       -0.56464231       0.43045597      -2.09156901
H        0.56825166      -0.63778825       1.96191579
H        2.01387526      -0.17425468       1.21431253
H        0.64087564      -2.06056589      -0.62375009
13
Frame=14 idx=003341 GeodesicLength=0.8666264847980334 rxn_smarts="[C:1]1([H:7])([H:8])[C@@:2]2([H:9])[C@:3]1([H:10])[N:4]1[C:5]([H:11])([H:12])[C@@:6]21[H:13]>>[C:1]1([H:7])([H:8])[C+:2]([H:9])[C:5]([H:11])([H:12])[C@:6]2([H:13])[C@@:3]1([H:10])[N-:4]2"
C       -0.84381212       1.16639843       0.01748550
C       -0.78602510      -0.30555722       0.20471891
C       -0.11214924       0.47966712      -1.09944111
N        1.26372441       0.13732244      -0.84232823
C        0.98571214      -0.43186088       0.97474377
C        0.63031313      -1.02475937      -0.31791257
H       -0.30749113       1.81275106       0.70009470
H       -1.82789680       1.53037388      -0.25743625
H       -1.68038138      -0.90939036       0.17026454
H       -0.55521097       0.42801614      -2.08950021
H        0.57856679      -0.62793379       1.95856550
H        2.01653041      -0.19530909       1.21223183
H        0.63811986      -2.05971834      -0.63148639
13
Frame=15 idx=003341 GeodesicLength=0.9280929361871835 rxn_smarts="[C:1]1([H:7])([H:8])[C@@:2]2([H:9])[C@:3]1([H:10])[N:4]1[C:5]([H:11])([H:12])[C@@:6]21[H:13]>>[C:1]1([H:7])([H:8])[C+:2]([H:9])[C:5]([H:11])([H:12])[C@:6]2([H:13])[C@@:3]1([H:10])[N-:4]2"
C       -0.84923039       1.16363756       0.01817760
C       -0.78765525      -0.30200114       0.22112201
C       -0.10626498       0.47813471      -1.09590171
N        1.26926637       0.13964071      -0.83063906
C        0.98216240      -0.42283306       0.96562359
C        0.62588852      -1.02472944      -0.32579929
H       -0.31944251       1.81623188       0.70005656
H       -1.83078163       1.52648131      -0.26686124
H       -1.68036840      -0.90760073       0.17563314
H       -0.54584597       0.42584687      -2.08745992
H        0.58870466      -0.61828986       1.95507677
H        2.01822521      -0.21574356       1.21011897
H        0.63534197      -2.05877526      -0.63914741
13
Frame=16 idx=003341 GeodesicLength=0.9895374226437005 rxn_smarts="[C:1]1([H:7])([H:8])[C@@:2]2([H:9])[C@:3]1([H:10])[N:4]1[C:5]([H:11])([H:12])[C@@:6]21[H:13]>>[C:1]1([H:7])([H:8])[C+:2]([H:9])[C:5]([H:11])([H:12])[C@:6]2([H:13])[C@@:3]1([H:10])[N-:4]2"
C       -0.85445798       1.16075337       0.01889802
C       -0.78910675      -0.29843730       0.23749771
C       -0.10030867       0.47670266      -1.09245526
N        1.27475497       0.14159056      -0.81924485
C        0.97867296      -0.41397816       0.95667256
C        0.62148200      -1.02458581      -0.33363414
H       -0.33115656       1.81963461       0.69984870
H       -1.83349261       1.52232901      -0.27600016
H       -1.68007896      -0.90578347       0.18119424
H       -0.53653206       0.42394761      -2.08545490
H        0.59866105      -0.60883471       1.95146456
H        2.01902992      -0.23559986       1.20795444
H        0.63253268      -2.05773852      -0.64674091
