19
Frame=0 idx=008291 GeodesicLength=0.0 rxn_smarts="[C:1]([C:2]([C:3]([H:12])([H:13])[H:14])([C@@:4]1([H:15])[C:5]([H:16])([H:17])[C@:6]1([O:7][H:19])[H:18])[H:11])([H:8])([H:9])[H:10]>>[C:1](=[C:2]([C:3]([H:12])([H:13])[H:14])[H:11])([H:9])[H:10].[C:4]1([H:15])=[C:5]([H:16])[C:6]1([O:7][H:19])[H:18].[H:8][H:17]"
C        1.29809542      -0.08203520       1.37286957
C        1.15641861      -0.72667523       0.17944498
C        1.63357418      -0.13187325      -1.11685663
C       -1.12768474      -0.79584403      -0.35101700
C       -1.91356826      -0.22814552       0.57149623
C       -1.69773242       0.53574632      -0.66533565
O       -0.92140452       1.71162741      -0.59465732
H       -0.15291759       0.46600728       1.82753426
H        1.34499099      -0.64426713       2.29778907
H        1.69170472       0.92868478       1.40323703
H        1.07136571      -1.80723918       0.20668565
H        2.65121614      -0.47213204      -1.32988312
H        1.65532858       0.95637225      -1.05474680
H        1.01059121      -0.41917923      -1.96578110
H       -0.98169702      -1.74750715      -0.83050304
H       -2.71956841      -0.46994372       1.24577605
H       -0.97157781       0.44573696       1.64925916
H       -2.50833283       0.63237040      -1.39122136
H       -0.51880198       1.84829620      -1.45408998
19
Frame=1 idx=008291 GeodesicLength=0.1270960375363691 rxn_smarts="[C:1]([C:2]([C:3]([H:12])([H:13])[H:14])([C@@:4]1([H:15])[C:5]([H:16])([H:17])[C@:6]1([O:7][H:19])[H:18])[H:11])([H:8])([H:9])[H:10]>>[C:1](=[C:2]([C:3]([H:12])([H:13])[H:14])[H:11])([H:9])[H:10].[C:4]1([H:15])=[C:5]([H:16])[C:6]1([O:7][H:19])[H:18].[H:8][H:17]"
C        1.29763063      -0.04719835       1.35833493
C        1.14199751      -0.71381735       0.17447715
C        1.65958664      -0.16247920      -1.12564105
C       -1.13132210      -0.78671211      -0.36629468
C       -1.92848305      -0.24504737       0.56823793
C       -1.71485857       0.54533209      -0.65326728
O       -0.95516871       1.72826287      -0.54901075
H       -0.15996257       0.46798661       1.85068860
H        1.39236735      -0.59993756       2.28567565
H        1.68882979       0.96501757       1.36493408
H        1.05973558      -1.79400624       0.23015760
H        2.67685097      -0.52020634      -1.30898584
H        1.69046471       0.92704066      -1.09457774
H        1.05192376      -0.46552655      -1.98023886
H       -0.99851345      -1.72340227      -0.87884196
H       -2.74252359      -0.51511431       1.22190887
H       -1.00015375       0.42497657       1.66708344
H       -2.52303271       0.65055184      -1.38002752
H       -0.50536843       1.86427944      -1.38461257
19
Frame=2 idx=008291 GeodesicLength=0.2523666514796429 rxn_smarts="[C:1]([C:2]([C:3]([H:12])([H:13])[H:14])([C@@:4]1([H:15])[C:5]([H:16])([H:17])[C@:6]1([O:7][H:19])[H:18])[H:11])([H:8])([H:9])[H:10]>>[C:1](=[C:2]([C:3]([H:12])([H:13])[H:14])[H:11])([H:9])[H:10].[C:4]1([H:15])=[C:5]([H:16])[C:6]1([O:7][H:19])[H:18].[H:8][H:17]"
C        1.29684284      -0.01298265       1.34305982
C        1.12825700      -0.70074883       0.16867460
C        1.68574806      -0.19340769      -1.13307554
C       -1.13470024      -0.77659460      -0.38180122
C       -1.94264792      -0.26164392       0.56462411
C       -1.73290893       0.55471004      -0.64143463
O       -0.99164429       1.74465509      -0.50443386
H       -0.16517740       0.47151346       1.87275424
H        1.43730194      -0.55574467       2.27088622
H        1.68769455       0.99940216       1.32640521
H        1.04792708      -1.77978291       0.25270627
H        2.70224100      -0.56695558      -1.28569098
H        1.72559668       0.89642441      -1.13336101
H        1.09416349      -0.51373010      -1.99269953
H       -1.01507339      -1.69691694      -0.92709488
H       -2.76348867      -0.55975715       1.19738078
H       -1.02762098       0.40476611       1.68364643
H       -2.53924282       0.66763393      -1.36846465
H       -0.49326799       1.87915983      -1.31208137
19
Frame=3 idx=008291 GeodesicLength=0.3758662777740426 rxn_smarts="[C:1]([C:2]([C:3]([H:12])([H:13])[H:14])([C@@:4]1([H:15])[C:5]([H:16])([H:17])[C@:6]1([O:7][H:19])[H:18])[H:11])([H:8])([H:9])[H:10]>>[C:1](=[C:2]([C:3]([H:12])([H:13])[H:14])[H:11])([H:9])[H:10].[C:4]1([H:15])=[C:5]([H:16])[C:6]1([O:7][H:19])[H:18].[H:8][H:17]"
C        1.29593393       0.02053940       1.32715141
C        1.11516534      -0.68746752       0.16205311
C        1.71196485      -0.22455029      -1.13913228
C       -1.13784133      -0.76551201      -0.39759690
C       -1.95602135      -0.27794454       0.56060398
C       -1.75186976       0.56383257      -0.62993325
O       -1.03061555       1.76064858      -0.46118126
H       -0.16849759       0.47687709       1.89364003
H        1.47975132      -0.51206351       2.25370675
H        1.68879524       1.03169419       1.28780368
H        1.03593927      -1.76458579       0.27427794
H        2.72722279      -0.61235208      -1.26014576
H        1.76085648       0.86460248      -1.17098728
H        1.13708995      -0.56356422      -2.00297381
H       -1.03135478      -1.66807954      -0.97523758
H       -2.78242222      -0.60387404       1.17218719
H       -1.05403003       0.38525304       1.69892155
H       -2.55700640       0.68353745      -1.35660571
H       -0.48306015       1.89300872      -1.23655182
19
Frame=4 idx=008291 GeodesicLength=0.4976877661061906 rxn_smarts="[C:1]([C:2]([C:3]([H:12])([H:13])[H:14])([C@@:4]1([H:15])[C:5]([H:16])([H:17])[C@:6]1([O:7][H:19])[H:18])[H:11])([H:8])([H:9])[H:10]>>[C:1](=[C:2]([C:3]([H:12])([H:13])[H:14])[H:11])([H:9])[H:10].[C:4]1([H:15])=[C:5]([H:16])[C:6]1([O:7][H:19])[H:18].[H:8][H:17]"
C        1.29508624       0.05338733       1.31068065
C        1.10267207      -0.67392556       0.15462527
C        1.73813665      -0.25583430      -1.14381910
C       -1.14077991      -0.75350194      -0.41374552
C       -1.96858628      -0.29399014       0.55612076
C       -1.77166193       0.57267722      -0.61880479
O       -1.07167815       1.77605297      -0.41936875
H       -0.16991434       0.48421369       1.91336805
H        1.51983197      -0.46914543       2.23439418
H        1.69239837       1.06190093       1.24919775
H        1.02375510      -1.74838407       0.29486186
H        2.75161247      -0.65645901      -1.23252047
H        1.79640547       0.83161402      -1.20740512
H        1.18044868      -0.61481878      -2.01091204
H       -1.04732993      -1.63693612      -1.02325557
H       -2.79934912      -0.64749065       1.14626481
H       -1.07949270       0.36643745       1.71296248
H       -2.57627151       0.69829617      -1.34448314
H       -0.47528312       1.90590621      -1.15816131
19
Frame=5 idx=008291 GeodesicLength=0.6179658912863606 rxn_smarts="[C:1]([C:2]([C:3]([H:12])([H:13])[H:14])([C@@:4]1([H:15])[C:5]([H:16])([H:17])[C@:6]1([O:7][H:19])[H:18])[H:11])([H:8])([H:9])[H:10]>>[C:1](=[C:2]([C:3]([H:12])([H:13])[H:14])[H:11])([H:9])[H:10].[C:4]1([H:15])=[C:5]([H:16])[C:6]1([O:7][H:19])[H:18].[H:8][H:17]"
C        1.29444408       0.08567072       1.29366647
C        1.09071848      -0.66004140       0.14639418
C        1.76417710      -0.28724763      -1.14716485
C       -1.14354773      -0.74059012      -0.43032396
C       -1.98033671      -0.30985180       0.55110892
C       -1.79216590       0.58125995      -0.60802335
O       -1.11432273       1.79068290      -0.37894024
H       -0.16945118       0.49350507       1.93205575
H        1.55777943      -0.42708359       2.21313899
H        1.69849949       1.09018046       1.21054259
H        1.01133747      -1.73110494       0.31449264
H        2.77523377      -0.69943227      -1.20296613
H        1.83242245       0.79742605      -1.24261311
H        1.22399255      -0.66735030      -2.01639252
H       -1.06296063      -1.60350835      -1.07117330
H       -2.81431585      -0.69068181       1.11950022
H       -1.10416729       0.34817251       1.72588171
H       -2.59691881       0.71206012      -1.33206323
H       -0.47041800       1.91793443      -1.07712079
19
Frame=6 idx=008291 GeodesicLength=0.736853190999784 rxn_smarts="[C:1]([C:2]([C:3]([H:12])([H:13])[H:14])([C@@:4]1([H:15])[C:5]([H:16])([H:17])[C@:6]1([O:7][H:19])[H:18])[H:11])([H:8])([H:9])[H:10]>>[C:1](=[C:2]([C:3]([H:12])([H:13])[H:14])[H:11])([H:9])[H:10].[C:4]1([H:15])=[C:5]([H:16])[C:6]1([O:7][H:19])[H:18].[H:8][H:17]"
C        1.29410554       0.11758074       1.27606979
C        1.07924859      -0.64571501       0.13734916
C        1.79002328      -0.31884126      -1.14920454
C       -1.14617063      -0.72677678      -0.44741816
C       -1.99128082      -0.32563551       0.54549292
C       -1.81324315       0.58962852      -0.59749947
O       -1.15800392       1.80437862      -0.33966890
H       -0.16713932       0.50460140       1.94989076
H        1.59393798      -0.38578476       2.19005562
H        1.70684162       1.11682828       1.17167132
H        0.99862380      -1.71263747       0.33324064
H        2.79792305      -0.74151393      -1.17159330
H        1.86913144       0.76192960      -1.27664906
H        1.26748910      -0.72108068      -2.01931334
H       -1.07821084      -1.56777198      -1.11905168
H       -2.82740968      -0.73355492       1.09171456
H       -1.12823084       0.33014521       1.73784258
H       -2.61878595       0.72506690      -1.31925731
H       -0.46884925       1.92915303      -0.99367159
19
Frame=7 idx=008291 GeodesicLength=0.8545292903376822 rxn_smarts="[C:1]([C:2]([C:3]([H:12])([H:13])[H:14])([C@@:4]1([H:15])[C:5]([H:16])([H:17])[C@:6]1([O:7][H:19])[H:18])[H:11])([H:8])([H:9])[H:10]>>[C:1](=[C:2]([C:3]([H:12])([H:13])[H:14])[H:11])([H:9])[H:10].[C:4]1([H:15])=[C:5]([H:16])[C:6]1([O:7][H:19])[H:18].[H:8][H:17]"
C        1.29412656       0.14936138       1.25779683
C        1.06821873      -0.63084330       0.12746176
C        1.81564834      -0.35073732      -1.14996446
C       -1.14865769      -0.71201166      -0.46513278
C       -2.00142191      -0.34147072       0.53918334
C       -1.83477165       0.59786037      -0.58709190
O       -1.20224999       1.81703070      -0.30117845
H       -0.16298799       0.51728067       1.96709297
H        1.62868040      -0.34500416       2.16517365
H        1.71697496       1.14223466       1.13230730
H        0.98552961      -1.69284716       0.35120050
H        2.81954558      -0.78301662      -1.13844408
H        1.90678196       0.72492175      -1.30956646
H        1.31074997      -0.77602312      -2.01957643
H       -1.09303552      -1.52961783      -1.16700937
H       -2.83869167      -0.77627300       1.06269444
H       -1.15186395       0.31193844       1.74902022
H       -2.64171597       0.73760523      -1.30591980
H       -0.47085978       1.93961170      -0.90804728
19
Frame=8 idx=008291 GeodesicLength=0.9711689812841664 rxn_smarts="[C:1]([C:2]([C:3]([H:12])([H:13])[H:14])([C@@:4]1([H:15])[C:5]([H:16])([H:17])[C@:6]1([O:7][H:19])[H:18])[H:11])([H:8])([H:9])[H:10]>>[C:1](=[C:2]([C:3]([H:12])([H:13])[H:14])[H:11])([H:9])[H:10].[C:4]1([H:15])=[C:5]([H:16])[C:6]1([O:7][H:19])[H:18].[H:8][H:17]"
C        1.29453454       0.18127983       1.23871084
C        1.05760397      -0.61533184       0.11668701
C        1.84104869      -0.38310761      -1.14944611
C       -1.15099895      -0.69618715      -0.48358748
C       -2.01074779      -0.35750246       0.53207138
C       -1.85666585       0.60604716      -0.57663263
O       -1.24672193       1.82858227      -0.26300132
H       -0.15695923       0.53132650       1.98387068
H        1.66237244      -0.30439398       2.13845503
H        1.72835898       1.16683388       1.09209625
H        0.97195124      -1.67158150       0.36847360
H        2.83997816      -0.82430312      -1.10349151
H        1.94565514       0.68613023      -1.34139700
H        1.35360407      -0.83224628      -2.01707231
H       -1.10738990      -1.48885117      -1.21519479
H       -2.84818480      -0.81904081       1.03218431
H       -1.17521754       0.29306087       1.75957453
H       -2.66558852       0.74996426      -1.29187669
H       -0.47663272       1.94932092      -0.82042377
19
Frame=9 idx=008291 GeodesicLength=1.0868917085689724 rxn_smarts="[C:1]([C:2]([C:3]([H:12])([H:13])[H:14])([C@@:4]1([H:15])[C:5]([H:16])([H:17])[C@:6]1([O:7][H:19])[H:18])[H:11])([H:8])([H:9])[H:10]>>[C:1](=[C:2]([C:3]([H:12])([H:13])[H:14])[H:11])([H:9])[H:10].[C:4]1([H:15])=[C:5]([H:16])[C:6]1([O:7][H:19])[H:18].[H:8][H:17]"
C        1.29532080       0.21361498       1.21862949
C        1.04739269      -0.59909334       0.10495574
C        1.86622546      -0.41613840      -1.14762138
C       -1.15317793      -0.67917965      -0.50288409
C       -2.01924355      -0.37388566       0.52403529
C       -1.87884219       0.61426281      -0.56594163
O       -1.29115594       1.83897177      -0.22460173
H       -0.14897167       0.54652463       2.00040436
H        1.69536247      -0.26352398       2.10978863
H        1.74038072       1.19108640       1.05061445
H        0.95779361      -1.64866991       0.38514465
H        2.85906534      -0.86578364      -1.06666065
H        1.98610344       0.64524245      -1.37209845
H        1.39586158      -0.88977306      -2.01169644
H       -1.12123136      -1.44524777      -1.26373694
H       -2.85592238      -0.86202083       0.99990443
H       -1.19841671       0.27295686       1.76965472
H       -2.69027411       0.76240470      -1.27695000
H       -0.48627025       1.95825162      -0.73094043
19
Frame=10 idx=008291 GeodesicLength=1.201874551859467 rxn_smarts="[C:1]([C:2]([C:3]([H:12])([H:13])[H:14])([C@@:4]1([H:15])[C:5]([H:16])([H:17])[C@:6]1([O:7][H:19])[H:18])[H:11])([H:8])([H:9])[H:10]>>[C:1](=[C:2]([C:3]([H:12])([H:13])[H:14])[H:11])([H:9])[H:10].[C:4]1([H:15])=[C:5]([H:16])[C:6]1([O:7][H:19])[H:18].[H:8][H:17]"
C        1.29648306       0.24663263       1.19733682
C        1.03759852      -0.58207480       0.09219805
C        1.89118890      -0.45009235      -1.14440805
C       -1.15513761      -0.66072696      -0.52318924
C       -2.02682608      -0.39076790       0.51490070
C       -1.90130434       0.62262081      -0.55481183
O       -1.33550903       1.84820156      -0.18541093
H       -0.13885556       0.56276548       2.01683161
H        1.72793954      -0.22192159       2.07900896
H        1.75245351       1.21542939       1.00736374
H        0.94292194      -1.62393833       0.40131102
H        2.87670363      -0.90778320      -1.02774489
H        2.02831342       0.60182536      -1.40164023
H        1.43739270      -0.94886781      -2.00323474
H       -1.13448928      -1.39835400      -1.31287268
H       -2.86175955      -0.90550697       0.96549819
H       -1.22154402       0.25107173       1.77931563
H       -2.71576957       0.77518349      -1.26088424
H       -0.49980016       1.96630348      -0.63956790
19
Frame=11 idx=008291 GeodesicLength=1.3162236290040363 rxn_smarts="[C:1]([C:2]([C:3]([H:12])([H:13])[H:14])([C@@:4]1([H:15])[C:5]([H:16])([H:17])[C@:6]1([O:7][H:19])[H:18])[H:11])([H:8])([H:9])[H:10]>>[C:1](=[C:2]([C:3]([H:12])([H:13])[H:14])[H:11])([H:9])[H:10].[C:4]1([H:15])=[C:5]([H:16])[C:6]1([O:7][H:19])[H:18].[H:8][H:17]"
C        1.29799254       0.28059581       1.17458537
C        1.02824080      -0.56423934       0.07832988
C        1.91591212      -0.48520844      -1.13968813
C       -1.15682141      -0.64057056      -0.54463508
C       -2.03340595      -0.40829362       0.50446774
C       -1.92402816       0.63119413      -0.54304674
O       -1.37974494       1.85621469      -0.14484508
H       -0.12638679       0.57997961       2.03325894
H        1.76037317      -0.17907465       2.04589366
H        1.76398407       1.24029108       0.96180121
H        0.92722518      -1.59720165       0.41704668
H        2.89271904      -0.95061484      -0.98651191
H        2.07248628       0.55544545      -1.42989496
H        1.47799582      -1.00970973      -1.99145909
H       -1.14710314      -1.34771428      -1.36276980
H       -2.86557104      -0.94970766       0.92855676
H       -1.24465164       0.22679917       1.78858635
H       -2.74203186       0.78850476      -1.24344837
H       -0.51718409       1.97331005      -0.54622741
19
Frame=12 idx=008291 GeodesicLength=1.4300241092123107 rxn_smarts="[C:1]([C:2]([C:3]([H:12])([H:13])[H:14])([C@@:4]1([H:15])[C:5]([H:16])([H:17])[C@:6]1([O:7][H:19])[H:18])[H:11])([H:8])([H:9])[H:10]>>[C:1](=[C:2]([C:3]([H:12])([H:13])[H:14])[H:11])([H:9])[H:10].[C:4]1([H:15])=[C:5]([H:16])[C:6]1([O:7][H:19])[H:18].[H:8][H:17]"
C        1.29981413       0.31573210       1.15011446
C        1.01935140      -0.54558297       0.06326544
C        1.94032050      -0.52168777      -1.13330953
C       -1.15816626      -0.61844528      -0.56731545
C       -2.03888222      -0.42657914       0.49250856
C       -1.94697109       0.64001260      -0.53047428
O       -1.42385852       1.86289345      -0.10235906
H       -0.11125987       0.59818650       2.04975757
H        1.79287698      -0.13448548       2.01018983
H        1.77442343       1.26603311       0.91337055
H        0.91062852      -1.56828192       0.43239785
H        2.90688101      -0.99450314      -0.94271759
H        2.11874494       0.50568183      -1.45663901
H        1.51740187      -1.07240583      -1.97612282
H       -1.15901718      -1.29285800      -1.41351773
H       -2.86722054      -0.99474595       0.88863429
H       -1.26777538       0.19954107       1.79743467
H       -2.76899092       0.80249616      -1.22444540
H       -0.53830081       1.97899866      -0.45077234
19
Frame=13 idx=008291 GeodesicLength=1.5433096218427078 rxn_smarts="[C:1]([C:2]([C:3]([H:12])([H:13])[H:14])([C@@:4]1([H:15])[C:5]([H:16])([H:17])[C@:6]1([O:7][H:19])[H:18])[H:11])([H:8])([H:9])[H:10]>>[C:1](=[C:2]([C:3]([H:12])([H:13])[H:14])[H:11])([H:9])[H:10].[C:4]1([H:15])=[C:5]([H:16])[C:6]1([O:7][H:19])[H:18].[H:8][H:17]"
C        1.30189360       0.35223067       1.12365213
C        1.01096512      -0.52614056       0.04692786
C        1.96427537      -0.55965256      -1.12508734
C       -1.15911359      -0.59411940      -0.59125315
C       -2.04316067      -0.44571173       0.47877885
C       -1.97004175       0.64905371      -0.51694707
O       -1.46778890       1.86802806      -0.05746611
H       -0.09308968       0.61748979       2.06637161
H        1.82562965      -0.08767729       1.97160674
H        1.78323203       1.29295319       0.86150584
H        0.89311167      -1.53701811       0.44739024
H        2.91887582      -1.03960350      -0.89613299
H        2.16716446       0.45218981      -1.48150265
H        1.55524223      -1.13689297      -1.95699753
H       -1.17020288      -1.23336861      -1.46506836
H       -2.86661556      -1.04061762       0.84525087
H       -1.29094152       0.16868285       1.80577400
H       -2.79650634       0.81722557      -1.20372477
H       -0.56292906       1.98294870      -0.35307818
19
Frame=14 idx=008291 GeodesicLength=1.6561422352466526 rxn_smarts="[C:1]([C:2]([C:3]([H:12])([H:13])[H:14])([C@@:4]1([H:15])[C:5]([H:16])([H:17])[C@:6]1([O:7][H:19])[H:18])[H:11])([H:8])([H:9])[H:10]>>[C:1](=[C:2]([C:3]([H:12])([H:13])[H:14])[H:11])([H:9])[H:10].[C:4]1([H:15])=[C:5]([H:16])[C:6]1([O:7][H:19])[H:18].[H:8][H:17]"
C        1.30416314       0.39026908       1.09490873
C        1.00311175      -0.50600308       0.02927178
C        1.98758228      -0.59921660      -1.11479708
C       -1.15959358      -0.56732900      -0.61646609
C       -2.04612780      -0.46575365       0.46298080
C       -1.99312320       0.65829233      -0.50231179
O       -1.51143565       1.87135036      -0.00967327
H       -0.07139481       0.63808502       2.08314649
H        1.85879291      -0.03813552       1.92979580
H        1.78985761       1.32129688       0.80559058
H        0.87467350      -1.50327062       0.46207238
H        2.92839517      -1.08587815      -0.84647426
H        2.21755981       0.39461601      -1.50410458
H        1.59114245      -1.20322430      -1.93376608
H       -1.18063873      -1.16875183      -1.51735929
H       -2.86362186      -1.08730227       0.79781316
H       -1.31418116       0.13356439       1.81344662
H       -2.82441363       0.83277483      -1.18111703
H       -0.59074818       1.98461612      -0.25295687
19
Frame=15 idx=008291 GeodesicLength=1.7685470700109316 rxn_smarts="[C:1]([C:2]([C:3]([H:12])([H:13])[H:14])([C@@:4]1([H:15])[C:5]([H:16])([H:17])[C@:6]1([O:7][H:19])[H:18])[H:11])([H:8])([H:9])[H:10]>>[C:1](=[C:2]([C:3]([H:12])([H:13])[H:14])[H:11])([H:9])[H:10].[C:4]1([H:15])=[C:5]([H:16])[C:6]1([O:7][H:19])[H:18].[H:8][H:17]"
C        1.30651358       0.42996970       1.06359270
C        0.99580486      -0.48532716       0.01029085
C        2.00997610      -0.64037999      -1.10219051
C       -1.15955139      -0.53790006      -0.64286367
C       -2.04771367      -0.48673255       0.44481341
C       -2.01600756       0.66763640      -0.48643980
O       -1.55454121       1.87245518       0.04144655
H       -0.04558775       0.66026246       2.10011976
H        1.89248374       0.01463057       1.88436661
H        1.79370307       1.35120241       0.74500990
H        0.85539196      -1.46694672       0.47649708
H        2.93506565      -1.13314983      -0.79350395
H        2.26964426       0.33274328      -1.52392858
H        1.62465279      -1.27123466      -1.90615814
H       -1.19033117      -1.09861569      -1.57015711
H       -2.85822846      -1.13458186       0.74572006
H       -1.33756580       0.09349200       1.82024111
H       -2.85241931       0.84918945      -1.15650611
H       -0.62128968       1.98328705      -0.15035015
19
Frame=16 idx=008291 GeodesicLength=1.8805600086790415 rxn_smarts="[C:1]([C:2]([C:3]([H:12])([H:13])[H:14])([C@@:4]1([H:15])[C:5]([H:16])([H:17])[C@:6]1([O:7][H:19])[H:18])[H:11])([H:8])([H:9])[H:10]>>[C:1](=[C:2]([C:3]([H:12])([H:13])[H:14])[H:11])([H:9])[H:10].[C:4]1([H:15])=[C:5]([H:16])[C:6]1([O:7][H:19])[H:18].[H:8][H:17]"
C        1.30880744       0.47139040       1.02942469
C        0.98903813      -0.46434863      -0.00996222
C        2.03114502      -0.68303583      -1.08700530
C       -1.15894976      -0.50574487      -0.67026581
C       -2.04790730      -0.50863748       0.42396886
C       -2.03842316       0.67695087      -0.46922640
O       -1.59672232       1.87083488       0.09624730
H       -0.01495690       0.68447640       2.11731324
H        1.92677574       0.07106228       1.83488483
H        1.79415383       1.38267723       0.67918353
H        0.83541482      -1.42802373       0.49073996
H        2.93851857      -1.18106833      -0.73702985
H        2.32296927       0.26651541      -1.54037102
H        1.65531237      -1.34062832      -1.87393696
H       -1.19933086      -1.02268748      -1.62307086
H       -2.85054737      -1.18208427       0.68835305
H       -1.36123291       0.04774579       1.82587333
H       -2.88013762       0.86651049      -1.12982095
H       -0.65392700       1.97809518      -0.04529940
