14
Frame=0 idx=000283 GeodesicLength=0.0 rxn_smarts="[C:1]([C@@:2]1([H:10])[O:3][C:4]([H:11])([H:12])[C:5]([H:13])=[C:6]1[H:14])([H:7])([H:8])[H:9]>>[C:1]([C:2](=[O:3])[C:6]([C:5](=[C:4]([H:11])[H:12])[H:13])([H:10])[H:14])([H:7])([H:8])[H:9]"
C        1.98383504      -0.36480562       0.23170179
C        0.69328595       0.04774231      -0.48575367
O        0.10529577      -0.85138673      -1.24128774
C       -2.11415996      -0.50508736      -0.32592286
C       -1.53791973       0.46623170       0.46088876
C       -0.21803768       0.84259875       0.35755476
H        2.67747872      -0.77304675      -0.50264088
H        2.46298718       0.46933693       0.75094846
H        1.74915375      -1.14628191       0.95595780
H        0.93865440       0.96256104      -1.13230979
H       -1.84954339      -0.63632794      -1.35855659
H       -2.97252782      -1.04809013       0.06206875
H       -2.09354026       0.84883860       1.31342466
H        0.17503809       1.68771708       0.91392653
14
Frame=1 idx=000283 GeodesicLength=0.08546143835913138 rxn_smarts="[C:1]([C@@:2]1([H:10])[O:3][C:4]([H:11])([H:12])[C:5]([H:13])=[C:6]1[H:14])([H:7])([H:8])[H:9]>>[C:1]([C:2](=[O:3])[C:6]([C:5](=[C:4]([H:11])[H:12])[H:13])([H:10])[H:14])([H:7])([H:8])[H:9]"
C        1.97507119      -0.37140892       0.24144223
C        0.69574450       0.04342929      -0.48947922
O        0.10583220      -0.85628104      -1.24186455
C       -2.09614916      -0.50976679      -0.32928807
C       -1.52873344       0.46834284       0.45896567
C       -0.21549375       0.86542494       0.33021092
H        2.66896197      -0.79784666      -0.48223630
H        2.46026473       0.46456464       0.75194909
H        1.72695399      -1.13781012       0.97744752
H        0.90713188       0.98286115      -1.13934595
H       -1.87529298      -0.59711629      -1.37779833
H       -2.93845096      -1.07244693       0.06617161
H       -2.06643604       0.81523440       1.33786947
H        0.18059588       1.70281948       0.89595591
14
Frame=2 idx=000283 GeodesicLength=0.1710687125195467 rxn_smarts="[C:1]([C@@:2]1([H:10])[O:3][C:4]([H:11])([H:12])[C:5]([H:13])=[C:6]1[H:14])([H:7])([H:8])[H:9]>>[C:1]([C:2](=[O:3])[C:6]([C:5](=[C:4]([H:11])[H:12])[H:13])([H:10])[H:14])([H:7])([H:8])[H:9]"
C        1.96615486      -0.37790193       0.25114482
C        0.69853046       0.04029469      -0.49343570
O        0.10692547      -0.86025735      -1.24269832
C       -2.07807764      -0.51400275      -0.33321984
C       -1.51914395       0.46974771       0.45759414
C       -0.21279031       0.88631361       0.30453007
H        2.66020137      -0.82204626      -0.46164528
H        2.45745798       0.45930734       0.75366021
H        1.70441510      -1.12951047       0.99784876
H        0.87468006       1.00331256      -1.14698440
H       -1.90144121      -0.55989258      -1.39377969
H       -2.90428748      -1.09574476       0.06905588
H       -2.03833675       0.78296307       1.36008035
H        0.18571205       1.71741712       0.87784899
14
Frame=3 idx=000283 GeodesicLength=0.25683654180975035 rxn_smarts="[C:1]([C@@:2]1([H:10])[O:3][C:4]([H:11])([H:12])[C:5]([H:13])=[C:6]1[H:14])([H:7])([H:8])[H:9]>>[C:1]([C:2](=[O:3])[C:6]([C:5](=[C:4]([H:11])[H:12])[H:13])([H:10])[H:14])([H:7])([H:8])[H:9]"
C        1.95712270      -0.38427318       0.26085638
C        0.70170914       0.03817719      -0.49762364
O        0.10859451      -0.86352966      -1.24365763
C       -2.05993520      -0.51785132      -0.33766670
C       -1.50915560       0.47048803       0.45673240
C       -0.20993345       0.90549825       0.28035223
H        2.65122578      -0.84572781      -0.44077813
H        2.45456735       0.45363779       0.75601239
H        1.68158057      -1.12125752       1.01731411
H        0.84125136       1.02373309      -1.15528604
H       -1.92817979      -0.52415826      -1.40677174
H       -2.87009680      -1.11801704       0.07067610
H       -2.00921873       0.75158540       1.38027254
H        0.19046817       1.73169505       0.85956772
14
Frame=4 idx=000283 GeodesicLength=0.34275992729787236 rxn_smarts="[C:1]([C@@:2]1([H:10])[O:3][C:4]([H:11])([H:12])[C:5]([H:13])=[C:6]1[H:14])([H:7])([H:8])[H:9]>>[C:1]([C:2](=[O:3])[C:6]([C:5](=[C:4]([H:11])[H:12])[H:13])([H:10])[H:14])([H:7])([H:8])[H:9]"
C        1.94796922      -0.39054324       0.27061596
C        0.70534307       0.03699398      -0.50208661
O        0.11086910      -0.86617185      -1.24476582
C       -2.04169731      -0.52133845      -0.34261349
C       -1.49877646       0.47067007       0.45626299
C       -0.20691992       0.92323774       0.25746795
H        2.64205422      -0.86891216      -0.41957773
H        2.45154821       0.44754545       0.75906835
H        1.65841027      -1.11306019       1.03590289
H        0.80689031       1.04401987      -1.16428494
H       -1.95569525      -0.48974045      -1.41698837
H       -2.83578085      -1.13940030       0.07113652
H       -1.97917482       0.72094920       1.39872014
H        0.19496022       1.74575033       0.84114215
14
Frame=5 idx=000283 GeodesicLength=0.42871081207138617 rxn_smarts="[C:1]([C@@:2]1([H:10])[O:3][C:4]([H:11])([H:12])[C:5]([H:13])=[C:6]1[H:14])([H:7])([H:8])[H:9]>>[C:1]([C:2](=[O:3])[C:6]([C:5](=[C:4]([H:11])[H:12])[H:13])([H:10])[H:14])([H:7])([H:8])[H:9]"
C        1.93869108      -0.39676802       0.28042014
C        0.70948587       0.03669129      -0.50689070
O        0.11377515      -0.86817599      -1.24615250
C       -2.02329213      -0.52455729      -0.34803199
C       -1.48800731       0.47037308       0.45604250
C       -0.20372018       0.93975801       0.23568732
H        2.63271477      -0.89157952      -0.39814325
H        2.44839756       0.44099124       0.76302015
H        1.63485639      -1.10511950       1.05361391
H        0.77161720       1.06405439      -1.17393058
H       -1.98405642      -0.45634088      -1.42458633
H       -2.80098566      -1.16027931       0.07077357
H       -1.94870897       0.69141291       1.41557107
H        0.19923265       1.75953959       0.82260671
14
Frame=6 idx=000283 GeodesicLength=0.514788779032778 rxn_smarts="[C:1]([C@@:2]1([H:10])[O:3][C:4]([H:11])([H:12])[C:5]([H:13])=[C:6]1[H:14])([H:7])([H:8])[H:9]>>[C:1]([C:2](=[O:3])[C:6]([C:5](=[C:4]([H:11])[H:12])[H:13])([H:10])[H:14])([H:7])([H:8])[H:9]"
C        1.92925268      -0.40293451       0.29030774
C        0.71417363       0.03719572      -0.51202014
O        0.11734052      -0.86958432      -1.24779876
C       -2.00470970      -0.52749557      -0.35393003
C       -1.47681611       0.46961368       0.45605614
C       -0.20036891       0.95524854       0.21482870
H        2.62316162      -0.91382425      -0.37633192
H        2.44503048       0.43399534       0.76778811
H        1.61083837      -1.09726398       1.07051547
H        0.73549523       1.08379948      -1.18422175
H       -2.01347258      -0.42391467      -1.42949210
H       -2.76575827      -1.18056855       0.06943445
H       -1.91753541       0.66254889       1.43088495
H        0.20336846       1.77318420       0.80397915
14
Frame=7 idx=000283 GeodesicLength=0.6009944185399256 rxn_smarts="[C:1]([C@@:2]1([H:10])[O:3][C:4]([H:11])([H:12])[C:5]([H:13])=[C:6]1[H:14])([H:7])([H:8])[H:9]>>[C:1]([C:2](=[O:3])[C:6]([C:5](=[C:4]([H:11])[H:12])[H:13])([H:10])[H:14])([H:7])([H:8])[H:9]"
C        1.91964881      -0.40903970       0.30029012
C        0.71943293       0.03842770      -0.51745148
O        0.12159139      -0.87045608      -1.24968240
C       -1.98594621      -0.53012971      -0.36033796
C       -1.46518712       0.46841376       0.45627059
C       -0.19686774       0.96985190       0.19475533
H        2.61338641      -0.93565739      -0.35414163
H        2.44139950       0.42657932       0.77338518
H        1.58634778      -1.08946685       1.08663042
H        0.69854907       1.10315559      -1.19510551
H       -2.04404659      -0.39234910      -1.43166133
H       -2.73005276      -1.20028782       0.06708716
H       -1.88565787       0.63423539       1.44471112
H        0.20740242       1.78672298       0.78525038
14
Frame=8 idx=000283 GeodesicLength=0.6873323220695646 rxn_smarts="[C:1]([C@@:2]1([H:10])[O:3][C:4]([H:11])([H:12])[C:5]([H:13])=[C:6]1[H:14])([H:7])([H:8])[H:9]>>[C:1]([C:2](=[O:3])[C:6]([C:5](=[C:4]([H:11])[H:12])[H:13])([H:10])[H:14])([H:7])([H:8])[H:9]"
C        1.90985135      -0.41510179       0.31037699
C        0.72528353       0.04033233      -0.52317134
O        0.12654841      -0.87078868      -1.25185462
C       -1.96700181      -0.53241435      -0.36731115
C       -1.45311865       0.46685654       0.45658684
C       -0.19321132       0.98371542       0.17531864
H        2.60337226      -0.95707274      -0.33157623
H        2.43743676       0.41873575       0.77987641
H        1.56135266      -1.08177086       1.10195596
H        0.66086461       1.12206826      -1.20650481
H       -2.07589935      -0.36167746      -1.43107204
H       -2.69373873      -1.21950385       0.06378024
H       -1.85312190       0.60643416       1.45718671
H        0.21138217       1.80018727       0.76640840
14
Frame=9 idx=000283 GeodesicLength=0.7737118314378459 rxn_smarts="[C:1]([C@@:2]1([H:10])[O:3][C:4]([H:11])([H:12])[C:5]([H:13])=[C:6]1[H:14])([H:7])([H:8])[H:9]>>[C:1]([C:2](=[O:3])[C:6]([C:5](=[C:4]([H:11])[H:12])[H:13])([H:10])[H:14])([H:7])([H:8])[H:9]"
C        1.89982588      -0.42115874       0.32057036
C        0.73173167       0.04286252      -0.52920563
O        0.13219948      -0.87053412      -1.25447731
C       -1.94786721      -0.53435514      -0.37489522
C       -1.44063697       0.46504613       0.45683318
C       -0.18940439       0.99697564       0.15632820
H        2.59310978      -0.97803295      -0.30874080
H        2.43311478       0.41047000       0.78746390
H        1.53575340      -1.07437584       1.11650186
H        0.62250520       1.14044672      -1.21829624
H       -2.10908920      -0.33176893      -1.42753351
H       -2.65639109      -1.23845095       0.05966910
H       -1.82015469       0.57938216       1.46838623
H        0.21530338       1.81349351       0.74739588
14
Frame=10 idx=000283 GeodesicLength=0.8602527559845805 rxn_smarts="[C:1]([C@@:2]1([H:10])[O:3][C:4]([H:11])([H:12])[C:5]([H:13])=[C:6]1[H:14])([H:7])([H:8])[H:9]>>[C:1]([C:2](=[O:3])[C:6]([C:5](=[C:4]([H:11])[H:12])[H:13])([H:10])[H:14])([H:7])([H:8])[H:9]"
C        1.88956963      -0.42720284       0.33087375
C        0.73878754       0.04594755      -0.53545666
O        0.13857577      -0.86972274      -1.25747527
C       -1.92856937      -0.53586124      -0.38314550
C       -1.42771948       0.46299453       0.45702461
C       -0.18544178       1.00970945       0.13774096
H        2.58257022      -0.99858208      -0.28557871
H        2.42835773       0.40176730       0.79601746
H        1.50959939      -1.06713938       1.13025339
H        0.58357729       1.15830807      -1.23041060
H       -2.14373574      -0.30285539      -1.42091697
H       -2.61817350      -1.25695725       0.05454948
H       -1.78662848       0.55283409       1.47827109
H        0.21923080       1.82675994       0.72825300
14
Frame=11 idx=000283 GeodesicLength=0.9469556898137601 rxn_smarts="[C:1]([C@@:2]1([H:10])[O:3][C:4]([H:11])([H:12])[C:5]([H:13])=[C:6]1[H:14])([H:7])([H:8])[H:9]>>[C:1]([C:2](=[O:3])[C:6]([C:5](=[C:4]([H:11])[H:12])[H:13])([H:10])[H:14])([H:7])([H:8])[H:9]"
C        1.87908360      -0.43323516       0.34128233
C        0.74644347       0.04950768      -0.54186528
O        0.14568062      -0.86838170      -1.26084473
C       -1.90914664      -0.53686263      -0.39212969
C       -1.41437677       0.46075082       0.45709535
C       -0.18132360       1.02198644       0.11946770
H        2.57174132      -1.01872287      -0.26213128
H        2.42313216       0.39265958       0.80553084
H        1.48290496      -1.06006566       1.14321474
H        0.54416283       1.17559678      -1.24272910
H       -2.17986178      -0.27499683      -1.41106561
H       -2.57902838      -1.27498992       0.04834802
H       -1.75258235       0.52676291       1.48686767
H        0.22317054       1.83999055       0.70895904
14
Frame=12 idx=000283 GeodesicLength=1.0338245342565395 rxn_smarts="[C:1]([C@@:2]1([H:10])[O:3][C:4]([H:11])([H:12])[C:5]([H:13])=[C:6]1[H:14])([H:7])([H:8])[H:9]>>[C:1]([C:2](=[O:3])[C:6]([C:5](=[C:4]([H:11])[H:12])[H:13])([H:10])[H:14])([H:7])([H:8])[H:9]"
C        1.86834752      -0.43927271       0.35179147
C        0.75468599       0.05348450      -0.54837427
O        0.15350291      -0.86650019      -1.26461874
C       -1.88964736      -0.53726554      -0.40193603
C       -1.40062864       0.45839550       0.45695959
C       -0.17704250       1.03389131       0.10141610
H        2.56059499      -1.03845589      -0.23844021
H        2.41738297       0.38315188       0.81602283
H        1.45567574      -1.05320092       1.15538246
H        0.50438766       1.19230595      -1.25514011
H       -2.21748612      -0.24835407      -1.39783261
H       -2.53885034      -1.29255147       0.04104912
H       -1.71807414       0.50117428       1.49422224
H        0.22715132       1.85319737       0.68949814
14
Frame=13 idx=000283 GeodesicLength=1.1208763361254812 rxn_smarts="[C:1]([C@@:2]1([H:10])[O:3][C:4]([H:11])([H:12])[C:5]([H:13])=[C:6]1[H:14])([H:7])([H:8])[H:9]>>[C:1]([C:2](=[O:3])[C:6]([C:5](=[C:4]([H:11])[H:12])[H:13])([H:10])[H:14])([H:7])([H:8])[H:9]"
C        1.85728716      -0.44537348       0.36240125
C        0.76350603       0.05786784      -0.55497919
O        0.16200510      -0.86394868      -1.26898853
C       -1.87009364      -0.53702560      -0.41262765
C       -1.38653013       0.45607074       0.45643208
C       -0.17259846       1.04552685       0.08341929
H        2.54907905      -1.05777781      -0.21459148
H        2.41104465       0.37321302       0.82767642
H        1.42775954      -1.04675547       1.16673505
H        0.46438610       1.20850096      -1.26750334
H       -2.25659895      -0.22312738      -1.38083875
H       -2.49719924      -1.30976541       0.03274792
H       -1.68324479       0.47629176       1.50030302
H        0.23119759       1.86630268       0.66981390
14
Frame=14 idx=000283 GeodesicLength=1.2081712139795524 rxn_smarts="[C:1]([C@@:2]1([H:10])[O:3][C:4]([H:11])([H:12])[C:5]([H:13])=[C:6]1[H:14])([H:7])([H:8])[H:9]>>[C:1]([C:2](=[O:3])[C:6]([C:5](=[C:4]([H:11])[H:12])[H:13])([H:10])[H:14])([H:7])([H:8])[H:9]"
C        1.84593562      -0.45152366       0.37309723
C        0.77288842       0.06256064      -0.56155647
O        0.17119759      -0.86080951      -1.27381906
C       -1.85056021      -0.53600834      -0.42428018
C       -1.37206684       0.45377654       0.45555288
C       -0.16797406       1.05692747       0.06550252
H        2.53717636      -1.07674784      -0.19058689
H        2.40408756       0.36285461       0.84030491
H        1.39927109      -1.04056828       1.17727206
H        0.42427245       1.22420750      -1.27975963
H       -2.29716935      -0.19963111      -1.35994583
H       -2.45431903      -1.32640391       0.02317530
H       -1.64807498       0.45195618       1.50506759
H        0.23533539       1.87940971       0.64997556
14
Frame=15 idx=000283 GeodesicLength=1.2957398183390665 rxn_smarts="[C:1]([C@@:2]1([H:10])[O:3][C:4]([H:11])([H:12])[C:5]([H:13])=[C:6]1[H:14])([H:7])([H:8])[H:9]>>[C:1]([C:2](=[O:3])[C:6]([C:5](=[C:4]([H:11])[H:12])[H:13])([H:10])[H:14])([H:7])([H:8])[H:9]"
C        1.83426498      -0.45774664       0.38386846
C        0.78281126       0.06750895      -0.56804958
O        0.18104946      -0.85705726      -1.27913714
C       -1.83111476      -0.53412245      -0.43695440
C       -1.35727522       0.45159149       0.45423774
C       -0.16316827       1.06814588       0.04759038
H        2.52483278      -1.09540983      -0.16647838
H        2.39647630       0.35207939       0.85390353
H        1.37017643      -1.03467133       1.18699975
H        0.38414375       1.23947914      -1.29181444
H       -2.33905131      -0.17811040      -1.33486831
H       -2.41007720      -1.34240608       0.01224520
H       -1.61264086       0.42822247       1.50848714
H        0.23957265       1.89249665       0.62997005
14
Frame=16 idx=000283 GeodesicLength=1.3836284244677524 rxn_smarts="[C:1]([C@@:2]1([H:10])[O:3][C:4]([H:11])([H:12])[C:5]([H:13])=[C:6]1[H:14])([H:7])([H:8])[H:9]>>[C:1]([C:2](=[O:3])[C:6]([C:5](=[C:4]([H:11])[H:12])[H:13])([H:10])[H:14])([H:7])([H:8])[H:9]"
C        1.82221630      -0.46408854       0.39470768
C        0.79324569       0.07269271      -0.57441980
O        0.19150545      -0.85261980      -1.28500663
C       -1.81183515      -0.53124958      -0.45070227
C       -1.34219695       0.44963329       0.45239933
C       -0.15817038       1.07926433       0.02960651
H        2.51196487      -1.11382640      -0.14230690
H        2.38815304       0.34084080       0.86849157
H        1.34039599      -1.02912812       1.19590855
H        0.34409904       1.25443880      -1.30359399
H       -2.38202942      -0.15896822      -1.30534295
H       -2.36429203      -1.35772577      -0.00008208
H       -1.57700377       0.40516532       1.51054873
H        0.24394730       1.90557118       0.60979224
