15
Frame=0 idx=011952 GeodesicLength=0.0 rxn_smarts="[C:1]([C@@:2]([O:3][H:12])([C:4]([O:5][C:6](=[O:7])[H:15])([H:13])[H:14])[H:11])([H:8])([H:9])[H:10]>>[C:1]([C:2](=[O:3])[H:11])([H:8])([H:9])[H:10].[C:4](=[O:5])([H:13])[H:14].[C:6](=[O:7])([H:12])[H:15]"
C       -1.66230711       0.88370947      -0.09982963
C       -0.21904257       1.08125452      -0.47045212
O        0.63420495       1.44472376       0.37145124
C        0.47150889      -1.02101422      -0.94606717
O        1.55240594      -0.98674534      -0.27360770
C        1.31252256      -0.85484861       1.20958453
O        0.22599923      -1.25591921       1.62670510
H       -1.73767059       0.43524740       0.88845853
H       -2.18451047       0.26122898      -0.82756719
H       -2.15253558       1.86206560      -0.08771092
H        0.01608190       1.27431250      -1.52632186
H        1.27710508       0.39221936       0.98678465
H        0.58410954      -0.93425305      -2.01974770
H       -0.40510613      -1.46825868      -0.48299254
H        2.28723436      -1.11372244       1.65131275
15
Frame=1 idx=011952 GeodesicLength=0.10073952101607829 rxn_smarts="[C:1]([C@@:2]([O:3][H:12])([C:4]([O:5][C:6](=[O:7])[H:15])([H:13])[H:14])[H:11])([H:8])([H:9])[H:10]>>[C:1]([C:2](=[O:3])[H:11])([H:8])([H:9])[H:10].[C:4](=[O:5])([H:13])[H:14].[C:6](=[O:7])([H:12])[H:15]"
C       -1.67144806       0.89151279      -0.10968269
C       -0.22833241       1.08153524      -0.48458155
O        0.62863791       1.44236625       0.35799423
C        0.47294613      -1.01798018      -0.94279332
O        1.56128652      -1.00154926      -0.27591619
C        1.33038951      -0.86551477       1.22359955
O        0.24864900      -1.26424912       1.65048698
H       -1.74564516       0.42084545       0.86857082
H       -2.20320162       0.28922455      -0.84766185
H       -2.15213170       1.87405094      -0.07294239
H       -0.00156469       1.29831250      -1.53806181
H        1.26952479       0.39679765       1.00896837
H        0.58224271      -0.94445595      -2.01866276
H       -0.39922277      -1.47339426      -0.47716199
H        2.30786984      -1.12750182       1.65784459
15
Frame=2 idx=011952 GeodesicLength=0.20122621896348736 rxn_smarts="[C:1]([C@@:2]([O:3][H:12])([C:4]([O:5][C:6](=[O:7])[H:15])([H:13])[H:14])[H:11])([H:8])([H:9])[H:10]>>[C:1]([C:2](=[O:3])[H:11])([H:8])([H:9])[H:10].[C:4](=[O:5])([H:13])[H:14].[C:6](=[O:7])([H:12])[H:15]"
C       -1.68056082       0.89936433      -0.11973582
C       -0.23768447       1.08186328      -0.49918474
O        0.62302452       1.43951255       0.34433246
C        0.47444868      -1.01501922      -0.93939423
O        1.57004369      -1.01703430      -0.27831764
C        1.34863333      -0.87590082       1.23773252
O        0.27194414      -1.27262897       1.67454526
H       -1.75379197       0.40613949       0.84769948
H       -2.22201943       0.31823413      -0.86778715
H       -2.15130421       1.88551537      -0.05769010
H       -0.01927766       1.32296606      -1.54954329
H        1.26089413       0.40149097       1.03170638
H        0.58004362      -0.95499237      -2.01734675
H       -0.39329984      -1.47848187      -0.47129516
H        2.32890628      -1.14102862       1.66427877
15
Frame=3 idx=011952 GeodesicLength=0.3014678571871706 rxn_smarts="[C:1]([C@@:2]([O:3][H:12])([C:4]([O:5][C:6](=[O:7])[H:15])([H:13])[H:14])[H:11])([H:8])([H:9])[H:10]>>[C:1]([C:2](=[O:3])[H:11])([H:8])([H:9])[H:10].[C:4](=[O:5])([H:13])[H:14].[C:6](=[O:7])([H:12])[H:15]"
C       -1.68964147       0.90725672      -0.13000373
C       -0.24708894       1.08222350      -0.51425919
O        0.61734729       1.43613318       0.33050020
C        0.47601169      -1.01215106      -0.93587067
O        1.57864772      -1.03327038      -0.28081956
C        1.36727370      -0.88596221       1.25197418
O        0.29592753      -1.28104499       1.69888473
H       -1.76215653       0.39115905       0.82579143
H       -2.24093760       0.34827754      -0.88791951
H       -2.15002492       1.89640587      -0.04197906
H       -0.03702160       1.34831854      -1.56069516
H        1.25116502       0.40629062       1.05498226
H        0.57748599      -0.96586280      -2.01578835
H       -0.38735538      -1.48351877      -0.46538483
H        2.35036751      -1.15425482       1.67058727
15
Frame=4 idx=011952 GeodesicLength=0.4014734832327247 rxn_smarts="[C:1]([C@@:2]([O:3][H:12])([C:4]([O:5][C:6](=[O:7])[H:15])([H:13])[H:14])[H:11])([H:8])([H:9])[H:10]>>[C:1]([C:2](=[O:3])[H:11])([H:8])([H:9])[H:10].[C:4](=[O:5])([H:13])[H:14].[C:6](=[O:7])([H:12])[H:15]"
C       -1.69868511       0.91518534      -0.14050502
C       -0.25653329       1.08260000      -0.52979815
O        0.61158717       1.43220007       0.31654005
C        0.47762598      -1.00939892      -0.93222110
O        1.58706233      -1.05033388      -0.28343173
C        1.38633669      -0.89565142       1.26631247
O        0.32065255      -1.28947559       1.72351347
H       -1.77079224       0.37593043       0.80277922
H       -2.25992077       0.37938314      -0.90804241
H       -2.14827684       1.90665865      -0.02584029
H       -0.05474842       1.37441831      -1.57143111
H        1.24028878       0.41118295       1.07878288
H        0.57453228      -0.97707133      -2.01397461
H       -0.38141351      -1.48850088      -0.45941606
H        2.37228440      -1.16712686       1.67673241
15
Frame=5 idx=011952 GeodesicLength=0.5012704548117272 rxn_smarts="[C:1]([C@@:2]([O:3][H:12])([C:4]([O:5][C:6](=[O:7])[H:15])([H:13])[H:14])[H:11])([H:8])([H:9])[H:10]>>[C:1]([C:2](=[O:3])[H:11])([H:8])([H:9])[H:10].[C:4](=[O:5])([H:13])[H:14].[C:6](=[O:7])([H:12])[H:15]"
C       -1.70768870       0.92314533      -0.15126281
C       -0.26600424       1.08297655      -0.54579611
O        0.60571949       1.42768633       0.30249771
C        0.47928272      -1.00678750      -0.92844319
O        1.59524774      -1.06830141      -0.28616240
C        1.40585176      -0.90492410       1.28073517
O        0.34617095      -1.29788818       1.74844147
H       -1.77975731       0.36047679       0.77859891
H       -2.27893661       0.41157488      -0.92814614
H       -2.14604114       1.91620944      -0.00930544
H       -0.07240690       1.40131560      -1.58165865
H        1.22822477       0.41616060       1.10309084
H        0.57114628      -0.98862104      -2.01189072
H       -0.37549959      -1.49342367      -0.45337221
H        2.39469076      -1.17959962       1.68267357
15
Frame=6 idx=011952 GeodesicLength=0.6008541913643545 rxn_smarts="[C:1]([C@@:2]([O:3][H:12])([C:4]([O:5][C:6](=[O:7])[H:15])([H:13])[H:14])[H:11])([H:8])([H:9])[H:10]>>[C:1]([C:2](=[O:3])[H:11])([H:8])([H:9])[H:10].[C:4](=[O:5])([H:13])[H:14].[C:6](=[O:7])([H:12])[H:15]"
C       -1.71664895       0.93112853      -0.16230976
C       -0.27548595       1.08333979      -0.56224312
O        0.59971198       1.42256498       0.28843837
C        0.48096745      -1.00434404      -0.92452828
O        1.60315512      -1.08725262      -0.28901852
C        1.42585460      -0.91372726       1.29522402
O        0.37255447      -1.30625001       1.77368267
H       -1.78911740       0.34483382       0.75316620
H       -2.29793599       0.44489218      -0.94822114
H       -2.14331649       1.92498140       0.00757371
H       -0.08993747       1.42905748      -1.59126283
H        1.21493381       0.42119183       1.12789002
H        0.56728008      -1.00051839      -2.00951809
H       -0.36964474      -1.49828043      -0.44722659
H        2.41762947      -1.19161725       1.68835334
15
Frame=7 idx=011952 GeodesicLength=0.7002422381538685 rxn_smarts="[C:1]([C@@:2]([O:3][H:12])([C:4]([O:5][C:6](=[O:7])[H:15])([H:13])[H:14])[H:11])([H:8])([H:9])[H:10]>>[C:1]([C:2](=[O:3])[H:11])([H:8])([H:9])[H:10].[C:4](=[O:5])([H:13])[H:14].[C:6](=[O:7])([H:12])[H:15]"
C       -1.72556385       0.93912594      -0.17367881
C       -0.28496199       1.08367720      -0.57912879
O        0.59352934       1.41681632       0.27442447
C        0.48266692      -1.00209428      -0.92046702
O        1.61073154      -1.10726492      -0.29200222
C        1.44638679      -0.92201457       1.30975837
O        0.39987035      -1.31451170       1.79924943
H       -1.79893899       0.32902955       0.72639949
H       -2.31687264       0.47936716      -0.96826011
H       -2.14011248       1.93289981       0.02473573
H       -0.10727384       1.45768893      -1.60012196
H        1.20038871       0.42625301       1.15316713
H        0.56288534      -1.01276831      -2.00683416
H       -0.36388154      -1.50306131      -0.44095173
H        2.44114634      -1.20314284       1.69371020
15
Frame=8 idx=011952 GeodesicLength=0.7994367937138483 rxn_smarts="[C:1]([C@@:2]([O:3][H:12])([C:4]([O:5][C:6](=[O:7])[H:15])([H:13])[H:14])[H:11])([H:8])([H:9])[H:10]>>[C:1]([C:2](=[O:3])[H:11])([H:8])([H:9])[H:10].[C:4](=[O:5])([H:13])[H:14].[C:6](=[O:7])([H:12])[H:15]"
C       -1.73443225       0.94712762      -0.18541452
C       -0.29441335       1.08398130      -0.59644192
O        0.58713122       1.41041992       0.26053214
C        0.48435988      -1.00006645      -0.91624414
O        1.61791058      -1.12841777      -0.29511142
C        1.46749446      -0.92973471       1.32431367
O        0.42820178      -1.32261430       1.82515924
H       -1.80929410       0.31309629       0.69818817
H       -2.33568016       0.51504624      -0.98826616
H       -2.13644957       1.93986629       0.04212959
H       -0.12433929       1.48724704      -1.60809821
H        1.18456725       0.43130941       1.17890503
H        0.55790372      -1.02537733      -2.00381133
H       -0.35825091      -1.50775252      -0.43450962
H        2.46529075      -1.21413102       1.69866949
15
Frame=9 idx=011952 GeodesicLength=0.8981463665693826 rxn_smarts="[C:1]([C@@:2]([O:3][H:12])([C:4]([O:5][C:6](=[O:7])[H:15])([H:13])[H:14])[H:11])([H:8])([H:9])[H:10]>>[C:1]([C:2](=[O:3])[H:11])([H:8])([H:9])[H:10].[C:4](=[O:5])([H:13])[H:14].[C:6](=[O:7])([H:12])[H:15]"
C       -1.74326785       0.95515127      -0.19761327
C       -0.30379764       1.08425642      -0.61410290
O        0.58040341       1.40331743       0.24694064
C        0.48599195      -0.99830575      -0.91181501
O        1.62454727      -1.15086196      -0.29825858
C        1.48925649      -0.93679664       1.33880042
O        0.45779607      -1.33063292       1.85143306
H       -1.82017798       0.29710163       0.66842977
H       -2.35430264       0.55200186      -1.00830048
H       -2.13241156       1.94590476       0.05947633
H       -0.14105913       1.51775638      -1.61495561
H        1.16738166       0.43615236       1.20516496
H        0.55227558      -1.03834789      -2.00039301
H       -0.35284373      -1.51232477      -0.42782855
H        2.49020812      -1.22437218       1.70302223
15
Frame=10 idx=011952 GeodesicLength=0.9966522361260393 rxn_smarts="[C:1]([C@@:2]([O:3][H:12])([C:4]([O:5][C:6](=[O:7])[H:15])([H:13])[H:14])[H:11])([H:8])([H:9])[H:10]>>[C:1]([C:2](=[O:3])[H:11])([H:8])([H:9])[H:10].[C:4](=[O:5])([H:13])[H:14].[C:6](=[O:7])([H:12])[H:15]"
C       -1.75205851       0.96316768      -0.21029140
C       -0.31310881       1.08450220      -0.63215223
O        0.57334681       1.39552750       0.23365140
C        0.48756305      -0.99682530      -0.90717813
O        1.63061479      -1.17459634      -0.30149985
C        1.51170623      -0.94319150       1.35323527
O        0.48862710      -1.33837568       1.87809398
H       -1.83174325       0.28103453       0.63697247
H       -2.37264202       0.59025613      -1.02834248
H       -2.12798977       1.95082388       0.07690252
H       -0.15732897       1.54923274      -1.62060086
H        1.14886948       0.44086314       1.23188234
H        0.54592744      -1.05169843      -1.99656488
H       -0.34767518      -1.51676497      -0.42087760
H        2.51589161      -1.23395558       1.70676946
15
Frame=11 idx=011952 GeodesicLength=1.094971437370257 rxn_smarts="[C:1]([C@@:2]([O:3][H:12])([C:4]([O:5][C:6](=[O:7])[H:15])([H:13])[H:14])[H:11])([H:8])([H:9])[H:10]>>[C:1]([C:2](=[O:3])[H:11])([H:8])([H:9])[H:10].[C:4](=[O:5])([H:13])[H:14].[C:6](=[O:7])([H:12])[H:15]"
C       -1.76080811       0.97117597      -0.22351227
C       -0.32232430       1.08472930      -0.65056884
O        0.56590341       1.38703605       0.22075651
C        0.48904190      -0.99564880      -0.90230344
O        1.63601745      -1.19968607      -0.30481510
C        1.53490412      -0.94887444       1.36757976
O        0.52080633      -1.34577177       1.90516279
H       -1.84406371       0.26491110       0.60369134
H       -2.39060910       0.62983361      -1.04843808
H       -2.12322810       1.95454037       0.09434308
H       -0.17304721       1.58168582      -1.62486668
H        1.12902022       0.44538011       1.25905397
H        0.53878781      -1.06543634      -1.99228216
H       -0.34280794      -1.52104368      -0.41359864
H        2.54240723      -1.24283125       1.70979775
15
Frame=12 idx=011952 GeodesicLength=1.193121011421174 rxn_smarts="[C:1]([C@@:2]([O:3][H:12])([C:4]([O:5][C:6](=[O:7])[H:15])([H:13])[H:14])[H:11])([H:8])([H:9])[H:10]>>[C:1]([C:2](=[O:3])[H:11])([H:8])([H:9])[H:10].[C:4](=[O:5])([H:13])[H:14].[C:6](=[O:7])([H:12])[H:15]"
C       -1.76952286       0.97916990      -0.23734567
C       -0.33141569       1.08495918      -0.66932485
O        0.55800830       1.37783166       0.20835653
C        0.49038965      -0.99479855      -0.89715804
O        1.64064178      -1.22619635      -0.30817524
C        1.55891812      -0.95379890       1.38178948
O        0.55446675      -1.35274316       1.93266505
H       -1.85721031       0.24875731       0.56842099
H       -2.40809267       0.67077531      -1.06863729
H       -2.11819114       1.95695233       0.11172748
H       -0.18810664       1.61510215      -1.62757024
H        1.10782155       0.44962501       1.28669112
H        0.53077003      -1.07956729      -1.98749420
H       -0.33831197      -1.52512335      -0.40592401
H        2.56983512      -1.25094528       1.71197890
15
Frame=13 idx=011952 GeodesicLength=1.2911148040838476 rxn_smarts="[C:1]([C@@:2]([O:3][H:12])([C:4]([O:5][C:6](=[O:7])[H:15])([H:13])[H:14])[H:11])([H:8])([H:9])[H:10]>>[C:1]([C:2](=[O:3])[H:11])([H:8])([H:9])[H:10].[C:4](=[O:5])([H:13])[H:14].[C:6](=[O:7])([H:12])[H:15]"
C       -1.77821242       0.98714725      -0.25186709
C       -0.34035202       1.08522011      -0.68838438
O        0.54959222       1.36790382       0.19656547
C        0.49156679      -0.99429212      -0.89170049
O        1.64436755      -1.25417994      -0.31154245
C        1.58382052      -0.95792311       1.39581106
O        0.58974830      -1.35921311       1.96061872
H       -1.87124592       0.23260127       0.53101810
H       -2.42498565       0.71311266      -1.08900017
H       -2.11296471       1.95796355       0.12895842
H       -0.20238543       1.64944551      -1.62853089
H        1.08526992       0.45351179       1.31480988
H        0.52179078      -1.09408838      -1.98214027
H       -0.33425875      -1.52895927      -0.39778003
H        2.59824882      -1.25825003       1.71316411
15
Frame=14 idx=011952 GeodesicLength=1.388953630080445 rxn_smarts="[C:1]([C@@:2]([O:3][H:12])([C:4]([O:5][C:6](=[O:7])[H:15])([H:13])[H:14])[H:11])([H:8])([H:9])[H:10]>>[C:1]([C:2](=[O:3])[H:11])([H:8])([H:9])[H:10].[C:4](=[O:5])([H:13])[H:14].[C:6](=[O:7])([H:12])[H:15]"
C       -1.78687791       0.99510197      -0.26715554
C       -0.34909168       1.08555602      -0.70770375
O        0.54058093       1.35724857       0.18550917
C        0.49252748      -0.99414055      -0.88588532
O        1.64705581      -1.28368651      -0.31486015
C        1.60969166      -0.96120076       1.40958505
O        0.62680765      -1.36508289       1.98903961
H       -1.88623456       0.21647352       0.49128196
H       -2.44115661       0.75688644      -1.10957256
H       -2.10766420       1.95746173       0.14593095
H       -0.21576636       1.68464188      -1.62755877
H        1.06137358       0.45692678       1.34344230
H        0.51175449      -1.10899113      -1.97615765
H       -0.33073261      -1.53249246      -0.38908703
H        2.62773233      -1.26470259       1.71319174
15
Frame=15 idx=011952 GeodesicLength=1.4866399105252632 rxn_smarts="[C:1]([C@@:2]([O:3][H:12])([C:4]([O:5][C:6](=[O:7])[H:15])([H:13])[H:14])[H:11])([H:8])([H:9])[H:10]>>[C:1]([C:2](=[O:3])[H:11])([H:8])([H:9])[H:10].[C:4](=[O:5])([H:13])[H:14].[C:6](=[O:7])([H:12])[H:15]"
C       -1.79552421       1.00303528      -0.28330396
C       -0.35758804       1.08601867      -0.72723119
O        0.53089615       1.34586378       0.17532158
C        0.49322513      -0.99435201      -0.87966135
O        1.64855633      -1.31475467      -0.31805750
C        1.63661307      -0.96358336       1.42304293
O        0.66581239      -1.37024349       2.01793580
H       -1.90222062       0.20040850       0.44899823
H       -2.45648559       0.80214018      -1.13040286
H       -2.10241768       1.95531914       0.16254702
H       -0.22812105       1.72058923      -1.62447722
H        1.03614315       0.45974083       1.37263480
H        0.50056835      -1.12426043      -1.96947331
H       -0.32781975      -1.53565640      -0.37975785
H        2.65836237      -1.27026524       1.71188489
15
Frame=16 idx=011952 GeodesicLength=1.584177274856248 rxn_smarts="[C:1]([C@@:2]([O:3][H:12])([C:4]([O:5][C:6](=[O:7])[H:15])([H:13])[H:14])[H:11])([H:8])([H:9])[H:10]>>[C:1]([C:2](=[O:3])[H:11])([H:8])([H:9])[H:10].[C:4](=[O:5])([H:13])[H:14].[C:6](=[O:7])([H:12])[H:15]"
C       -1.80415599       1.01094396      -0.30040370
C       -0.36578523       1.08666889      -0.74690188
O        0.52045287       1.33375079       0.16614677
C        0.49361106      -0.99493045      -0.87297449
O        1.64870987      -1.34740841      -0.32104833
C        1.66467140      -0.96502362       1.43611179
O        0.70693455      -1.37457513       2.04730876
H       -1.91923360       0.18445488       0.40394802
H       -2.47084604       0.84891878      -1.15152501
H       -2.09739195       1.95140560       0.17866980
H       -0.23932416       1.75715432      -1.61911336
H        1.00961280       0.46180240       1.40244487
H        0.48814323      -1.13986905      -1.96201560
H       -0.32561052      -1.53837919      -0.36970395
H        2.69021172      -1.27491375       1.70905631
