13
Frame=0 idx=006386 GeodesicLength=0.0 rxn_smarts="[C:1]1([H:8])([H:9])[C@:2]2([H:10])[O:3][C@@:4]1([H:11])[C@:5]1([H:12])[O:6][C@:7]21[H:13]>>[C:1]1([H:8])([H:9])[C:2]([H:10])=[C:7]([H:13])[O:6][C@@:5]2([H:12])[O:3][C@@:4]12[H:11]"
C       -0.82088439       0.20980050       0.93084194
C       -0.28266003      -1.09046622       0.37866634
O       -1.19752867       0.48218449      -1.34284061
C       -0.51671241       1.03323164      -0.32404814
C        0.90911079       0.61739397      -0.63613538
O        1.75290027       0.11954854       0.28841733
C        1.00791176      -1.06178627      -0.02862722
H       -1.89375544       0.17746002       1.09140212
H       -0.30148636       0.48826419       1.85506701
H       -0.88555877      -1.97643221       0.22764272
H       -0.58224475       2.13274194      -0.19520193
H        1.26640720       0.68570115      -1.66361673
H        1.54450077      -1.81764177      -0.58156741
13
Frame=1 idx=006386 GeodesicLength=0.07350967161443614 rxn_smarts="[C:1]1([H:8])([H:9])[C@:2]2([H:10])[O:3][C@@:4]1([H:11])[C@:5]1([H:12])[O:6][C@:7]21[H:13]>>[C:1]1([H:8])([H:9])[C:2]([H:10])=[C:7]([H:13])[O:6][C@@:5]2([H:12])[O:3][C@@:4]12[H:11]"
C       -0.82246305       0.21005807       0.93551380
C       -0.29388979      -1.08826979       0.36980445
O       -1.16615144       0.45682301      -1.34090156
C       -0.51232096       1.03742818      -0.31370111
C        0.90586372       0.61907124      -0.64569009
O        1.75400482       0.11253016       0.27459398
C        1.00165496      -1.06193309      -0.03655898
H       -1.89626002       0.18211519       1.09306049
H       -0.30229125       0.48447544       1.85989706
H       -0.89033876      -1.98277524       0.24719370
H       -0.59328295       2.13562471      -0.19996406
H        1.27881470       0.72134167      -1.66397429
H        1.53666001      -1.82648953      -0.57927340
13
Frame=2 idx=006386 GeodesicLength=0.14695098415528435 rxn_smarts="[C:1]1([H:8])([H:9])[C@:2]2([H:10])[O:3][C@@:4]1([H:11])[C@:5]1([H:12])[O:6][C@:7]21[H:13]>>[C:1]1([H:8])([H:9])[C:2]([H:10])=[C:7]([H:13])[O:6][C@@:5]2([H:12])[O:3][C@@:4]12[H:11]"
C       -0.82392610       0.21014338       0.93985189
C       -0.30506956      -1.08621702       0.36090582
O       -1.13571253       0.43295884      -1.33829829
C       -0.50773960       1.04130884      -0.30374821
C        0.90258482       0.62040556      -0.65571616
O        1.75509893       0.10555308       0.26041433
C        0.99557019      -1.06219369      -0.04423156
H       -1.89859654       0.18671947       1.09447337
H       -0.30311153       0.48062308       1.86441858
H       -0.89463439      -1.98852218       0.26633211
H       -0.60418092       2.13781049      -0.20486676
H        1.29058828       0.75702574      -1.66355526
H        1.52912895      -1.83561559      -0.57597986
13
Frame=3 idx=006386 GeodesicLength=0.2203697741614548 rxn_smarts="[C:1]1([H:8])([H:9])[C@:2]2([H:10])[O:3][C@@:4]1([H:11])[C@:5]1([H:12])[O:6][C@:7]21[H:13]>>[C:1]1([H:8])([H:9])[C:2]([H:10])=[C:7]([H:13])[O:6][C@@:5]2([H:12])[O:3][C@@:4]12[H:11]"
C       -0.82528376       0.21007323       0.94388933
C       -0.31621416      -1.08429414       0.35197044
O       -1.10618028       0.41046877      -1.33512541
C       -0.50292671       1.04490556      -0.29414462
C        0.89931096       0.62143059      -0.66621839
O        1.75619599       0.09861804       0.24586032
C        0.98964733      -1.06255669      -0.05168168
H       -1.90078232       0.19129361       1.09568279
H       -0.30396201       0.47671653       1.86866848
H       -0.89847090      -1.99370241       0.28502574
H       -0.61492771       2.13932789      -0.20987856
H        1.30169535       0.79271626      -1.66234611
H        1.52189823      -1.84499723      -0.57170232
13
Frame=4 idx=006386 GeodesicLength=0.29374099470960796 rxn_smarts="[C:1]1([H:8])([H:9])[C@:2]2([H:10])[O:3][C@@:4]1([H:11])[C@:5]1([H:12])[O:6][C@:7]21[H:13]>>[C:1]1([H:8])([H:9])[C:2]([H:10])=[C:7]([H:13])[O:6][C@@:5]2([H:12])[O:3][C@@:4]12[H:11]"
C       -0.82652889       0.20987218       0.94765259
C       -0.32731050      -1.08250195       0.34300902
O       -1.07759476       0.38922273      -1.33145613
C       -0.49787506       1.04825057      -0.28484867
C        0.89605017       0.62217037      -0.67718126
O        1.75734242       0.09172126       0.23093473
C        0.98391040      -1.06303088      -0.05892726
H       -1.90282865       0.19586409       1.09671386
H       -0.30481053       0.47278465       1.87267260
H       -0.90192129      -1.99832008       0.30318555
H       -0.62555180       2.14022678      -0.21498830
H        1.31213612       0.82837695      -1.66031043
H        1.51498238      -1.85463669      -0.56645630
13
Frame=5 idx=006386 GeodesicLength=0.3670507480990809 rxn_smarts="[C:1]1([H:8])([H:9])[C@:2]2([H:10])[O:3][C@@:4]1([H:11])[C@:5]1([H:12])[O:6][C@:7]21[H:13]>>[C:1]1([H:8])([H:9])[C:2]([H:10])=[C:7]([H:13])[O:6][C@@:5]2([H:12])[O:3][C@@:4]12[H:11]"
C       -0.82764361       0.20954930       0.95116107
C       -0.33834754      -1.08082003       0.33403222
O       -1.04994478       0.36912814      -1.32735709
C       -0.49255870       1.05136542      -0.27582557
C        0.89279775       0.62265342      -0.68859449
O        1.75853564       0.08486244       0.21564573
C        0.97835488      -1.06359782      -0.06597582
H       -1.90470998       0.20044054       1.09757995
H       -0.30563542       0.46882030       1.87645093
H       -0.90501959      -2.00235819       0.32072520
H       -0.63605558       2.14051698      -0.22018401
H        1.32186280       0.86392788      -1.65742773
H        1.50836413      -1.86448836      -0.56023040
13
Frame=6 idx=006386 GeodesicLength=0.4402979689148963 rxn_smarts="[C:1]1([H:8])([H:9])[C@:2]2([H:10])[O:3][C@@:4]1([H:11])[C@:5]1([H:12])[O:6][C@:7]21[H:13]>>[C:1]1([H:8])([H:9])[C:2]([H:10])=[C:7]([H:13])[O:6][C@@:5]2([H:12])[O:3][C@@:4]12[H:11]"
C       -0.82861916       0.20911271       0.95443676
C       -0.34930639      -1.07921774       0.32504780
O       -1.02321296       0.35006506      -1.32288434
C       -0.48695991       1.05426293      -0.26704442
C        0.88954282       0.62291465      -0.70043201
O        1.75975713       0.07805772       0.20001270
C        0.97297506      -1.06421973      -0.07283682
H       -1.90640822       0.20501836       1.09829338
H       -0.30643941       0.46482559       1.88003467
H       -0.90781074      -2.00581359       0.33761056
H       -0.64642117       2.14020114      -0.22544690
H        1.33090258       0.89923998      -1.65369174
H        1.50200037      -1.87444708      -0.55309964
13
Frame=7 idx=006386 GeodesicLength=0.5135004043950323 rxn_smarts="[C:1]1([H:8])([H:9])[C@:2]2([H:10])[O:3][C@@:4]1([H:11])[C@:5]1([H:12])[O:6][C@:7]21[H:13]>>[C:1]1([H:8])([H:9])[C:2]([H:10])=[C:7]([H:13])[O:6][C@@:5]2([H:12])[O:3][C@@:4]12[H:11]"
C       -0.82945476       0.20858649       0.95749914
C       -0.36019430      -1.07769001       0.31606363
O       -0.99737073       0.33196128      -1.31809525
C       -0.48106113       1.05697206      -0.25847064
C        0.88629980       0.62297657      -0.71268741
O        1.76103431       0.07128294       0.18401648
C        0.96777453      -1.06490690      -0.07954792
H       -1.90793298       0.20963594       1.09887360
H       -0.30720767       0.46081647       1.88343580
H       -0.91031137      -2.00870731       0.35377668
H       -0.65668168       2.13930232      -0.23075323
H        1.33919778       0.93431104      -1.64909192
H        1.49590820      -1.88454090      -0.54501896
13
Frame=8 idx=006386 GeodesicLength=0.5866578371245865 rxn_smarts="[C:1]1([H:8])([H:9])[C@:2]2([H:10])[O:3][C@@:4]1([H:11])[C@:5]1([H:12])[O:6][C@:7]21[H:13]>>[C:1]1([H:8])([H:9])[C:2]([H:10])=[C:7]([H:13])[O:6][C@@:5]2([H:12])[O:3][C@@:4]12[H:11]"
C       -0.83013147       0.20797050       0.96035567
C       -0.37099303      -1.07621323       0.30707149
O       -0.97239031       0.31474191      -1.31303464
C       -0.47484586       1.05951357      -0.25008557
C        0.88306236       0.62289011      -0.72535697
O        1.76234813       0.06454578       0.16764868
C        0.96273203      -1.06562872      -0.08614937
H       -1.90925350       0.21428824       1.09932549
H       -0.30791678       0.45676851       1.88666330
H       -0.91258965      -2.01107023       0.36923373
H       -0.66682887       2.13782087      -0.23611316
H        1.34674484       0.96906825      -1.64357028
H        1.49006212      -1.89469555      -0.53598838
13
Frame=9 idx=006386 GeodesicLength=0.6597713598544565 rxn_smarts="[C:1]1([H:8])([H:9])[C@:2]2([H:10])[O:3][C@@:4]1([H:11])[C@:5]1([H:12])[O:6][C@:7]21[H:13]>>[C:1]1([H:8])([H:9])[C:2]([H:10])=[C:7]([H:13])[O:6][C@@:5]2([H:12])[O:3][C@@:4]12[H:11]"
C       -0.83065626       0.20728391       0.96303303
C       -0.38169615      -1.07476950       0.29809815
O       -0.94824900       0.29832092      -1.30774017
C       -0.46831227       1.06190424      -0.24185564
C        0.87981915       0.62268646      -0.73839826
O        1.76370765       0.05785244       0.15093483
C        0.95786367      -1.06636866      -0.09263918
H       -1.91038215       0.21898673       1.09966520
H       -0.30858070       0.45270512       1.88974926
H       -0.91464909      -2.01290086       0.38390836
H       -0.67687742       2.13577121      -0.24148893
H        1.35357360       1.00337881      -1.63719009
H        1.48443896      -1.90485082      -0.52607656
13
Frame=10 idx=006386 GeodesicLength=0.7328516145813327 rxn_smarts="[C:1]1([H:8])([H:9])[C@:2]2([H:10])[O:3][C@@:4]1([H:11])[C@:5]1([H:12])[O:6][C@:7]21[H:13]>>[C:1]1([H:8])([H:9])[C:2]([H:10])=[C:7]([H:13])[O:6][C@@:5]2([H:12])[O:3][C@@:4]12[H:11]"
C       -0.83102801       0.20653415       0.96554634
C       -0.39230188      -1.07334254       0.28913153
O       -0.92491843       0.28264078      -1.30225556
C       -0.46145127       1.06416625      -0.23375864
C        0.87657164       0.62240846      -0.75180340
O        1.76511482       0.05120754       0.13386226
C        0.95316041      -1.06710655      -0.09906536
H       -1.91132083       0.22373615       1.09990678
H       -0.30918958       0.44861690       1.89271697
H       -0.91654451      -2.01423300       0.39780127
H       -0.68682868       2.13315747      -0.24686055
H        1.35968963       1.03717507      -1.62995509
H        1.47904669      -1.91496067      -0.51526653
13
Frame=11 idx=006386 GeodesicLength=0.8059120762316238 rxn_smarts="[C:1]1([H:8])([H:9])[C@:2]2([H:10])[O:3][C@@:4]1([H:11])[C@:5]1([H:12])[O:6][C@:7]21[H:13]>>[C:1]1([H:8])([H:9])[C:2]([H:10])=[C:7]([H:13])[O:6][C@@:5]2([H:12])[O:3][C@@:4]12[H:11]"
C       -0.83123991       0.20573113       0.96789674
C       -0.40279892      -1.07190855       0.28016238
O       -0.90236192       0.26765896      -1.29660575
C       -0.45426248       1.06631949      -0.22576971
C        0.87330434       0.62209933      -0.76555120
O        1.76655452       0.04460798       0.11642381
C        0.94861516      -1.06782420      -0.10546335
H       -1.91205494       0.22855117       1.10004700
H       -0.30973742       0.44449132       1.89556067
H       -0.91828514      -2.01509072       0.41090648
H       -0.69669302       2.12998526      -0.25219936
H        1.36508809       1.07035975      -1.62185862
H        1.47387165      -1.92498092      -0.50354909
13
Frame=12 idx=006386 GeodesicLength=0.8789426037279908 rxn_smarts="[C:1]1([H:8])([H:9])[C@:2]2([H:10])[O:3][C@@:4]1([H:11])[C@:5]1([H:12])[O:6][C@:7]21[H:13]>>[C:1]1([H:8])([H:9])[C:2]([H:10])=[C:7]([H:13])[O:6][C@@:5]2([H:12])[O:3][C@@:4]12[H:11]"
C       -0.83130213       0.20487873       0.97011041
C       -0.41318655      -1.07045551       0.27120042
O       -0.88055075       0.25332721      -1.29082685
C       -0.44674231       1.06838577      -0.21786254
C        0.87001315       0.62180752      -0.77960952
O        1.76802855       0.03808270       0.09864285
C        0.94423267      -1.06849481      -0.11183824
H       -1.91260020       0.23341775       1.10010158
H       -0.31023686       0.44033008       1.89832201
H       -0.91991030      -2.01550170       0.42317029
H       -0.70644630       2.12626859      -0.25745756
H        1.36978401       1.10278402      -1.61301051
H        1.46891701      -1.93483037      -0.49094234
13
Frame=13 idx=006386 GeodesicLength=0.9519574673897087 rxn_smarts="[C:1]1([H:8])([H:9])[C@:2]2([H:10])[O:3][C@@:4]1([H:11])[C@:5]1([H:12])[O:6][C@:7]21[H:13]>>[C:1]1([H:8])([H:9])[C:2]([H:10])=[C:7]([H:13])[O:6][C@@:5]2([H:12])[O:3][C@@:4]12[H:11]"
C       -0.83121996       0.20398404       0.97218901
C       -0.42345630      -1.06896356       0.26223523
O       -0.85944561       0.23962103      -1.28492920
C       -0.43889668       1.07038539      -0.21000709
C        0.86668053       0.62157109      -0.79393918
O        1.76952543       0.03162568       0.08051413
C        0.94001218      -1.06910296      -0.11822157
H       -1.91295909       0.23834662       1.10006514
H       -0.31070019       0.43611438       1.90099840
H       -0.92142513      -2.01548368       0.43458746
H       -0.71608743       2.12201917      -0.26258702
H        1.37378328       1.13433891      -1.60347376
H        1.46418896      -1.94445611      -0.47743156
13
Frame=14 idx=006386 GeodesicLength=1.0249712758347294 rxn_smarts="[C:1]1([H:8])([H:9])[C@:2]2([H:10])[O:3][C@@:4]1([H:11])[C@:5]1([H:12])[O:6][C@:7]21[H:13]>>[C:1]1([H:8])([H:9])[C:2]([H:10])=[C:7]([H:13])[O:6][C@@:5]2([H:12])[O:3][C@@:4]12[H:11]"
C       -0.83099549       0.20304532       0.97414356
C       -0.43361041      -1.06741687       0.25325745
O       -0.83901248       0.22649116      -1.27895307
C       -0.43072860       1.07232593      -0.20218875
C        0.86328996       0.62143542      -0.80851495
O        1.77103370       0.02525293       0.06204574
C        0.93594135      -1.06962458      -0.12463846
H       -1.91313017       0.24332378       1.09994132
H       -0.31113013       0.43182850       1.90361531
H       -0.92285179      -2.01506543       0.44518897
H       -0.72559435       2.11723557      -0.26756426
H        1.37713369       1.16495410      -1.59329880
H        1.45965471      -1.95378584      -0.46303406
13
Frame=15 idx=006386 GeodesicLength=1.0979652187883087 rxn_smarts="[C:1]1([H:8])([H:9])[C@:2]2([H:10])[O:3][C@@:4]1([H:11])[C@:5]1([H:12])[O:6][C@:7]21[H:13]>>[C:1]1([H:8])([H:9])[C:2]([H:10])=[C:7]([H:13])[O:6][C@@:5]2([H:12])[O:3][C@@:4]12[H:11]"
C       -0.83064966       0.20206515       0.97598908
C       -0.44364283      -1.06580687       0.24427197
O       -0.81921877       0.21393060      -1.27290657
C       -0.42225127       1.07423507      -0.19437501
C        0.85983295       0.62144835      -0.82329342
O        1.77255444       0.01898374       0.04325369
C        0.93203524      -1.07004561      -0.13109210
H       -1.91314227       0.24834297       1.09973573
H       -0.31155583       0.42746536       1.90618941
H       -0.92421348      -2.01429157       0.45492441
H       -0.73493631       2.11195834      -0.27231224
H        1.37984175       1.19446764      -1.58264367
H        1.45534604      -1.96275316      -0.44774128
13
Frame=16 idx=006386 GeodesicLength=1.1709470104417605 rxn_smarts="[C:1]1([H:8])([H:9])[C@:2]2([H:10])[O:3][C@@:4]1([H:11])[C@:5]1([H:12])[O:6][C@:7]21[H:13]>>[C:1]1([H:8])([H:9])[C:2]([H:10])=[C:7]([H:13])[O:6][C@@:5]2([H:12])[O:3][C@@:4]12[H:11]"
C       -0.83019259       0.20104120       0.97773305
C       -0.45354797      -1.06411467       0.23527250
O       -0.80002217       0.20190901      -1.26680637
C       -0.41347184       1.07611519      -0.18653803
C        0.85628745       0.62164055      -0.83822128
O        1.77406571       0.01283919       0.02416732
C        0.92829059      -1.07033943      -0.13758109
H       -1.91299836       0.25338999       1.09943843
H       -0.31200103       0.42301621       1.90873684
H       -0.92551830      -2.01317898       0.46376369
H       -0.74405740       2.10619545      -0.27675711
H        1.38191089       1.22275021      -1.57165095
H        1.45125503      -1.97126393      -0.43155700
