14
Frame=0 idx=006625 GeodesicLength=0.0 rxn_smarts="[O:1]=[C:2]([C@@:3]1([H:9])[C@@:4]2([H:10])[C:5]([H:11])([H:12])[C:6]([H:13])([H:14])[N:7]12)[H:8]>>[H:8][H:10].[O:1]=[C-:2][C@@:3]1([H:9])[C:4]2=[N+:7]1[C:6]([H:13])([H:14])[C:5]2([H:11])[H:12]"
O        1.52774985       1.09568057       1.55176498
C        1.10122232       1.10479212       0.47853226
C        0.10449135       1.20655230      -0.49763507
C        0.03145744      -0.24316270      -0.94860439
C       -0.23137953      -1.20144558       0.22007102
C       -1.44902625      -0.32827294       0.55128131
N       -1.19985568       0.54890233      -0.62375029
H        2.13416766       0.25690730      -0.81142296
H        0.35499089       1.85572717      -1.32697108
H        1.43803865      -0.17642028      -1.34386081
H        0.54748958      -1.33929972       0.97184294
H       -0.51688312      -2.17992883      -0.16230490
H       -1.42830973       0.21854574       1.49492858
H       -2.41415348      -0.81857748       0.44612847
14
Frame=1 idx=006625 GeodesicLength=0.19045677715924395 rxn_smarts="[O:1]=[C:2]([C@@:3]1([H:9])[C@@:4]2([H:10])[C:5]([H:11])([H:12])[C:6]([H:13])([H:14])[N:7]12)[H:8]>>[H:8][H:10].[O:1]=[C-:2][C@@:3]1([H:9])[C:4]2=[N+:7]1[C:6]([H:13])([H:14])[C:5]2([H:11])[H:12]"
O        1.49321710       1.09371849       1.58188163
C        1.09610332       1.11647663       0.49654905
C        0.11678038       1.19130432      -0.49729275
C        0.02371383      -0.25985130      -0.95030092
C       -0.24095633      -1.21179640       0.22321744
C       -1.44883300      -0.32687416       0.55980261
N       -1.19290020       0.54507123      -0.61721152
H        2.16865313       0.32735612      -0.84456402
H        0.39153245       1.81854182      -1.33640007
H        1.43575752      -0.16608433      -1.39586001
H        0.53724581      -1.35182162       0.97523780
H       -0.53742338      -2.19012103      -0.15123679
H       -1.42305980       0.21932588       1.50349743
H       -2.41983083      -0.80524567       0.45268013
14
Frame=2 idx=006625 GeodesicLength=0.3807829578267584 rxn_smarts="[O:1]=[C:2]([C@@:3]1([H:9])[C@@:4]2([H:10])[C:5]([H:11])([H:12])[C:6]([H:13])([H:14])[N:7]12)[H:8]>>[H:8][H:10].[O:1]=[C-:2][C@@:3]1([H:9])[C:4]2=[N+:7]1[C:6]([H:13])([H:14])[C:5]2([H:11])[H:12]"
O        1.45893583       1.09167133       1.61126907
C        1.09127533       1.12800482       0.51487644
C        0.13078633       1.17438411      -0.49675042
C        0.01634888      -0.27776054      -0.95169232
C       -0.25099583      -1.22268968       0.22706220
C       -1.44867094      -0.32535717       0.56800065
N       -1.18478293       0.54092279      -0.61097482
H        2.20437182       0.40313287      -0.87641826
H        0.42813940       1.78098231      -1.34385073
H        1.43076442      -0.15709860      -1.45215089
H        0.52622245      -1.36467872       0.97970453
H       -0.55862417      -2.20072434      -0.13914516
H       -1.41819351       0.22044243       1.51159971
H       -2.42557708      -0.79123160       0.45847001
14
Frame=3 idx=006625 GeodesicLength=0.5708659868228855 rxn_smarts="[O:1]=[C:2]([C@@:3]1([H:9])[C@@:4]2([H:10])[C:5]([H:11])([H:12])[C:6]([H:13])([H:14])[N:7]12)[H:8]>>[H:8][H:10].[O:1]=[C-:2][C@@:3]1([H:9])[C:4]2=[N+:7]1[C:6]([H:13])([H:14])[C:5]2([H:11])[H:12]"
O        1.42482142       1.08967825       1.64006904
C        1.08665921       1.13936645       0.53361558
C        0.14683424       1.15548331      -0.49604976
C        0.00930672      -0.29706279      -0.95277503
C       -0.26153269      -1.23420066       0.23164949
C       -1.44849093      -0.32369882       0.57589796
N       -1.17534106       0.53649336      -0.60495561
H        2.24190489       0.48509159      -0.90584791
H        0.46506500       1.74282853      -1.34958713
H        1.42192088      -0.14970944      -1.51402335
H        0.51446168      -1.37795955       0.98520490
H       -0.58060518      -2.21177340      -0.12597872
H       -1.41365127       0.22189175       1.51927856
H       -2.43135291      -0.77642857       0.46350198
14
Frame=4 idx=006625 GeodesicLength=0.760688835768385 rxn_smarts="[O:1]=[C:2]([C@@:3]1([H:9])[C@@:4]2([H:10])[C:5]([H:11])([H:12])[C:6]([H:13])([H:14])[N:7]12)[H:8]>>[H:8][H:10].[O:1]=[C-:2][C@@:3]1([H:9])[C:4]2=[N+:7]1[C:6]([H:13])([H:14])[C:5]2([H:11])[H:12]"
O        1.39078687       1.08756171       1.66845115
C        1.08222221       1.15043234       0.55288984
C        0.16543321       1.13411073      -0.49524724
C        0.00256026      -0.31808232      -0.95349798
C       -0.27265740      -1.24645207       0.23712825
C       -1.44825515      -0.32183188       0.58349061
N       -1.16427955       0.53179204      -0.59910508
H        2.28199722       0.57549153      -0.93181764
H        0.50279150       1.70364801      -1.35386973
H        1.40766703      -0.14462689      -1.58297697
H        0.50191445      -1.39183237       0.99183473
H       -0.60360427      -2.22335705      -0.11149717
H       -1.40942625       0.22376070       1.52652405
H       -2.43715013      -0.76061448       0.46769318
14
Frame=5 idx=006625 GeodesicLength=0.9501819734882646 rxn_smarts="[O:1]=[C:2]([C@@:3]1([H:9])[C@@:4]2([H:10])[C:5]([H:11])([H:12])[C:6]([H:13])([H:14])[N:7]12)[H:8]>>[H:8][H:10].[O:1]=[C-:2][C@@:3]1([H:9])[C:4]2=[N+:7]1[C:6]([H:13])([H:14])[C:5]2([H:11])[H:12]"
O        1.35682065       1.08516519       1.69662982
C        1.07799754       1.16094188       0.57287501
C        0.18738586       1.10948461      -0.49440381
C       -0.00381795      -0.34137467      -0.95373610
C       -0.28448607      -1.25964974       0.24377978
C       -1.44790441      -0.31966388       0.59071698
N       -1.15107663       0.52676051      -0.59343353
H        2.32552678       0.67752670      -0.95264540
H        0.54212292       1.66269818      -1.35694666
H        1.38541722      -0.14251053      -1.66150867
H        0.48844942      -1.40651707       0.99988466
H       -0.62793733      -2.23564658      -0.09523552
H       -1.40554460       0.22622845       1.53323127
H       -2.44295338      -0.74344304       0.47079217
14
Frame=6 idx=006625 GeodesicLength=1.1392721812499143 rxn_smarts="[O:1]=[C:2]([C@@:3]1([H:9])[C@@:4]2([H:10])[C:5]([H:11])([H:12])[C:6]([H:13])([H:14])[N:7]12)[H:8]>>[H:8][H:10].[O:1]=[C-:2][C@@:3]1([H:9])[C:4]2=[N+:7]1[C:6]([H:13])([H:14])[C:5]2([H:11])[H:12]"
O        1.32294693       1.08215893       1.72489325
C        1.07417625       1.17039196       0.59378992
C        0.21402650       1.08032601      -0.49362522
C       -0.00958165      -0.36789140      -0.95326172
C       -0.29721122      -1.27414176       0.25208795
C       -1.44732550      -0.31701482       0.59741259
N       -1.13480218       0.52124101      -0.58806008
H        2.37342108       0.79655862      -0.96590943
H        0.58452776       1.61860624      -1.35910445
H        1.35093854      -0.14427247      -1.75319487
H        0.47377194      -1.42238154       1.00993524
H       -0.65412219      -2.24892949      -0.07641090
H       -1.40204343       0.22965786       1.53913951
H       -2.44872283      -0.72430915       0.47230821
14
Frame=7 idx=006625 GeodesicLength=1.3278335930672664 rxn_smarts="[O:1]=[C:2]([C@@:3]1([H:9])[C@@:4]2([H:10])[C:5]([H:11])([H:12])[C:6]([H:13])([H:14])[N:7]12)[H:8]>>[H:8][H:10].[O:1]=[C-:2][C@@:3]1([H:9])[C:4]2=[N+:7]1[C:6]([H:13])([H:14])[C:5]2([H:11])[H:12]"
O        1.28944931       1.07788037       1.75358799
C        1.07129157       1.17785392       0.61590412
C        0.24766139       1.04445420      -0.49307901
C       -0.01407324      -0.39930496      -0.95166432
C       -0.31115368      -1.29052989       0.26286965
C       -1.44627597      -0.31353505       0.60316523
N       -1.11372887       0.51485568      -0.58336723
H        2.42610876       0.94165629      -0.96794959
H        0.63273568       1.56878398      -1.36071798
H        1.29705742      -0.15105173      -1.86298444
H        0.45724853      -1.44005909       1.02310677
H       -0.68304589      -2.26367580      -0.05373053
H       -1.39893931       0.23477901       1.54362975
H       -2.45433570      -0.70210691       0.47122958
14
Frame=8 idx=006625 GeodesicLength=1.5156334012954051 rxn_smarts="[O:1]=[C:2]([C@@:3]1([H:9])[C@@:4]2([H:10])[C:5]([H:11])([H:12])[C:6]([H:13])([H:14])[N:7]12)[H:8]>>[H:8][H:10].[O:1]=[C-:2][C@@:3]1([H:9])[C:4]2=[N+:7]1[C:6]([H:13])([H:14])[C:5]2([H:11])[H:12]"
O        1.25743243       1.07081086       1.78290595
C        1.07061954       1.18162422       0.63935785
C        0.29234204       0.99809089      -0.49309544
C       -0.01592291      -0.43852612      -0.94836154
C       -0.32694011      -1.30984464       0.27735784
C       -1.44420651      -0.30848958       0.60705115
N       -1.08467904       0.50684826      -0.58026105
H        2.48153943       1.12868737      -0.95331207
H        0.69203951       1.50804662      -1.36248803
H        1.21214485      -0.16423722      -1.99626186
H        0.43755444      -1.46074908       1.04131244
H       -0.71646597      -2.28058461      -0.02522770
H       -1.39599734       0.24302742       1.54538101
H       -2.45946035      -0.67470439       0.46564146
14
Frame=9 idx=006625 GeodesicLength=1.701282923571959 rxn_smarts="[O:1]=[C:2]([C@@:3]1([H:9])[C@@:4]2([H:10])[C:5]([H:11])([H:12])[C:6]([H:13])([H:14])[N:7]12)[H:8]>>[H:8][H:10].[O:1]=[C-:2][C@@:3]1([H:9])[C:4]2=[N+:7]1[C:6]([H:13])([H:14])[C:5]2([H:11])[H:12]"
O        1.23007382       1.05779483       1.81264211
C        1.07545195       1.17837875       0.66388041
C        0.35502320       0.93494945      -0.49395182
C       -0.01276143      -0.49009516      -0.94289656
C       -0.34592819      -1.33361024       0.29673656
C       -1.43979088      -0.30026357       0.60714157
N       -1.04180747       0.49623740      -0.58048686
H        2.52719088       1.38470520      -0.91634469
H        0.77322114       1.42576441      -1.36541359
H        1.08053599      -0.18615826      -2.15319142
H        0.41185579      -1.48671647       1.06700132
H       -0.75800722      -2.30021596       0.01100359
H       -1.39195474       0.25702684       1.54195571
H       -2.46310284      -0.63779723       0.45192368
14
Frame=10 idx=006625 GeodesicLength=1.8779749410601667 rxn_smarts="[O:1]=[C:2]([C@@:3]1([H:9])[C@@:4]2([H:10])[C:5]([H:11])([H:12])[C:6]([H:13])([H:14])[N:7]12)[H:8]>>[H:8][H:10].[O:1]=[C-:2][C@@:3]1([H:9])[C:4]2=[N+:7]1[C:6]([H:13])([H:14])[C:5]2([H:11])[H:12]"
O        1.21512386       1.03320367       1.84008063
C        1.09174062       1.16333898       0.68707747
C        0.44408794       0.84750771      -0.49556882
C       -0.00228586      -0.55807923      -0.93593084
C       -0.37005988      -1.36241315       0.32058321
C       -1.43013093      -0.28535420       0.60020617
N       -0.97715455       0.48279136      -0.58609074
H        2.52013455       1.73570076      -0.85347525
H        0.89591847       1.30306271      -1.36929505
H        0.89447541      -0.21471687      -2.31831922
H        0.37639389      -1.52048114       1.10097280
H       -0.81321654      -2.32113867       0.05502580
H       -1.38273549       0.28093778       1.52945031
H       -2.46229151      -0.58435971       0.42528351
14
Frame=11 idx=006625 GeodesicLength=2.029672619236844 rxn_smarts="[O:1]=[C:2]([C@@:3]1([H:9])[C@@:4]2([H:10])[C:5]([H:11])([H:12])[C:6]([H:13])([H:14])[N:7]12)[H:8]>>[H:8][H:10].[O:1]=[C-:2][C@@:3]1([H:9])[C:4]2=[N+:7]1[C:6]([H:13])([H:14])[C:5]2([H:11])[H:12]"
O        1.22313594       0.99204873       1.86611513
C        1.13014089       1.13278069       0.70960058
C        0.56135283       0.73656783      -0.49108512
C        0.01601793      -0.63618126      -0.92937829
C       -0.40147642      -1.39257380       0.34314448
C       -1.41184201      -0.25913698       0.58360495
N       -0.88551547       0.47131651      -0.59692167
H        2.36616558       2.15382590      -0.80154745
H        1.07918744       1.12887227      -1.35960062
H        0.69730282      -0.23818413      -2.44741599
H        0.32667977      -1.56316678       1.13873066
H       -0.88627189      -2.33631643       0.09605696
H       -1.36168801       0.31601344       1.50745480
H       -2.45318940      -0.50586597       0.38124160
14
Frame=12 idx=006625 GeodesicLength=2.1706836230376076 rxn_smarts="[O:1]=[C:2]([C@@:3]1([H:9])[C@@:4]2([H:10])[C:5]([H:11])([H:12])[C:6]([H:13])([H:14])[N:7]12)[H:8]>>[H:8][H:10].[O:1]=[C-:2][C@@:3]1([H:9])[C:4]2=[N+:7]1[C:6]([H:13])([H:14])[C:5]2([H:11])[H:12]"
O        1.24477332       0.95397849       1.89387322
C        1.17761909       1.10646703       0.73529473
C        0.68808974       0.62084781      -0.47060870
C        0.04212877      -0.70472357      -0.92603228
C       -0.43167871      -1.41552823       0.35585638
C       -1.38406501      -0.22483197       0.56129052
N       -0.77771672       0.46584639      -0.60492794
H        2.04892140       2.47052810      -0.80779090
H        1.29795291       0.93561655      -1.31209025
H        0.54375373      -0.20802827      -2.52212514
H        0.27320717      -1.60258929       1.16841062
H       -0.96201349      -2.33772931       0.11991769
H       -1.33036601       0.35481204       1.48245659
H       -2.43060620      -0.41466576       0.32647547
14
Frame=13 idx=006625 GeodesicLength=2.3259275968557493 rxn_smarts="[O:1]=[C:2]([C@@:3]1([H:9])[C@@:4]2([H:10])[C:5]([H:11])([H:12])[C:6]([H:13])([H:14])[N:7]12)[H:8]>>[H:8][H:10].[O:1]=[C-:2][C@@:3]1([H:9])[C:4]2=[N+:7]1[C:6]([H:13])([H:14])[C:5]2([H:11])[H:12]"
O        1.25655288       0.93898971       1.92070070
C        1.21078791       1.10328985       0.76135543
C        0.79325801       0.52475162      -0.43396558
C        0.06678755      -0.74734157      -0.92506377
C       -0.45166954      -1.42938120       0.35725556
C       -1.35421042      -0.19673765       0.54101540
N       -0.68127130       0.46669513      -0.60326663
H        1.72232396       2.60092891      -0.87931690
H        1.48380499       0.77342440      -1.23510342
H        0.43918791      -0.11544256      -2.54829570
H        0.23190759      -1.63173449       1.18458556
H       -1.01717093      -2.32953272       0.12221208
H       -1.29975808       0.37768486       1.46441431
H       -2.40053055      -0.33559428       0.27347296
14
Frame=14 idx=006625 GeodesicLength=2.4882643899000825 rxn_smarts="[O:1]=[C:2]([C@@:3]1([H:9])[C@@:4]2([H:10])[C:5]([H:11])([H:12])[C:6]([H:13])([H:14])[N:7]12)[H:8]>>[H:8][H:10].[O:1]=[C-:2][C@@:3]1([H:9])[C:4]2=[N+:7]1[C:6]([H:13])([H:14])[C:5]2([H:11])[H:12]"
O        1.26061895       0.94543324       1.94214767
C        1.22987419       1.11731888       0.78131437
C        0.87408027       0.44995167      -0.39277907
C        0.08731070      -0.77256341      -0.92794900
C       -0.46530071      -1.44017242       0.35115124
C       -1.32860514      -0.17736337       0.52716489
N       -0.60360908       0.46935251      -0.59482356
H        1.45123819       2.62403845      -0.97753966
H        1.63313998       0.64013081      -1.14849945
H        0.36360920       0.00759099      -2.54931485
H        0.20114887      -1.65501441       1.18958202
H       -1.05704543      -2.32188208       0.11156523
H       -1.27435755       0.38841247       1.45584455
H       -2.37210246      -0.27523333       0.23213564
14
Frame=15 idx=006625 GeodesicLength=2.652219261358948 rxn_smarts="[O:1]=[C:2]([C@@:3]1([H:9])[C@@:4]2([H:10])[C:5]([H:11])([H:12])[C:6]([H:13])([H:14])[N:7]12)[H:8]>>[H:8][H:10].[O:1]=[C-:2][C@@:3]1([H:9])[C:4]2=[N+:7]1[C:6]([H:13])([H:14])[C:5]2([H:11])[H:12]"
O        1.25911457       0.96648045       1.95591684
C        1.24092146       1.14009217       0.79278014
C        0.93575220       0.39100392      -0.35207114
C        0.10373358      -0.78612291      -0.93341016
C       -0.47445592      -1.44871668       0.34052595
C       -1.30655875      -0.16440290       0.51759867
N       -0.54162091       0.47258509      -0.58354525
H        1.23039661       2.59520507      -1.08206833
H        1.75760023       0.51694128      -1.05543687
H        0.29987227       0.14397542      -2.53354038
H        0.17895357      -1.67416789       1.18698254
H       -1.08560936      -2.31473408       0.09342818
H       -1.25205711       0.39048587       1.45283121
H       -2.34604244      -0.22862482       0.20000860
14
Frame=16 idx=006625 GeodesicLength=2.816346642425415 rxn_smarts="[O:1]=[C:2]([C@@:3]1([H:9])[C@@:4]2([H:10])[C:5]([H:11])([H:12])[C:6]([H:13])([H:14])[N:7]12)[H:8]>>[H:8][H:10].[O:1]=[C-:2][C@@:3]1([H:9])[C:4]2=[N+:7]1[C:6]([H:13])([H:14])[C:5]2([H:11])[H:12]"
O        1.25626247       0.99475324       1.96145791
C        1.24865304       1.16551859       0.79553772
C        0.98492001       0.34295708      -0.31520752
C        0.11849613      -0.79343594      -0.94073132
C       -0.48080143      -1.45561983       0.32704035
C       -1.28641208      -0.15433626       0.51000700
N       -0.49014027       0.47562666      -0.57304608
H        1.03920285       2.54512930      -1.17983001
H        1.86521430       0.39757783      -0.95568277
H        0.24234324       0.28000248      -2.50703615
H        0.16203672      -1.69085522       1.17935744
H       -1.10779053      -2.30758094       0.07215114
H       -1.23040740       0.38968691       1.45140498
H       -2.32157706      -0.18942391       0.17457731
