14
Frame=0 idx=009543 GeodesicLength=0.0 rxn_smarts="[C:1]([C@@:2]1([H:11])[O:3][C:4]([H:12])([H:13])/[C:5](=[N:6]/[H:14])[O:7]1)([H:8])([H:9])[H:10]>>[C:1]([C@@:2]1([H:11])[O+:3]=[C-:4]/[C:5](=[N:6]/[H:14])[O:7]1)([H:8])([H:9])[H:10].[H:12][H:13]"
C       -2.01543626       0.68341391       0.03335407
C       -0.74515327      -0.04443107       0.35592612
O       -0.40906074      -0.96500711      -0.69725750
C        0.88944274      -0.95450128      -0.94985776
C        1.41650116       0.25783674      -0.21713042
N        2.57855401       0.71795750      -0.26665607
O        0.35421498       0.82665673       0.44051148
H       -2.25523123       1.38039986       0.83562485
H       -2.83124329      -0.03159078      -0.07097342
H       -1.89903318       1.23535848      -0.89912013
H       -0.81243815      -0.63146043       1.28203820
H        1.53088276      -2.05268121      -0.49967825
H        1.52834251      -1.98349049       0.35964744
H        2.66965802       1.56153910       0.29357140
14
Frame=1 idx=009543 GeodesicLength=0.047094910128179075 rxn_smarts="[C:1]([C@@:2]1([H:11])[O:3][C:4]([H:12])([H:13])/[C:5](=[N:6]/[H:14])[O:7]1)([H:8])([H:9])[H:10]>>[C:1]([C@@:2]1([H:11])[O+:3]=[C-:4]/[C:5](=[N:6]/[H:14])[O:7]1)([H:8])([H:9])[H:10].[H:12][H:13]"
C       -2.01532817       0.68576467       0.03312844
C       -0.74682610      -0.04464793       0.35749183
O       -0.41087291      -0.96408521      -0.69643964
C        0.89079048      -0.95896846      -0.93851373
C        1.41432266       0.26138223      -0.21796890
N        2.57464974       0.72537366      -0.27360951
O        0.35378532       0.82509187       0.44586066
H       -2.25563092       1.38234070       0.83562679
H       -2.83223807      -0.02766692      -0.07339521
H       -1.89626138       1.23846696      -0.89857761
H       -0.81699680      -0.63146657       1.28339835
H        1.55149869      -2.06573485      -0.50816864
H        1.52129702      -1.99098790       0.35905486
H        2.66781043       1.56513776       0.29211230
14
Frame=2 idx=009543 GeodesicLength=0.0941874170295826 rxn_smarts="[C:1]([C@@:2]1([H:11])[O:3][C:4]([H:12])([H:13])/[C:5](=[N:6]/[H:14])[O:7]1)([H:8])([H:9])[H:10]>>[C:1]([C@@:2]1([H:11])[O+:3]=[C-:4]/[C:5](=[N:6]/[H:14])[O:7]1)([H:8])([H:9])[H:10].[H:12][H:13]"
C       -2.01471377       0.68850241       0.03293533
C       -0.74858834      -0.04539894       0.35921699
O       -0.41244226      -0.96275632      -0.69617657
C        0.89251182      -0.96360656      -0.92646819
C        1.41242038       0.26415060      -0.21720511
N        2.57109658       0.73176769      -0.27827770
O        0.35361634       0.82235978       0.45300545
H       -2.25575658       1.38394703       0.83620589
H       -2.83296655      -0.02286050      -0.07710907
H       -1.89206066       1.24287218      -0.89732367
H       -0.82254542      -0.63290913       1.28425667
H        1.57204922      -2.07901974      -0.51640007
H        1.51364426      -2.00018929       0.35813211
H        2.66373498       1.57314078       0.28520794
14
Frame=3 idx=009543 GeodesicLength=0.1412904697055576 rxn_smarts="[C:1]([C@@:2]1([H:11])[O:3][C:4]([H:12])([H:13])/[C:5](=[N:6]/[H:14])[O:7]1)([H:8])([H:9])[H:10]>>[C:1]([C@@:2]1([H:11])[O+:3]=[C-:4]/[C:5](=[N:6]/[H:14])[O:7]1)([H:8])([H:9])[H:10].[H:12][H:13]"
C       -2.01400165       0.69136539       0.03275015
C       -0.75040152      -0.04625821       0.36096113
O       -0.41395667      -0.96129222      -0.69609082
C        0.89427864      -0.96842998      -0.91406273
C        1.41045967       0.26681154      -0.21632223
N        2.56741101       0.73812759      -0.28294072
O        0.35349966       0.81931933       0.46054077
H       -2.25582666       1.38551740       0.83692082
H       -2.83364838      -0.01779311      -0.08111836
H       -1.88754465       1.24760347      -0.89589485
H       -0.82834714      -0.63466456       1.28497182
H        1.59280251      -2.09203615      -0.52423367
H        1.50606773      -2.00995224       0.35701105
H        2.65920746       1.58168174       0.27750764
14
Frame=4 idx=009543 GeodesicLength=0.18838423868477583 rxn_smarts="[C:1]([C@@:2]1([H:11])[O:3][C:4]([H:12])([H:13])/[C:5](=[N:6]/[H:14])[O:7]1)([H:8])([H:9])[H:10]>>[C:1]([C@@:2]1([H:11])[O+:3]=[C-:4]/[C:5](=[N:6]/[H:14])[O:7]1)([H:8])([H:9])[H:10].[H:12][H:13]"
C       -2.01342137       0.69417633       0.03255512
C       -0.75224018      -0.04697672       0.36264075
O       -0.41553742      -0.95985672      -0.69595384
C        0.89588918      -0.97340333      -0.90149342
C        1.40822179       0.26977711      -0.21619447
N        2.56328022       0.74502496      -0.28891686
O        0.35331709       0.81650279       0.46762542
H       -2.25595177       1.38719891       0.83750741
H       -2.83440225      -0.01287494      -0.08483989
H       -1.88335976       1.25207464      -0.89461143
H       -0.83396277      -0.63607501       1.28575643
H        1.61385960      -2.10448229      -0.53160289
H        1.49892452      -2.01958821       0.35578468
H        2.65538313       1.58850247       0.27174300
14
Frame=5 idx=009543 GeodesicLength=0.23540943081683008 rxn_smarts="[C:1]([C@@:2]1([H:11])[O:3][C:4]([H:12])([H:13])/[C:5](=[N:6]/[H:14])[O:7]1)([H:8])([H:9])[H:10]>>[C:1]([C@@:2]1([H:11])[O+:3]=[C-:4]/[C:5](=[N:6]/[H:14])[O:7]1)([H:8])([H:9])[H:10].[H:12][H:13]"
C       -2.01306872       0.69686163       0.03234229
C       -0.75409167      -0.04745254       0.36422029
O       -0.41720858      -0.95849486      -0.69567489
C        0.89727968      -0.97846132      -0.88882931
C        1.40559919       0.27320144      -0.21712676
N        2.55855890       0.75262719      -0.29657550
O        0.35300026       0.81413362       0.47393634
H       -2.25619299       1.38903394       0.83786072
H       -2.83525802      -0.00828024      -0.08804992
H       -1.87977875       1.25606267      -0.89358873
H       -0.83920834      -0.63689170       1.28667622
H        1.63524570      -2.11623454      -0.53850030
H        1.49234816      -2.02883175       0.35448269
H        2.65277517       1.59272645       0.26882689
14
Frame=6 idx=009543 GeodesicLength=0.2824378534855543 rxn_smarts="[C:1]([C@@:2]1([H:11])[O:3][C:4]([H:12])([H:13])/[C:5](=[N:6]/[H:14])[O:7]1)([H:8])([H:9])[H:10]>>[C:1]([C@@:2]1([H:11])[O+:3]=[C-:4]/[C:5](=[N:6]/[H:14])[O:7]1)([H:8])([H:9])[H:10].[H:12][H:13]"
C       -2.01272217       0.69957490       0.03212413
C       -0.75597607      -0.04792051       0.36579714
O       -0.41884808      -0.95707410      -0.69544632
C        0.89863760      -0.98358627      -0.87590855
C        1.40283823       0.27667328      -0.21823562
N        2.55359717       0.76035393      -0.30461231
O        0.35268843       0.81172082       0.48027051
H       -2.25643710       1.39089134       0.83821765
H       -2.83611531      -0.00364629      -0.09129137
H       -1.87617545       1.26008482      -0.89255427
H       -0.84450815      -0.63771778       1.28757243
H        1.65681610      -2.12760278      -0.54507987
H        1.48592841      -2.03836634       0.35301576
H        2.65027638       1.59661498       0.26613068
14
Frame=7 idx=009543 GeodesicLength=0.3294679671074721 rxn_smarts="[C:1]([C@@:2]1([H:11])[O:3][C:4]([H:12])([H:13])/[C:5](=[N:6]/[H:14])[O:7]1)([H:8])([H:9])[H:10]>>[C:1]([C@@:2]1([H:11])[O+:3]=[C-:4]/[C:5](=[N:6]/[H:14])[O:7]1)([H:8])([H:9])[H:10].[H:12][H:13]"
C       -2.01218678       0.70244000       0.03191012
C       -0.75789780      -0.04855749       0.36744051
O       -0.42034695      -0.95549613      -0.69538721
C        0.90008512      -0.98878562      -0.86259707
C        1.40010285       0.27987660      -0.21885064
N        2.54861049       0.76779245      -0.31207901
O        0.35247426       0.80887223       0.48722493
H       -2.25657455       1.39267995       0.83873824
H       -2.83685288       0.00132505      -0.09497325
H       -1.87204658       1.26453002      -0.89128161
H       -0.85017014      -0.63900203       1.28830070
H        1.67846960      -2.13882530      -0.55143619
H        1.47936903      -2.04869234       0.35128841
H        2.64696432       1.60184261       0.26170206
14
Frame=8 idx=009543 GeodesicLength=0.376484549948225 rxn_smarts="[C:1]([C@@:2]1([H:11])[O:3][C:4]([H:12])([H:13])/[C:5](=[N:6]/[H:14])[O:7]1)([H:8])([H:9])[H:10]>>[C:1]([C@@:2]1([H:11])[O+:3]=[C-:4]/[C:5](=[N:6]/[H:14])[O:7]1)([H:8])([H:9])[H:10].[H:12][H:13]"
C       -2.01172667       0.70527216       0.03167911
C       -0.75984000      -0.04910177       0.36907035
O       -0.42182991      -0.95392440      -0.69526400
C        0.90143889      -0.99399378      -0.84909195
C        1.39716240       0.28323644      -0.21985702
N        2.54327783       0.77550483      -0.32025120
O        0.35222069       0.80616156       0.49394339
H       -2.25675953       1.39454228       0.83915848
H       -2.83761537       0.00619619      -0.09850711
H       -1.86809321       1.26880584      -0.89010818
H       -0.85574425      -0.64006736       1.28909324
H        1.70032275      -2.14957543      -0.55752120
H        1.47305513      -2.05910356       0.34939260
H        2.64413125       1.60604701       0.25826349
14
Frame=9 idx=009543 GeodesicLength=0.4234986587820571 rxn_smarts="[C:1]([C@@:2]1([H:11])[O:3][C:4]([H:12])([H:13])/[C:5](=[N:6]/[H:14])[O:7]1)([H:8])([H:9])[H:10]>>[C:1]([C@@:2]1([H:11])[O+:3]=[C-:4]/[C:5](=[N:6]/[H:14])[O:7]1)([H:8])([H:9])[H:10].[H:12][H:13]"
C       -2.01106945       0.70824684       0.03144498
C       -0.76180568      -0.04979818       0.37077944
O       -0.42315028      -0.95222349      -0.69525422
C        0.90287058      -0.99924392      -0.83521373
C        1.39426995       0.28630696      -0.22032166
N        2.53794671       0.78289154      -0.32779295
O        0.35206412       0.80304722       0.50124683
H       -2.25682855       1.39636320       0.83970358
H       -2.83824049       0.01138383      -0.10244300
H       -1.86362216       1.27344766      -0.88873027
H       -0.86165516      -0.64153410       1.28975348
H        1.72222348      -2.16020265      -0.56346692
H        1.46656803      -2.07031611       0.34718145
H        2.64042890       1.61163119       0.25311298
14
Frame=10 idx=009543 GeodesicLength=0.47049987311794805 rxn_smarts="[C:1]([C@@:2]1([H:11])[O:3][C:4]([H:12])([H:13])/[C:5](=[N:6]/[H:14])[O:7]1)([H:8])([H:9])[H:10]>>[C:1]([C@@:2]1([H:11])[O+:3]=[C-:4]/[C:5](=[N:6]/[H:14])[O:7]1)([H:8])([H:9])[H:10].[H:12][H:13]"
C       -2.01047438       0.71118564       0.03118967
C       -0.76378231      -0.05039965       0.37249151
O       -0.42442715      -0.95053668      -0.69514721
C        0.90421936      -1.00446068      -0.82114441
C        1.39120747       0.28949249      -0.22107037
N        2.53231719       0.79047488      -0.33587051
O        0.35187224       0.80007603       0.50833150
H       -2.25694304       1.39826208       0.84013344
H       -2.83887300       0.01646667      -0.10623791
H       -1.85930469       1.27790650      -0.88745794
H       -0.86747949      -0.64277147       1.29049568
H        1.74428061      -2.17039695      -0.56922924
H        1.46025905      -2.08166436       0.34475179
H        2.63712812       1.61636549       0.24876400
14
Frame=11 idx=009543 GeodesicLength=0.5174877071875644 rxn_smarts="[C:1]([C@@:2]1([H:11])[O:3][C:4]([H:12])([H:13])/[C:5](=[N:6]/[H:14])[O:7]1)([H:8])([H:9])[H:10]>>[C:1]([C@@:2]1([H:11])[O+:3]=[C-:4]/[C:5](=[N:6]/[H:14])[O:7]1)([H:8])([H:9])[H:10].[H:12][H:13]"
C       -2.00989620       0.71411345       0.03091334
C       -0.76576708      -0.05094365       0.37422810
O       -0.42562772      -0.94884467      -0.69495984
C        0.90551992      -1.00963069      -0.80685472
C        1.38803033       0.29270573      -0.22191066
N        2.52646702       0.79812464      -0.34419392
O        0.35166725       0.79717011       0.51533389
H       -2.25707912       1.40022121       0.84047824
H       -2.83948377       0.02150469      -0.10998334
H       -1.85502723       1.28226255      -0.88624731
H       -0.87328325      -0.64387438       1.29129772
H        1.76645005      -2.18023081      -0.57486635
H        1.45403539      -2.09327852       0.34205962
H        2.63399440       1.62070034       0.24470523
14
Frame=12 idx=009543 GeodesicLength=0.5644636044239707 rxn_smarts="[C:1]([C@@:2]1([H:11])[O:3][C:4]([H:12])([H:13])/[C:5](=[N:6]/[H:14])[O:7]1)([H:8])([H:9])[H:10]>>[C:1]([C@@:2]1([H:11])[O+:3]=[C-:4]/[C:5](=[N:6]/[H:14])[O:7]1)([H:8])([H:9])[H:10].[H:12][H:13]"
C       -2.00933015       0.71702713       0.03061293
C       -0.76775657      -0.05142863       0.37599844
O       -0.42674219      -0.94715221      -0.69467388
C        0.90677840      -1.01473491      -0.79234190
C        1.38475411       0.29592934      -0.22279217
N        2.52041739       0.80580788      -0.35268334
O        0.35144941       0.79433697       0.52226177
H       -2.25723610       1.40224356       0.84072760
H       -2.84006723       0.02649260      -0.11368222
H       -1.85078101       1.28650665      -0.88510525
H       -0.87906729      -0.64483646       1.29217181
H        1.78871192      -2.18972404      -0.58042434
H        1.44786827      -2.10517629       0.33907799
H        2.63100104       1.62470842       0.24085256
14
Frame=13 idx=009543 GeodesicLength=0.6114403786510442 rxn_smarts="[C:1]([C@@:2]1([H:11])[O:3][C:4]([H:12])([H:13])/[C:5](=[N:6]/[H:14])[O:7]1)([H:8])([H:9])[H:10]>>[C:1]([C@@:2]1([H:11])[O+:3]=[C-:4]/[C:5](=[N:6]/[H:14])[O:7]1)([H:8])([H:9])[H:10].[H:12][H:13]"
C       -2.00867284       0.71999214       0.03028888
C       -0.76975080      -0.05193931       0.37784357
O       -0.42771837      -0.94542955      -0.69432800
C        0.90804838      -1.01980242      -0.77753511
C        1.38147507       0.29899825      -0.22337941
N        2.51427374       0.81334460      -0.36094967
O        0.35126847       0.79138326       0.52940767
H       -2.25735666       1.40429410       0.84095422
H       -2.84055719       0.03158315      -0.11754008
H       -1.84630340       1.29082648      -0.88392796
H       -0.88498645      -0.64586189       1.29306271
H        1.81102653      -2.19900705      -0.58595671
H        1.44160696      -2.11760350       0.33574093
H        2.62764657       1.62922175       0.23631895
14
Frame=14 idx=009543 GeodesicLength=0.6584030407101407 rxn_smarts="[C:1]([C@@:2]1([H:11])[O:3][C:4]([H:12])([H:13])/[C:5](=[N:6]/[H:14])[O:7]1)([H:8])([H:9])[H:10]>>[C:1]([C@@:2]1([H:11])[O+:3]=[C-:4]/[C:5](=[N:6]/[H:14])[O:7]1)([H:8])([H:9])[H:10].[H:12][H:13]"
C       -2.00802710       0.72293565       0.02993474
C       -0.77174171      -0.05237837       0.37973621
O       -0.42859430      -0.94372084      -0.69384470
C        0.90928242      -1.02478147      -0.76250085
C        1.37812501       0.30205792      -0.22394893
N        2.50796854       0.82086868      -0.36929519
O        0.35107100       0.78853476       0.53646734
H       -2.25751268       1.40640622       0.84107080
H       -2.84100856       0.03660214      -0.12135387
H       -1.84186266       1.29501437      -0.88283385
H       -0.89087066      -0.64671279       1.29405343
H        1.83340644      -2.20797863      -0.59148211
H        1.43535516      -2.13031916       0.33206829
H        2.62440912       1.63347152       0.23192869
14
Frame=15 idx=009543 GeodesicLength=0.7053690684035951 rxn_smarts="[C:1]([C@@:2]1([H:11])[O:3][C:4]([H:12])([H:13])/[C:5](=[N:6]/[H:14])[O:7]1)([H:8])([H:9])[H:10]>>[C:1]([C@@:2]1([H:11])[O+:3]=[C-:4]/[C:5](=[N:6]/[H:14])[O:7]1)([H:8])([H:9])[H:10].[H:12][H:13]"
C       -2.00730442       0.72591216       0.02954935
C       -0.77372994      -0.05281717       0.38171240
O       -0.42932852      -0.94200710      -0.69325031
C        0.91052187      -1.02970563      -0.74717616
C        1.37478657       0.30497006      -0.22422128
N        2.50158357       0.82824404      -0.37742421
O        0.35089897       0.78562780       0.54368565
H       -2.25764621       1.40856564       0.84112610
H       -2.84136882       0.04168021      -0.12528298
H       -1.83723539       1.29921463      -0.88174455
H       -0.89685279      -0.64755511       1.29510215
H        1.85582551      -2.21675181      -0.59705077
H        1.42899036      -2.14352542       0.32799539
H        2.62085924       1.63814770       0.22697921
14
Frame=16 idx=009543 GeodesicLength=0.7523408548690235 rxn_smarts="[C:1]([C@@:2]1([H:11])[O:3][C:4]([H:12])([H:13])/[C:5](=[N:6]/[H:14])[O:7]1)([H:8])([H:9])[H:10]>>[C:1]([C@@:2]1([H:11])[O+:3]=[C-:4]/[C:5](=[N:6]/[H:14])[O:7]1)([H:8])([H:9])[H:10].[H:12][H:13]"
C       -2.00645249       0.72895165       0.02912909
C       -0.77571382      -0.05328959       0.38379622
O       -0.42989773      -0.94029216      -0.69253397
C        0.91178220      -1.03459992      -0.73151908
C        1.37149749       0.30766109      -0.22405172
N        2.49513215       0.83542220      -0.38523189
O        0.35076902       0.78258138       0.55118316
H       -2.25772476       1.41077035       0.84113480
H       -2.84159991       0.04689017      -0.12941484
H       -1.83229696       1.30349476      -0.88062242
H       -0.90299729      -0.64846036       1.29619530
H        1.87827965      -2.22538135      -0.60269680
H        1.42245851      -2.15731172       0.32347436
H        2.61676395       1.64356348       0.22115779
