10
Frame=0 idx=004804 GeodesicLength=0.0 rxn_smarts="[O:1]=[c:2]1[n:3]([H:7])[c:4]([H:8])[c:5]([H:9])[n:6]1[H:10]>>[O:1]=[C:2]1[N+:3]([H:7])=[C-:4][C:5]([H:8])([H:9])[N:6]1[H:10]"
O        2.34800676       0.18820409      -0.14760212
C        1.16113169       0.05010412      -0.00153525
N        0.44999392      -1.08948504       0.35237236
C       -0.91350139      -0.92349339       0.48818129
C       -1.06745247       0.41560833       0.06750336
N        0.16222088       1.00026186      -0.16706168
H        0.92530159      -1.96055647       0.50664160
H       -1.43937062      -0.59108457      -0.69511241
H       -1.97684446       0.99481357       0.12873886
H        0.35051410       1.91562749      -0.53212600
10
Frame=1 idx=004804 GeodesicLength=0.03308846345096117 rxn_smarts="[O:1]=[c:2]1[n:3]([H:7])[c:4]([H:8])[c:5]([H:9])[n:6]1[H:10]>>[O:1]=[C:2]1[N+:3]([H:7])=[C-:4][C:5]([H:8])([H:9])[N:6]1[H:10]"
O        2.34983989       0.18820157      -0.14536847
C        1.16265659       0.05314036       0.00247225
N        0.45123495      -1.08825739       0.35534323
C       -0.91089539      -0.92203327       0.48385773
C       -1.06895599       0.41484153       0.05732753
N        0.16383267       0.99950657      -0.17229323
H        0.92680388      -1.95953497       0.50809677
H       -1.45450469      -0.60125939      -0.70032263
H       -1.97398363       0.99809686       0.14084347
H        0.35397173       1.91729814      -0.52995665
10
Frame=2 idx=004804 GeodesicLength=0.06617911168568996 rxn_smarts="[O:1]=[c:2]1[n:3]([H:7])[c:4]([H:8])[c:5]([H:9])[n:6]1[H:10]>>[O:1]=[C:2]1[N+:3]([H:7])=[C-:4][C:5]([H:8])([H:9])[N:6]1[H:10]"
O        2.35162208       0.18817201      -0.14329132
C        1.16417411       0.05631246       0.00676571
N        0.45245729      -1.08691758       0.35850957
C       -0.90831327      -0.92053503       0.47937805
C       -1.07047467       0.41406184       0.04689372
N        0.16545921       0.99872248      -0.17771992
H        0.92824937      -1.95847661       0.50942303
H       -1.46992994      -0.61162939      -0.70530323
H       -1.97065306       1.00123396       0.15286758
H        0.35740888       1.91905587      -0.52752320
10
Frame=3 idx=004804 GeodesicLength=0.09928490233614665 rxn_smarts="[O:1]=[c:2]1[n:3]([H:7])[c:4]([H:8])[c:5]([H:9])[n:6]1[H:10]>>[O:1]=[C:2]1[N+:3]([H:7])=[C-:4][C:5]([H:8])([H:9])[N:6]1[H:10]"
O        2.35346277       0.18838403      -0.14043773
C        1.16567059       0.05952861       0.01096875
N        0.45366717      -1.08551865       0.36165698
C       -0.90570622      -0.91896724       0.47484994
C       -1.07198655       0.41328849       0.03628436
N        0.16709924       0.99782362      -0.18367187
H        0.92964011      -1.95745279       0.51030032
H       -1.48589275      -0.62218685      -0.70979024
H       -1.96675865       1.00429955       0.16500846
H        0.36080429       1.92080123      -0.52516898
10
Frame=4 idx=004804 GeodesicLength=0.13241617783466775 rxn_smarts="[O:1]=[c:2]1[n:3]([H:7])[c:4]([H:8])[c:5]([H:9])[n:6]1[H:10]>>[O:1]=[C:2]1[N+:3]([H:7])=[C-:4][C:5]([H:8])([H:9])[N:6]1[H:10]"
O        2.35543132       0.18901422      -0.13623792
C        1.16713733       0.06273253       0.01485938
N        0.45486732      -1.08411447       0.36458879
C       -0.90304677      -0.91732798       0.47030363
C       -1.07348263       0.41252775       0.02555671
N        0.16875144       0.99673788      -0.19039726
H        0.93099693      -1.95649118       0.51060753
H       -1.50257865      -0.63290335      -0.71360483
H       -1.96221990       1.00734403       0.17738747
H        0.36414360       1.92248057      -0.52306350
10
Frame=5 idx=004804 GeodesicLength=0.16558492708628111 rxn_smarts="[O:1]=[c:2]1[n:3]([H:7])[c:4]([H:8])[c:5]([H:9])[n:6]1[H:10]>>[O:1]=[C:2]1[N+:3]([H:7])=[C-:4][C:5]([H:8])([H:9])[N:6]1[H:10]"
O        2.35762950       0.19035640      -0.12975485
C        1.16856576       0.06585559       0.01816703
N        0.45606951      -1.08276470       0.36709637
C       -0.90029492      -0.91559587       0.46583534
C       -1.07495350       0.41179376       0.01480252
N        0.17041241       0.99536479      -0.19824449
H        0.93232599      -1.95568096       0.50995764
H       -1.52023892      -0.64375542      -0.71645091
H       -1.95691899       1.01045581       0.19018716
H        0.36740317       1.92397061      -0.52159580
10
Frame=6 idx=004804 GeodesicLength=0.19880364415204163 rxn_smarts="[O:1]=[c:2]1[n:3]([H:7])[c:4]([H:8])[c:5]([H:9])[n:6]1[H:10]>>[O:1]=[C:2]1[N+:3]([H:7])=[C-:4][C:5]([H:8])([H:9])[N:6]1[H:10]"
O        2.36007740       0.19256991      -0.12053800
C        1.16996076       0.06890148       0.02089769
N        0.45728663      -1.08149119       0.36911905
C       -0.89743395      -0.91375995       0.46150439
C       -1.07639619       0.41108759       0.00407392
N        0.17208800       0.99362614      -0.20743325
H        0.93362552      -1.95508678       0.50803564
H       -1.53900482      -0.65472723      -0.71812149
H       -1.95077190       1.01368422       0.20343571
H        0.37056854       1.92519581      -0.52097366
10
Frame=7 idx=004804 GeodesicLength=0.2320758138202752 rxn_smarts="[O:1]=[c:2]1[n:3]([H:7])[c:4]([H:8])[c:5]([H:9])[n:6]1[H:10]>>[O:1]=[C:2]1[N+:3]([H:7])=[C-:4][C:5]([H:8])([H:9])[N:6]1[H:10]"
O        2.36270172       0.19566029      -0.10867320
C        1.17132344       0.07189779       0.02315269
N        0.45852616      -1.08030972       0.37063090
C       -0.89446530      -0.91184316       0.45727481
C       -1.07781323       0.41039993      -0.00662549
N        0.17378350       0.99147681      -0.21806271
H        0.93492322      -1.95469182       0.50487719
H       -1.55888775      -0.66579214      -0.71855267
H       -1.94372397       1.01705178       0.21704026
H        0.37363222       1.92615026      -0.52106177
10
Frame=8 idx=004804 GeodesicLength=0.2653603699630263 rxn_smarts="[O:1]=[c:2]1[n:3]([H:7])[c:4]([H:8])[c:5]([H:9])[n:6]1[H:10]>>[O:1]=[C:2]1[N+:3]([H:7])=[C-:4][C:5]([H:8])([H:9])[N:6]1[H:10]"
O        2.36521303       0.19887670      -0.09670167
C        1.17266366       0.07501418       0.02562092
N        0.45977140      -1.07911057       0.37205681
C       -0.89148716      -0.90997802       0.45274307
C       -1.07922713       0.40968156      -0.01744320
N        0.17552580       0.98910690      -0.22929040
H        0.93628114      -1.95420655       0.50172595
H       -1.57933492      -0.67683987      -0.71839908
H       -1.93602498       1.02030631       0.23034203
H        0.37661917       1.92714936      -0.52065444
10
Frame=9 idx=004804 GeodesicLength=0.2987031680098105 rxn_smarts="[O:1]=[c:2]1[n:3]([H:7])[c:4]([H:8])[c:5]([H:9])[n:6]1[H:10]>>[O:1]=[C:2]1[N+:3]([H:7])=[C-:4][C:5]([H:8])([H:9])[N:6]1[H:10]"
O        2.36771048       0.20263298      -0.08329970
C        1.17397940       0.07820142       0.02808934
N        0.46104113      -1.07798283       0.37313430
C       -0.88845813      -0.90816888       0.44800177
C       -1.08061844       0.40897364      -0.02820319
N        0.17733356       0.98646588      -0.24131454
H        0.93770507      -1.95379532       0.49790607
H       -1.60060873      -0.68777648      -0.71732142
H       -1.92755005       1.02357265       0.24367827
H        0.37946571       1.92787694      -0.52067088
10
Frame=10 idx=004804 GeodesicLength=0.3320980727517192 rxn_smarts="[O:1]=[c:2]1[n:3]([H:7])[c:4]([H:8])[c:5]([H:9])[n:6]1[H:10]>>[O:1]=[C:2]1[N+:3]([H:7])=[C-:4][C:5]([H:8])([H:9])[N:6]1[H:10]"
O        2.37017798       0.20718433      -0.06768925
C        1.17526460       0.08143995       0.03049616
N        0.46235113      -1.07697587       0.37371618
C       -0.88534712      -0.90642491       0.44307512
C       -1.08197136       0.40829229      -0.03879089
N        0.17921589       0.98349965      -0.25420047
H        0.93920509      -1.95354095       0.49297559
H       -1.62285289      -0.69850818      -0.71509429
H       -1.91820108       1.02690380       0.25723190
H        0.38215776       1.92812989      -0.52172003
10
Frame=11 idx=004804 GeodesicLength=0.3655297394095116 rxn_smarts="[O:1]=[c:2]1[n:3]([H:7])[c:4]([H:8])[c:5]([H:9])[n:6]1[H:10]>>[O:1]=[C:2]1[N+:3]([H:7])=[C-:4][C:5]([H:8])([H:9])[N:6]1[H:10]"
O        2.37248743       0.21221815      -0.05088398
C        1.17651693       0.08483281       0.03328799
N        0.46369500      -1.07605242       0.37402262
C       -0.88220509      -0.90486184       0.43771672
C       -1.08329445       0.40764822      -0.04913980
N        0.18119211       0.98041553      -0.26713560
H        0.94080820      -1.95336018       0.48728719
H       -1.64574404      -0.70885647      -0.71208528
H       -1.90816546       1.03013684       0.27082984
H        0.38470938       1.92787936      -0.52389969
10
Frame=12 idx=004804 GeodesicLength=0.39899533774238527 rxn_smarts="[O:1]=[c:2]1[n:3]([H:7])[c:4]([H:8])[c:5]([H:9])[n:6]1[H:10]>>[O:1]=[C:2]1[N+:3]([H:7])=[C-:4][C:5]([H:8])([H:9])[N:6]1[H:10]"
O        2.37459061       0.21764465      -0.03315137
C        1.17773005       0.08840011       0.03657461
N        0.46507461      -1.07520247       0.37413997
C       -0.87904534      -0.90351972       0.43186041
C       -1.08458678       0.40704813      -0.05921715
N        0.18327604       0.97728037      -0.27984619
H        0.94252858      -1.95323197       0.48089226
H       -1.66918577      -0.71877119      -0.70836511
H       -1.89753579       1.03321554       0.28438569
H        0.38715378       1.92713655      -0.52727312
10
Frame=13 idx=004804 GeodesicLength=0.43248068125517863 rxn_smarts="[O:1]=[c:2]1[n:3]([H:7])[c:4]([H:8])[c:5]([H:9])[n:6]1[H:10]>>[O:1]=[C:2]1[N+:3]([H:7])=[C-:4][C:5]([H:8])([H:9])[N:6]1[H:10]"
O        2.37645412       0.22324856      -0.01514344
C        1.17889269       0.09216221       0.04045872
N        0.46648358      -1.07438984       0.37421424
C       -0.87588812      -0.90243257       0.42541058
C       -1.08585215       0.40648778      -0.06906387
N        0.18547225       0.97417045      -0.29207145
H        0.94438129      -1.95307774       0.47410750
H       -1.69303208      -0.72823716      -0.70409525
H       -1.88645143       1.03604476       0.29771795
H        0.38953985       1.92602354      -0.53153499
10
Frame=14 idx=004804 GeodesicLength=0.4659757650557154 rxn_smarts="[O:1]=[c:2]1[n:3]([H:7])[c:4]([H:8])[c:5]([H:9])[n:6]1[H:10]>>[O:1]=[C:2]1[N+:3]([H:7])=[C-:4][C:5]([H:8])([H:9])[N:6]1[H:10]"
O        2.37808063       0.22885062       0.00261414
C        1.17999412       0.09611946       0.04495352
N        0.46791520      -1.07358038       0.37436156
C       -0.87274491      -0.90161250       0.41830747
C       -1.08709113       0.40596057      -0.07874442
N        0.18778534       0.97113044      -0.30369883
H        0.94637583      -1.95282822       0.46722802
H       -1.71718685      -0.73727679      -0.69937849
H       -1.87503470       1.03855812       0.31065704
H        0.39190645       1.92467869      -0.53630000
10
Frame=15 idx=004804 GeodesicLength=0.49947687014351194 rxn_smarts="[O:1]=[c:2]1[n:3]([H:7])[c:4]([H:8])[c:5]([H:9])[n:6]1[H:10]>>[O:1]=[C:2]1[N+:3]([H:7])=[C-:4][C:5]([H:8])([H:9])[N:6]1[H:10]"
O        2.37949143       0.23444704       0.02014209
C        1.18102738       0.10023004       0.04991879
N        0.46936856      -1.07277478       0.37457469
C       -0.86960594      -0.90105933       0.41053186
C       -1.08829929       0.40546827      -0.08828358
N        0.19021609       0.96815850      -0.31477486
H        0.94852106      -1.95246664       0.46033380
H       -1.74167087      -0.74589722      -0.69417597
H       -1.86332977       1.04073811       0.32318387
H        0.39428134       1.92315601      -0.54145069
10
Frame=16 idx=004804 GeodesicLength=0.5329784445947048 rxn_smarts="[O:1]=[c:2]1[n:3]([H:7])[c:4]([H:8])[c:5]([H:9])[n:6]1[H:10]>>[O:1]=[C:2]1[N+:3]([H:7])=[C-:4][C:5]([H:8])([H:9])[N:6]1[H:10]"
O        2.38070423       0.24002548       0.03742916
C        1.18198892       0.10445285       0.05521694
N        0.47084090      -1.07197228       0.37484594
C       -0.86646171      -0.90077340       0.40205262
C       -1.08947296       0.40501224      -0.09771264
N        0.19276369       0.96525651      -0.32534451
H        0.95082389      -1.95197457       0.45353551
H       -1.76649473      -0.75410471      -0.68845793
H       -1.85137886       1.04256540       0.33528083
H        0.39668663       1.92151248      -0.54684591
