14
Frame=0 idx=011487 GeodesicLength=0.0 rxn_smarts="[C:1]([C@@:2]([C:3]#[N:4])([C:5](=[O:6])[C:7]([H:12])([H:13])[H:14])[H:11])([H:8])([H:9])[H:10]>>[C:1]([C@@:2]1([H:11])[C:3](=[O:6])[N:4]=[C:5]1[C:7]([H:12])([H:13])[H:14])([H:8])([H:9])[H:10]"
C       -1.63228139      -0.96402977       0.32399790
C       -0.92760846       0.19975442      -0.31128741
C       -0.41939295       1.44552751       0.46372921
N        0.41359402       2.06975725      -0.34257823
C        0.54526679       0.48125445      -0.08528985
O        0.18560623       0.81544013       1.50620275
C        1.88909303      -0.08155576      -0.35749894
H       -1.30014631      -1.11261498       1.34905621
H       -2.70982548      -0.79492895       0.32311298
H       -1.44089803      -1.87503561      -0.24734157
H       -1.22701065       0.46066107      -1.32175117
H        1.91776816      -1.12288653      -0.03932120
H        2.63864720       0.50078937       0.16919011
H        2.06718778      -0.02213258      -1.43022079
14
Frame=1 idx=011487 GeodesicLength=0.11681094481149891 rxn_smarts="[C:1]([C@@:2]([C:3]#[N:4])([C:5](=[O:6])[C:7]([H:12])([H:13])[H:14])[H:11])([H:8])([H:9])[H:10]>>[C:1]([C@@:2]1([H:11])[C:3](=[O:6])[N:4]=[C:5]1[C:7]([H:12])([H:13])[H:14])([H:8])([H:9])[H:10]"
C       -1.63869956      -0.95896798       0.32224696
C       -0.91794929       0.19761035      -0.30912599
C       -0.43514849       1.45033067       0.46618227
N        0.40726976       2.07520373      -0.32817697
C        0.55441650       0.46763356      -0.06473670
O        0.17590159       0.81001304       1.53133629
C        1.89612719      -0.08246295      -0.36609642
H       -1.32616100      -1.11207016       1.35285740
H       -2.71461539      -0.78043011       0.30846781
H       -1.44196969      -1.87359225      -0.24115274
H       -1.20380950       0.44273949      -1.32780719
H        1.94478884      -1.11987782      -0.03770473
H        2.64954293       0.51624002       0.13687740
H        2.05030611      -0.03236960      -1.44316740
14
Frame=2 idx=011487 GeodesicLength=0.23356847163507477 rxn_smarts="[C:1]([C@@:2]([C:3]#[N:4])([C:5](=[O:6])[C:7]([H:12])([H:13])[H:14])[H:11])([H:8])([H:9])[H:10]>>[C:1]([C@@:2]1([H:11])[C:3](=[O:6])[N:4]=[C:5]1[C:7]([H:12])([H:13])[H:14])([H:8])([H:9])[H:10]"
C       -1.64485769      -0.95380886       0.32033583
C       -0.90782789       0.19545797      -0.30663013
C       -0.45102910       1.45528641       0.46814827
N        0.40113018       2.08065352      -0.31371084
C        0.56383402       0.45368688      -0.04351868
O        0.16583820       0.80447149       1.55693126
C        1.90278788      -0.08342402      -0.37473668
H       -1.35244717      -1.11130376       1.35624943
H       -2.71890574      -0.76588313       0.29327726
H       -1.44279443      -1.87205224      -0.23494597
H       -1.18017922       0.42487370      -1.33303839
H        1.97231542      -1.11641738      -0.03628697
H        2.65946085       0.53178199       0.10352133
H        2.03267469      -0.04332256      -1.45559572
14
Frame=3 idx=011487 GeodesicLength=0.3502723390853845 rxn_smarts="[C:1]([C@@:2]([C:3]#[N:4])([C:5](=[O:6])[C:7]([H:12])([H:13])[H:14])[H:11])([H:8])([H:9])[H:10]>>[C:1]([C@@:2]1([H:11])[C:3](=[O:6])[N:4]=[C:5]1[C:7]([H:12])([H:13])[H:14])([H:8])([H:9])[H:10]"
C       -1.65072690      -0.94854904       0.31827359
C       -0.89724811       0.19331094      -0.30378555
C       -0.46701606       1.46040331       0.46957299
N        0.39517172       2.08612418      -0.29921242
C        0.57351740       0.43940614      -0.02169499
O        0.15544700       0.79879228       1.58294692
C        1.90904159      -0.08444867      -0.38339055
H       -1.37893110      -1.11032572       1.35920105
H       -2.72265827      -0.75129171       0.27759638
H       -1.44337247      -1.87040285      -0.22873131
H       -1.15618207       0.40708891      -1.33742681
H        2.00029978      -1.11249901      -0.03513849
H        2.66828029       0.54736008       0.06921931
H        2.01437721      -0.05496885      -1.46743013
14
Frame=4 idx=011487 GeodesicLength=0.4669299329160649 rxn_smarts="[C:1]([C@@:2]([C:3]#[N:4])([C:5](=[O:6])[C:7]([H:12])([H:13])[H:14])[H:11])([H:8])([H:9])[H:10]>>[C:1]([C@@:2]1([H:11])[C:3](=[O:6])[N:4]=[C:5]1[C:7]([H:12])([H:13])[H:14])([H:8])([H:9])[H:10]"
C       -1.65627922      -0.94318509       0.31606905
C       -0.88621919       0.19118628      -0.30058060
C       -0.48308512       1.46568621       0.47039664
N        0.38938617       2.09164096      -0.28471732
C        0.58346065       0.42478514       0.00065345
O        0.14478331       0.79293708       1.60933814
C        1.91485569      -0.08555134      -0.39201833
H       -1.40554416      -1.10914272       1.36169000
H       -2.72583437      -0.73666667       0.26147269
H       -1.44369975      -1.86863180      -0.22251819
H       -1.13190367       0.38942496      -1.34095034
H        2.02870103      -1.10810879      -0.03431907
H        2.67587097       0.56291416       0.03407454
H        1.99550766      -0.06728835      -1.47859065
14
Frame=5 idx=011487 GeodesicLength=0.5835224780733659 rxn_smarts="[C:1]([C@@:2]([C:3]#[N:4])([C:5](=[O:6])[C:7]([H:12])([H:13])[H:14])[H:11])([H:8])([H:9])[H:10]>>[C:1]([C@@:2]1([H:11])[C:3](=[O:6])[N:4]=[C:5]1[C:7]([H:12])([H:13])[H:14])([H:8])([H:9])[H:10]"
C       -1.66148381      -0.93771389       0.31373627
C       -0.87475621       0.18910492      -0.29700722
C       -0.49921706       1.47114414       0.47056492
N        0.38375632       2.09723181      -0.27026890
C        0.59365174       0.40982379       0.02342667
O        0.13390686       0.78687570       1.63605109
C        1.92020676      -0.08674149      -0.40057550
H       -1.43219593      -1.10776798       1.36369196
H       -2.72839723      -0.72202036       0.24497793
H       -1.44377280      -1.86672434      -0.21631918
H       -1.10743766       0.37191681      -1.34360500
H        2.05744781      -1.10324879      -0.03389842
H        2.68210561       0.57836778      -0.00176969
H        1.97618560      -0.08024811      -1.48900495
14
Frame=6 idx=011487 GeodesicLength=0.7000707385206534 rxn_smarts="[C:1]([C@@:2]([C:3]#[N:4])([C:5](=[O:6])[C:7]([H:12])([H:13])[H:14])[H:11])([H:8])([H:9])[H:10]>>[C:1]([C@@:2]1([H:11])[C:3](=[O:6])[N:4]=[C:5]1[C:7]([H:12])([H:13])[H:14])([H:8])([H:9])[H:10]"
C       -1.66631898      -0.93213177       0.31129171
C       -0.86289185       0.18709373      -0.29305931
C       -0.51540439       1.47679089       0.47002002
N        0.37825875       2.10292472      -0.25590654
C        0.60408094       0.39451479       0.04653021
O        0.12288367       0.78056804       1.66303133
C        1.92508570      -0.08803246      -0.40903169
H       -1.45880619      -1.10621144       1.36519057
H       -2.73032417      -0.70736850       0.22818923
H       -1.44359470      -1.86466546      -0.21014676
H       -1.08288187       0.35459654      -1.34539547
H        2.08647561      -1.09792201      -0.03393803
H        2.68689228       0.59365754      -0.03815192
H        1.95654519      -0.09381460      -1.49862335
14
Frame=7 idx=011487 GeodesicLength=0.8165865905594847 rxn_smarts="[C:1]([C@@:2]([C:3]#[N:4])([C:5](=[O:6])[C:7]([H:12])([H:13])[H:14])[H:11])([H:8])([H:9])[H:10]>>[C:1]([C@@:2]1([H:11])[C:3](=[O:6])[N:4]=[C:5]1[C:7]([H:12])([H:13])[H:14])([H:8])([H:9])[H:10]"
C       -1.67076419      -0.92643412       0.30875409
C       -0.85065710       0.18517792      -0.28873432
C       -0.53164815       1.48264357       0.46870625
N        0.37286711       2.10874560      -0.24166078
C        0.61473654       0.37885470       0.06986602
O        0.11178036       0.77397281       1.69022736
C        1.92949102      -0.08943086      -0.41735653
H       -1.48530123      -1.10447629       1.36617729
H       -2.73159895      -0.69272670       0.21118021
H       -1.44316099      -1.86244368      -0.20400247
H       -1.05832335       0.33748636      -1.34633835
H        2.11570343      -1.09214167      -0.03450680
H        2.69015705       0.60871877      -0.07489941
H        1.93671845      -0.10794642      -1.50741257
14
Frame=8 idx=011487 GeodesicLength=0.9330736151600054 rxn_smarts="[C:1]([C@@:2]([C:3]#[N:4])([C:5](=[O:6])[C:7]([H:12])([H:13])[H:14])[H:11])([H:8])([H:9])[H:10]>>[C:1]([C@@:2]1([H:11])[C:3](=[O:6])[N:4]=[C:5]1[C:7]([H:12])([H:13])[H:14])([H:8])([H:9])[H:10]"
C       -1.67480055      -0.92061797       0.30614126
C       -0.83808928       0.18339112      -0.28403133
C       -0.54795102       1.48871825       0.46656847
N        0.36755595       2.11472604      -0.22756359
C        0.62560747       0.36284147       0.09333720
O        0.10066681       0.76704964       1.71759360
C        1.93342705      -0.09094582      -0.42551476
H       -1.51161314      -1.10256769       1.36664787
H       -2.73220892      -0.67812132       0.19401748
H       -1.44246402      -1.86004627      -0.19789402
H       -1.03384989       0.32061718      -1.34644805
H        2.14505981      -1.08591694      -0.03565812
H        2.69183543       0.62348506      -0.11185203
H        1.91682429      -0.12261274      -1.51534398
14
Frame=9 idx=011487 GeodesicLength=1.0496879280704265 rxn_smarts="[C:1]([C@@:2]([C:3]#[N:4])([C:5](=[O:6])[C:7]([H:12])([H:13])[H:14])[H:11])([H:8])([H:9])[H:10]>>[C:1]([C@@:2]1([H:11])[C:3](=[O:6])[N:4]=[C:5]1[C:7]([H:12])([H:13])[H:14])([H:8])([H:9])[H:10]"
C       -1.67845687      -0.91466174       0.30347675
C       -0.82524761       0.18175834      -0.27894289
C       -0.56434149       1.49501872       0.46353128
N        0.36228610       2.12087715      -0.21359612
C        0.63666270       0.34643311       0.11689146
O        0.08959758       0.75967521       1.74513321
C        1.93695500      -0.09255409      -0.43350262
H       -1.53777743      -1.10045070       1.36662247
H       -2.73218481      -0.66353251       0.17675326
H       -1.44154239      -1.85745831      -0.19179358
H       -1.00948613       0.30392305      -1.34577686
H        2.17456237      -1.07919287      -0.03743849
H        2.69199322       0.63791185      -0.14893467
H        1.89697975      -0.13774723      -1.52242320
14
Frame=10 idx=011487 GeodesicLength=1.1662814849202305 rxn_smarts="[C:1]([C@@:2]([C:3]#[N:4])([C:5](=[O:6])[C:7]([H:12])([H:13])[H:14])[H:11])([H:8])([H:9])[H:10]>>[C:1]([C@@:2]1([H:11])[C:3](=[O:6])[N:4]=[C:5]1[C:7]([H:12])([H:13])[H:14])([H:8])([H:9])[H:10]"
C       -1.68169093      -0.90857152       0.30078082
C       -0.81214634       0.18030966      -0.27347843
C       -0.58082085       1.50157342       0.45956299
N        0.35703130       2.12722686      -0.19981258
C        0.64790403       0.32963316       0.14039637
O        0.07865556       0.75187897       1.77276331
C        1.94004751      -0.09429022      -0.44128884
H       -1.56365612      -1.09815180       1.36608848
H       -2.73150239      -0.64900676       0.15945414
H       -1.44036341      -1.85467209      -0.18571372
H       -0.98534057       0.28748388      -1.34431940
H        2.20405638      -1.07204817      -0.03988760
H        2.69051392       0.65194307      -0.18589874
H        1.87731190      -0.15330845      -1.52864680
14
Frame=11 idx=011487 GeodesicLength=1.2828518924998715 rxn_smarts="[C:1]([C@@:2]([C:3]#[N:4])([C:5](=[O:6])[C:7]([H:12])([H:13])[H:14])[H:11])([H:8])([H:9])[H:10]>>[C:1]([C@@:2]1([H:11])[C:3](=[O:6])[N:4]=[C:5]1[C:7]([H:12])([H:13])[H:14])([H:8])([H:9])[H:10]"
C       -1.68449786      -0.90233865       0.29807600
C       -0.79882469       0.17907999      -0.26764320
C       -0.59741378       1.50839267       0.45460463
N        0.35175309       2.13379641      -0.18622765
C        0.65931468       0.31241922       0.16375855
O        0.06791606       0.74361987       1.80045319
C        1.94272680      -0.09617468      -0.44885294
H       -1.58920731      -1.09566063       1.36506594
H       -2.73016808      -0.63456855       0.14216358
H       -1.43892261      -1.85167551      -0.17964593
H       -0.96147946       0.27131912      -1.34209973
H        2.23348969      -1.06450002      -0.04303361
H        2.68739135       0.66552950      -0.22258030
H        1.85792212      -0.16923876      -1.53403854
14
Frame=12 idx=011487 GeodesicLength=1.399397897753669 rxn_smarts="[C:1]([C@@:2]([C:3]#[N:4])([C:5](=[O:6])[C:7]([H:12])([H:13])[H:14])[H:11])([H:8])([H:9])[H:10]>>[C:1]([C@@:2]1([H:11])[C:3](=[O:6])[N:4]=[C:5]1[C:7]([H:12])([H:13])[H:14])([H:8])([H:9])[H:10]"
C       -1.68687878      -0.89595370       0.29538629
C       -0.78531798       0.17809830      -0.26144015
C       -0.61415027       1.51549253       0.44859404
N        0.34641846       2.14059926      -0.17284284
C        0.67088220       0.29475962       0.18690957
O        0.05743574       0.73485724       1.82818259
C        1.94502177      -0.09821357      -0.45619240
H       -1.61440257      -1.09296200       1.36357470
H       -2.72819695      -0.62023587       0.12491956
H       -1.43722028      -1.84845949      -0.17357006
H       -0.93794303       0.25542289      -1.33914739
H        2.26279702      -1.05657364      -0.04690631
H        2.68265240       0.67863936      -0.25883049
H        1.83890227      -0.18547092      -1.53863712
14
Frame=13 idx=011487 GeodesicLength=1.5159110615386338 rxn_smarts="[C:1]([C@@:2]([C:3]#[N:4])([C:5](=[O:6])[C:7]([H:12])([H:13])[H:14])[H:11])([H:8])([H:9])[H:10]>>[C:1]([C@@:2]1([H:11])[C:3](=[O:6])[N:4]=[C:5]1[C:7]([H:12])([H:13])[H:14])([H:8])([H:9])[H:10]"
C       -1.68883942      -0.88940581       0.29273644
C       -0.77165470       0.17738975      -0.25487131
C       -0.63106121       1.52288631       0.44146107
N        0.34099624       2.14764409      -0.15964909
C        0.68259369       0.27661195       0.20978731
O        0.04726480       0.72555457       1.85593847
C        1.94696151      -0.10040875      -0.46330931
H       -1.63922368      -1.09003364       1.36164170
H       -2.72560840      -0.60602527       0.10774454
H       -1.43525739      -1.84501865      -0.16745320
H       -0.91476059       0.23978256      -1.33549184
H        2.29192300      -1.04829381      -0.05153451
H        2.67633745       0.69124017      -0.29450731
H        1.82032870      -0.20192346      -1.54249296
14
Frame=14 idx=011487 GeodesicLength=1.632393073920787 rxn_smarts="[C:1]([C@@:2]([C:3]#[N:4])([C:5](=[O:6])[C:7]([H:12])([H:13])[H:14])[H:11])([H:8])([H:9])[H:10]>>[C:1]([C@@:2]1([H:11])[C:3](=[O:6])[N:4]=[C:5]1[C:7]([H:12])([H:13])[H:14])([H:8])([H:9])[H:10]"
C       -1.69038159      -0.88268493       0.29015498
C       -0.75785876       0.17697954      -0.24793739
C       -0.64818588       1.53059202       0.43311416
N        0.33545727       2.15494146      -0.14663638
C        0.69444145       0.25793836       0.23235383
O        0.03744151       0.71567840       1.88371666
C        1.94857510      -0.10275954      -0.47020724
H       -1.66366152      -1.08684847       1.35929052
H       -2.72241682      -0.59195898       0.09066148
H       -1.43303150      -1.84134806      -0.16125736
H       -0.89193942       0.22437264      -1.33115542
H        2.32079556      -1.03969637      -0.05697695
H        2.66850196       0.70330217      -0.32946416
H        1.80226265      -0.21850824      -1.54565674
14
Frame=15 idx=011487 GeodesicLength=1.7488401478404105 rxn_smarts="[C:1]([C@@:2]([C:3]#[N:4])([C:5](=[O:6])[C:7]([H:12])([H:13])[H:14])[H:11])([H:8])([H:9])[H:10]>>[C:1]([C@@:2]1([H:11])[C:3](=[O:6])[N:4]=[C:5]1[C:7]([H:12])([H:13])[H:14])([H:8])([H:9])[H:10]"
C       -1.69151031      -0.87577833       0.28766546
C       -0.74395083       0.17689609      -0.24064016
C       -0.66555617       1.53861756       0.42345619
N        0.32977195       2.16250064      -0.13377564
C        0.70641483       0.23868951       0.25456411
O        0.02800976       0.70518374       1.91152374
C        1.94989056      -0.10527119      -0.47688438
H       -1.68772634      -1.08336889       1.35655306
H       -2.71863810      -0.57806035       0.07367478
H       -1.43053791      -1.83744276      -0.15494466
H       -0.86949292       0.20918063      -1.32615651
H        2.34938469      -1.03079783      -0.06326018
H        2.65919766       0.71480869      -0.36358859
H        1.78474314      -0.23515751      -1.54818721
14
Frame=16 idx=011487 GeodesicLength=1.8652438019625102 rxn_smarts="[C:1]([C@@:2]([C:3]#[N:4])([C:5](=[O:6])[C:7]([H:12])([H:13])[H:14])[H:11])([H:8])([H:9])[H:10]>>[C:1]([C@@:2]1([H:11])[C:3](=[O:6])[N:4]=[C:5]1[C:7]([H:12])([H:13])[H:14])([H:8])([H:9])[H:10]"
C       -1.69223234      -0.86867189       0.28529551
C       -0.72994592       0.17716433      -0.23297623
C       -0.68320637       1.54697147       0.41237452
N        0.32391117       2.17032607      -0.12103521
C        0.71850655       0.21880689       0.27639031
O        0.01899719       0.69403271       1.93936864
C        1.95093619      -0.10793990      -0.48334890
H       -1.71142567      -1.07955822       1.35345672
H       -2.71428877      -0.56434783       0.05678945
H       -1.42777927      -1.83329768      -0.14846766
H       -0.84741508       0.19417576      -1.32050896
H        2.37764387      -1.02162252      -0.07042928
H        2.64849248       0.72574742      -0.39676392
H        1.76780597      -0.25178662      -1.55014499
