6
Frame=0 idx=001786 GeodesicLength=0.0 rxn_smarts="[O:1]=[C:2]([C:3]#[C:4][H:6])[H:5]>>[O:1]=[C:2]([C:4](=[C:3])[H:6])[H:5]"
O       -0.69406171       1.44166379       0.08036767
C       -0.66414970       0.26166878      -0.01304611
C        0.45538887      -0.87767250      -1.04518454
C        0.89241082      -0.39314993       0.02838192
H       -1.51752109      -0.40655624       0.13863746
H        1.52793283      -0.02595388       0.81084360
6
Frame=1 idx=001786 GeodesicLength=0.04136181402687844 rxn_smarts="[O:1]=[C:2]([C:3]#[C:4][H:6])[H:5]>>[O:1]=[C:2]([C:4](=[C:3])[H:6])[H:5]"
O       -0.70435049       1.44265581       0.08553726
C       -0.67045496       0.26207934      -0.01383078
C        0.45642266      -0.87304793      -1.03554078
C        0.89359927      -0.40850838       0.04548019
H       -1.53080904      -0.40167378       0.12229490
H        1.55559256      -0.02150506       0.79605922
6
Frame=2 idx=001786 GeodesicLength=0.08205052896429159 rxn_smarts="[O:1]=[C:2]([C:3]#[C:4][H:6])[H:5]>>[O:1]=[C:2]([C:4](=[C:3])[H:6])[H:5]"
O       -0.71519306       1.44364696       0.09025153
C       -0.67671012       0.26272348      -0.01480348
C        0.45773555      -0.86821700      -1.02506929
C        0.89506396      -0.42252136       0.06235710
H       -1.54324930      -0.39684706       0.10647755
H        1.58235296      -0.01878502       0.78078658
6
Frame=3 idx=001786 GeodesicLength=0.12299390655888866 rxn_smarts="[O:1]=[C:2]([C:3]#[C:4][H:6])[H:5]>>[O:1]=[C:2]([C:4](=[C:3])[H:6])[H:5]"
O       -0.72685836       1.44497304       0.09444649
C       -0.68304068       0.26367769      -0.01600316
C        0.45919618      -0.86344635      -1.01407445
C        0.89716321      -0.43506464       0.07872424
H       -1.55502611      -0.39219802       0.09130316
H        1.60856577      -0.01794173       0.76560372
6
Frame=4 idx=001786 GeodesicLength=0.16403854949766228 rxn_smarts="[O:1]=[C:2]([C:3]#[C:4][H:6])[H:5]>>[O:1]=[C:2]([C:4](=[C:3])[H:6])[H:5]"
O       -0.73931082       1.44658033       0.09804898
C       -0.68942137       0.26491929      -0.01740112
C        0.46070341      -0.85868463      -1.00265790
C        0.89990560      -0.44612116       0.09447554
H       -1.56613670      -0.38775130       0.07682353
H        1.63425988      -0.01894252       0.75071098
6
Frame=5 idx=001786 GeodesicLength=0.2053180521179496 rxn_smarts="[O:1]=[C:2]([C:3]#[C:4][H:6])[H:5]>>[O:1]=[C:2]([C:4](=[C:3])[H:6])[H:5]"
O       -0.75252461       1.44846556       0.10109626
C       -0.69588215       0.26642109      -0.01892039
C        0.46222646      -0.85389757      -0.99089711
C        0.90327550      -0.45591383       0.10971555
H       -1.57673867      -0.38349668       0.06290478
H        1.65964346      -0.02157857       0.73610091
6
Frame=6 idx=001786 GeodesicLength=0.246273798915282 rxn_smarts="[O:1]=[C:2]([C:3]#[C:4][H:6])[H:5]>>[O:1]=[C:2]([C:4](=[C:3])[H:6])[H:5]"
O       -0.76636008       1.45043339       0.10350873
C       -0.70234938       0.26812628      -0.02053792
C        0.46369094      -0.84888719      -0.97874837
C        0.90712153      -0.46439501       0.12445969
H       -1.58673131      -0.37944086       0.04956721
H        1.68462829      -0.02583661       0.72175067
6
Frame=7 idx=001786 GeodesicLength=0.2873746867839054 rxn_smarts="[O:1]=[C:2]([C:3]#[C:4][H:6])[H:5]>>[O:1]=[C:2]([C:4](=[C:3])[H:6])[H:5]"
O       -0.78088414       1.45261325       0.10537557
C       -0.70891106       0.27005859      -0.02222596
C        0.46513746      -0.84377072      -0.96635996
C        0.91154465      -0.47179711       0.13874129
H       -1.59632818      -0.37557082       0.03673614
H        1.70944127      -0.03153319       0.70773292
6
Frame=8 idx=001786 GeodesicLength=0.3285277648042743 rxn_smarts="[O:1]=[C:2]([C:3]#[C:4][H:6])[H:5]>>[O:1]=[C:2]([C:4](=[C:3])[H:6])[H:5]"
O       -0.79607251       1.45497562       0.10667077
C       -0.71557015       0.27220050      -0.02398427
C        0.46652435      -0.83845112      -0.95373177
C        0.91648901      -0.47814923       0.15262031
H       -1.60554030      -0.37191955       0.02438910
H        1.73416960      -0.03865623       0.69403587
6
Frame=9 idx=001786 GeodesicLength=0.36969035904440745 rxn_smarts="[O:1]=[C:2]([C:3]#[C:4][H:6])[H:5]>>[O:1]=[C:2]([C:4](=[C:3])[H:6])[H:5]"
O       -0.81190064       1.45749575       0.10740223
C       -0.72233550       0.27454224      -0.02578835
C        0.46787221      -0.83288256      -0.94088386
C        0.92192143      -0.48352859       0.16614859
H       -1.61441290      -0.36848227       0.01249778
H        1.75885540      -0.04714457       0.68062361
6
Frame=10 idx=001786 GeodesicLength=0.41085979469980927 rxn_smarts="[O:1]=[C:2]([C:3]#[C:4][H:6])[H:5]>>[O:1]=[C:2]([C:4](=[C:3])[H:6])[H:5]"
O       -0.82837529       1.46016888       0.10755690
C       -0.72922374       0.27708356      -0.02765510
C        0.46916939      -0.82700566      -0.92783071
C        0.92782635      -0.48795421       0.17936295
H       -1.62296570      -0.36528315       0.00106691
H        1.78356899      -0.05700942       0.66749905
6
Frame=11 idx=001786 GeodesicLength=0.45197286839117007 rxn_smarts="[O:1]=[C:2]([C:3]#[C:4][H:6])[H:5]>>[O:1]=[C:2]([C:4](=[C:3])[H:6])[H:5]"
O       -0.84548124       1.46294179       0.10717946
C       -0.73623346       0.27981143      -0.02952373
C        0.47045758      -0.82080393      -0.91452237
C        0.93417020      -0.49149103       0.19233634
H       -1.63123458      -0.36227448      -0.01000683
H        1.80832149      -0.06818379       0.65453713
6
Frame=12 idx=001786 GeodesicLength=0.49318698878845946 rxn_smarts="[O:1]=[C:2]([C:3]#[C:4][H:6])[H:5]>>[O:1]=[C:2]([C:4](=[C:3])[H:6])[H:5]"
O       -0.86324817       1.46589739       0.10624923
C       -0.74340768       0.28273615      -0.03142006
C        0.47169546      -0.81424125      -0.90101246
C        0.94099472      -0.49414403       0.20510108
H       -1.63929318      -0.35954040      -0.02071460
H        1.83325884      -0.08070786       0.64179680
6
Frame=13 idx=001786 GeodesicLength=0.534292975785754 rxn_smarts="[O:1]=[C:2]([C:3]#[C:4][H:6])[H:5]>>[O:1]=[C:2]([C:4](=[C:3])[H:6])[H:5]"
O       -0.88172758       1.46890791       0.10469007
C       -0.75073942       0.28586565      -0.03335869
C        0.47298327      -0.80719045      -0.88724809
C        0.94825092      -0.49579931       0.21762783
H       -1.64705662      -0.35702921      -0.03094884
H        1.85828943      -0.09475459       0.62923772
6
Frame=14 idx=001786 GeodesicLength=0.5754361808946971 rxn_smarts="[O:1]=[C:2]([C:3]#[C:4][H:6])[H:5]>>[O:1]=[C:2]([C:4](=[C:3])[H:6])[H:5]"
O       -0.90083628       1.47203622       0.10264519
C       -0.75823209       0.28917007      -0.03524015
C        0.47424707      -0.79974774      -0.87319284
C        0.95598189      -0.49662993       0.23005897
H       -1.65465581      -0.35474936      -0.04098440
H        1.88349521      -0.11007927       0.61671323
6
Frame=15 idx=001786 GeodesicLength=0.6164456476532367 rxn_smarts="[O:1]=[C:2]([C:3]#[C:4][H:6])[H:5]>>[O:1]=[C:2]([C:4](=[C:3])[H:6])[H:5]"
O       -0.92072491       1.47524854       0.09994529
C       -0.76590129       0.29271157      -0.03722723
C        0.47558906      -0.79173463      -0.85892393
C        0.96416235      -0.49636105       0.24225373
H       -1.66192033      -0.35277187      -0.05045035
H        1.90879513      -0.12709257       0.60440249
6
Frame=16 idx=001786 GeodesicLength=0.657497603385129 rxn_smarts="[O:1]=[C:2]([C:3]#[C:4][H:6])[H:5]>>[O:1]=[C:2]([C:4](=[C:3])[H:6])[H:5]"
O       -0.94134397       1.47852745       0.09668250
C       -0.77376545       0.29645791      -0.03922420
C        0.47698046      -0.78317932      -0.84433653
C        0.97286422      -0.49510206       0.25432688
H       -1.66899934      -0.35105462      -0.05958958
H        1.93426408      -0.14564937       0.59214094
