12
Frame=0 idx=001320 GeodesicLength=0.0 rxn_smarts="[C:1]([C@@:2]1([H:10])[C:3]([H:11])([H:12])[O:4][C:5]1=[O:6])([H:7])([H:8])[H:9]>>[C:1]([C@@:2]1([H:10])[C-:5]=[O+:6]1)([H:7])([H:8])[H:9].[C:3](=[O:4])([H:11])[H:12]"
C        1.57768482      -0.47456672      -0.09637436
C        0.14590377      -0.52387095       0.27753882
C       -1.41655125       1.61734510       0.19053095
O       -2.11938443       1.41497961      -0.76442304
C       -0.83097769      -0.99798611      -1.02279044
O       -0.99287911      -2.07786342      -0.61923834
H        2.07507614       0.03112436       0.74099016
H        2.06348529      -1.45182573      -0.18293279
H        1.74148884       0.09160060      -1.01415691
H       -0.06014427      -1.13168577       1.16507835
H       -0.47367743       2.19102799       0.11417784
H       -1.71002469       1.31172100       1.21159980
12
Frame=1 idx=001320 GeodesicLength=0.09403789053810128 rxn_smarts="[C:1]([C@@:2]1([H:10])[C:3]([H:11])([H:12])[O:4][C:5]1=[O:6])([H:7])([H:8])[H:9]>>[C:1]([C@@:2]1([H:10])[C-:5]=[O+:6]1)([H:7])([H:8])[H:9].[C:3](=[O:4])([H:11])[H:12]"
C        1.56567731      -0.46879653      -0.10472720
C        0.13674095      -0.53169492       0.28377413
C       -1.39114026       1.59786133       0.18969871
O       -2.05234625       1.40134613      -0.80372606
C       -0.85946022      -0.98362661      -0.99082800
O       -0.97717222      -2.08267188      -0.61459820
H        2.07100004       0.04424072       0.72283801
H        2.05758449      -1.44224957      -0.19599423
H        1.71181253       0.09666338      -1.02595375
H       -0.05471137      -1.12968506       1.18054679
H       -0.45970600       2.19281081       0.16526272
H       -1.74827898       1.30580219       1.19370707
12
Frame=2 idx=001320 GeodesicLength=0.18814948097733336 rxn_smarts="[C:1]([C@@:2]1([H:10])[C:3]([H:11])([H:12])[O:4][C:5]1=[O:6])([H:7])([H:8])[H:9]>>[C:1]([C@@:2]1([H:10])[C-:5]=[O+:6]1)([H:7])([H:8])[H:9].[C:3](=[O:4])([H:11])[H:12]"
C        1.55436582      -0.46360674      -0.11261937
C        0.12823342      -0.53910788       0.28958770
C       -1.36684557       1.57853764       0.19007236
O       -1.98694421       1.38707680      -0.83835079
C       -0.88616058      -0.96930648      -0.95938612
O       -0.96224725      -2.08507179      -0.61186584
H        2.06713540       0.05706631       0.70500615
H        2.05183651      -1.43354332      -0.20773806
H        1.68377024       0.10026362      -1.03734780
H       -0.04941434      -1.12715934       1.19510188
H       -0.44911975       2.19302753       0.21329240
H       -1.78460967       1.30182365       1.17424749
12
Frame=3 idx=001320 GeodesicLength=0.28236404308527857 rxn_smarts="[C:1]([C@@:2]1([H:10])[C:3]([H:11])([H:12])[O:4][C:5]1=[O:6])([H:7])([H:8])[H:9]>>[C:1]([C@@:2]1([H:10])[C-:5]=[O+:6]1)([H:7])([H:8])[H:9].[C:3](=[O:4])([H:11])[H:12]"
C        1.54370276      -0.45894107      -0.12003017
C        0.12029687      -0.54618453       0.29503153
C       -1.34367329       1.55936843       0.19158837
O       -1.92350578       1.37197782      -0.86858436
C       -0.91117633      -0.95497465      -0.92849687
O       -0.94803197      -2.08527955      -0.61100974
H        2.06343875       0.06950270       0.68760711
H        2.04626775      -1.42561415      -0.21832195
H        1.65726928       0.10264225      -1.04824879
H       -0.04428877      -1.12429322       1.20877598
H       -0.44145700       2.19200963       0.25811191
H       -1.81884227       1.29978634       1.15357699
12
Frame=4 idx=001320 GeodesicLength=0.37666815098155626 rxn_smarts="[C:1]([C@@:2]1([H:10])[C:3]([H:11])([H:12])[O:4][C:5]1=[O:6])([H:7])([H:8])[H:9]>>[C:1]([C@@:2]1([H:10])[C-:5]=[O+:6]1)([H:7])([H:8])[H:9].[C:3](=[O:4])([H:11])[H:12]"
C        1.53368952      -0.45477654      -0.12702529
C        0.11291543      -0.55292243       0.30013676
C       -1.32169562       1.54035303       0.19423218
O       -1.86199007       1.35612229      -0.89489127
C       -0.93457750      -0.94058453      -0.89815685
O       -0.93460205      -2.08342164      -0.61178764
H        2.05997284       0.08161222       0.67052662
H        2.04090887      -1.41844903      -0.22780062
H        1.63224657       0.10381465      -1.05878333
H       -0.03926106      -1.12108947       1.22165938
H       -0.43636360       2.18994701       0.30008431
H       -1.85124335       1.29939445       1.13180575
12
Frame=5 idx=001320 GeodesicLength=0.4710896096437959 rxn_smarts="[C:1]([C@@:2]1([H:10])[C:3]([H:11])([H:12])[O:4][C:5]1=[O:6])([H:7])([H:8])[H:9]>>[C:1]([C@@:2]1([H:10])[C-:5]=[O+:6]1)([H:7])([H:8])[H:9].[C:3](=[O:4])([H:11])[H:12]"
C        1.52425743      -0.45103943      -0.13358826
C        0.10600370      -0.55940463       0.30495150
C       -1.30087318       1.52148644       0.19793334
O       -1.80259922       1.33944403      -0.91754788
C       -0.95646811      -0.92614747      -0.86837459
O       -0.92187132      -2.07970321      -0.61417375
H        2.05666583       0.09338367       0.65384122
H        2.03576999      -1.41192813      -0.23628243
H        1.60857268       0.10399019      -1.06889424
H       -0.03435803      -1.11772192       1.23379676
H       -0.43340695       2.18703764       0.33914642
H       -1.88169282       1.30060283       1.10919190
12
Frame=6 idx=001320 GeodesicLength=0.5656341300672038 rxn_smarts="[C:1]([C@@:2]1([H:10])[C:3]([H:11])([H:12])[O:4][C:5]1=[O:6])([H:7])([H:8])[H:9]>>[C:1]([C@@:2]1([H:10])[C-:5]=[O+:6]1)([H:7])([H:8])[H:9].[C:3](=[O:4])([H:11])[H:12]"
C        1.51538568      -0.44769882      -0.13974545
C        0.09952744      -0.56564553       0.30949178
C       -1.28123182       1.50276237       0.20264882
O       -1.74538499       1.32197855      -0.93685846
C       -0.97689325      -0.91164662      -0.83916474
O       -0.90984191      -2.07422980      -0.61801299
H        2.05352036       0.10483122       0.63751933
H        2.03086549      -1.40600967      -0.24383130
H        1.58618119       0.10323924      -1.07860925
H       -0.02955706      -1.11421389       1.24523126
H       -0.43229161       2.18339392       0.37547368
H       -1.91027952       1.30323903       1.08585733
12
Frame=7 idx=001320 GeodesicLength=0.660310011691312 rxn_smarts="[C:1]([C@@:2]1([H:10])[C:3]([H:11])([H:12])[O:4][C:5]1=[O:6])([H:7])([H:8])[H:9]>>[C:1]([C@@:2]1([H:10])[C-:5]=[O+:6]1)([H:7])([H:8])[H:9].[C:3](=[O:4])([H:11])[H:12]"
C        1.50703624      -0.44471123      -0.14551054
C        0.09343904      -0.57167821       0.31377866
C       -1.26276243       1.48417792       0.20832200
O       -1.69040596       1.30376309      -0.95310260
C       -0.99591570      -0.89709633      -0.81053929
O       -0.89848156      -2.06713265      -0.62319046
H        2.05051178       0.11597180       0.62156006
H        2.02620065      -1.40062917      -0.25051566
H        1.56498506       0.10166421      -1.08793377
H       -0.02485234      -1.11061955       1.25600728
H       -0.43272369       2.17912291       0.40919072
H       -1.93703108       1.30716721       1.06193359
12
Frame=8 idx=001320 GeodesicLength=0.7551400267285837 rxn_smarts="[C:1]([C@@:2]1([H:10])[C:3]([H:11])([H:12])[O:4][C:5]1=[O:6])([H:7])([H:8])[H:9]>>[C:1]([C@@:2]1([H:10])[C-:5]=[O+:6]1)([H:7])([H:8])[H:9].[C:3](=[O:4])([H:11])[H:12]"
C        1.49910696      -0.44196581      -0.15083316
C        0.08762646      -0.57762869       0.31786471
C       -1.24534435       1.46572050       0.21484812
O       -1.63787526       1.28473683      -0.96652011
C       -1.01367231      -0.88259732      -0.78249115
O       -0.88767090      -2.05862402      -0.62976764
H        2.04751030       0.12683775       0.60610964
H        2.02177931      -1.39560519      -0.25644117
H        1.54480701       0.09954503      -1.09675296
H       -0.02030418      -1.10716859       1.26616532
H       -0.43424032       2.17433462       0.44013138
H       -1.96172273       1.31241487       1.03768703
12
Frame=9 idx=001320 GeodesicLength=0.8501288653031673 rxn_smarts="[C:1]([C@@:2]1([H:10])[C:3]([H:11])([H:12])[O:4][C:5]1=[O:6])([H:7])([H:8])[H:9]>>[C:1]([C@@:2]1([H:10])[C-:5]=[O+:6]1)([H:7])([H:8])[H:9].[C:3](=[O:4])([H:11])[H:12]"
C        1.49158210      -0.43945031      -0.15575800
C        0.08207616      -0.58347557       0.32175225
C       -1.22899374       1.44738766       0.22218165
O       -1.58771068       1.26501930      -0.97741195
C       -1.03020077      -0.86815466      -0.75501718
O       -0.87741061      -2.04875865      -0.63754112
H        2.04453500       0.13743739       0.59110230
H        2.01758243      -1.39092569      -0.26165780
H        1.52560060       0.09689458      -1.10512875
H       -0.01587897      -1.10380136       1.27575640
H       -0.43668715       2.16909740       0.46858046
H       -1.98449437       1.31872991       1.01314172
12
Frame=10 idx=001320 GeodesicLength=0.9452784801447487 rxn_smarts="[C:1]([C@@:2]1([H:10])[C:3]([H:11])([H:12])[O:4][C:5]1=[O:6])([H:7])([H:8])[H:9]>>[C:1]([C@@:2]1([H:10])[C-:5]=[O+:6]1)([H:7])([H:8])[H:9].[C:3](=[O:4])([H:11])[H:12]"
C        1.48440911      -0.43710468      -0.16027636
C        0.07673000      -0.58927682       0.32546327
C       -1.21365292       1.42917673       0.23024835
O       -1.53997249       1.24463046      -0.98601311
C       -1.04558681      -0.85382933      -0.72811559
O       -0.86764818      -2.03766200      -0.64646148
H        2.04153106       0.14781207       0.57657993
H        2.01361584      -1.38650029      -0.26622734
H        1.50725924       0.09384839      -1.11302814
H       -0.01159299      -1.10060360       1.28481381
H       -0.43978157       2.16345725       0.49458727
H       -2.00531029       1.32605182       0.98842940
12
Frame=11 idx=001320 GeodesicLength=1.0406153343034519 rxn_smarts="[C:1]([C@@:2]1([H:10])[C:3]([H:11])([H:12])[O:4][C:5]1=[O:6])([H:7])([H:8])[H:9]>>[C:1]([C@@:2]1([H:10])[C-:5]=[O+:6]1)([H:7])([H:8])[H:9].[C:3](=[O:4])([H:11])[H:12]"
C        1.47752075      -0.43486508      -0.16438096
C        0.07152790      -0.59508714       0.32902374
C       -1.19924361       1.41107675       0.23897002
O       -1.49467473       1.22360002      -0.99256410
C       -1.05992832      -0.83969017      -0.70175603
O       -0.85831248      -2.02543428      -0.65648395
H        2.03842356       0.15800601       0.56258079
H        2.00986555      -1.38222657      -0.27020853
H        1.48966372       0.09053425      -1.12042417
H       -0.00746296      -1.09765465       1.29337660
H       -0.44325813       2.15745161       0.51820537
H       -2.02412126       1.33428924       0.96366121
12
Frame=12 idx=001320 GeodesicLength=1.1361490784341037 rxn_smarts="[C:1]([C@@:2]1([H:10])[C:3]([H:11])([H:12])[O:4][C:5]1=[O:6])([H:7])([H:8])[H:9]>>[C:1]([C@@:2]1([H:10])[C-:5]=[O+:6]1)([H:7])([H:8])[H:9].[C:3](=[O:4])([H:11])[H:12]"
C        1.47088284      -0.43269844      -0.16808757
C        0.06643879      -0.60091992       0.33244312
C       -1.18572988       1.39308653       0.24828444
O       -1.45176475       1.20199324      -0.99730055
C       -1.07329054      -0.82577580      -0.67592638
O       -0.84937891      -2.01213983      -0.66749666
H        2.03519299       0.16804573       0.54909591
H        2.00631538      -1.37805879      -0.27364882
H        1.47274586       0.08701478      -1.12733021
H       -0.00348626      -1.09495357       1.30148340
H       -0.44695694       2.15111086       0.53959020
H       -2.04096858       1.34329519       0.93889312
12
Frame=13 idx=001320 GeodesicLength=1.2318994642268564 rxn_smarts="[C:1]([C@@:2]1([H:10])[C:3]([H:11])([H:12])[O:4][C:5]1=[O:6])([H:7])([H:8])[H:9]>>[C:1]([C@@:2]1([H:10])[C-:5]=[O+:6]1)([H:7])([H:8])[H:9].[C:3](=[O:4])([H:11])[H:12]"
C        1.46444814      -0.43055961      -0.17139887
C        0.06142156      -0.60680586       0.33573693
C       -1.17305156       1.37520194       0.25812080
O       -1.41120540       1.17984989      -1.00044005
C       -1.08575517      -0.81213786      -0.65060172
O       -0.84080572      -1.99784298      -0.67943007
H        2.03179477       0.17796832       0.53614033
H        2.00294982      -1.37392935      -0.27659383
H        1.45642010       0.08337486      -1.13373987
H        0.00032875      -1.09253088       1.30916953
H       -0.45069762       2.14445341       0.55883641
H       -2.05584767       1.35295812       0.91420041
12
Frame=14 idx=001320 GeodesicLength=1.3278851733800654 rxn_smarts="[C:1]([C@@:2]1([H:10])[C:3]([H:11])([H:12])[O:4][C:5]1=[O:6])([H:7])([H:8])[H:9]>>[C:1]([C@@:2]1([H:10])[C-:5]=[O+:6]1)([H:7])([H:8])[H:9].[C:3](=[O:4])([H:11])[H:12]"
C        1.45818049      -0.42841503      -0.17432413
C        0.05644559      -0.61276031       0.33891393
C       -1.16116002       1.35742311       0.26841275
O       -1.37293549       1.15721677      -1.00218812
C       -1.09739004      -0.79881424      -0.62576482
O       -0.83256772      -1.98259078      -0.69219439
H        2.02820201       0.18780097       0.52371598
H        1.99974997      -1.36979132      -0.27908477
H        1.44062138       0.07967736      -1.13965757
H        0.00397773      -1.09038676       1.31646811
H       -0.45434499       2.13749266       0.57606088
H       -2.06877890       1.36314758       0.88964215
12
Frame=15 idx=001320 GeodesicLength=1.4241316174909555 rxn_smarts="[C:1]([C@@:2]1([H:10])[C:3]([H:11])([H:12])[O:4][C:5]1=[O:6])([H:7])([H:8])[H:9]>>[C:1]([C@@:2]1([H:10])[C-:5]=[O+:6]1)([H:7])([H:8])[H:9].[C:3](=[O:4])([H:11])[H:12]"
C        1.45203889      -0.42622598      -0.17686501
C        0.05147680      -0.61880640       0.34198452
C       -1.14999313       1.33974873       0.27908933
O       -1.33690419       1.13412351      -1.00273530
C       -1.10826970      -0.78584653      -0.60139302
O       -0.82463540      -1.96642358      -0.70572317
H        2.02437624       0.19757647       0.51183821
H        1.99669779      -1.36558848      -0.28115820
H        1.42527968       0.07599400      -1.14507783
H        0.00745052      -1.08853509       1.32340910
H       -0.45775737       2.13023331       0.59134205
H       -2.07976013       1.37375004       0.86528932
12
Frame=16 idx=001320 GeodesicLength=1.5206667204196664 rxn_smarts="[C:1]([C@@:2]1([H:10])[C:3]([H:11])([H:12])[O:4][C:5]1=[O:6])([H:7])([H:8])[H:9]>>[C:1]([C@@:2]1([H:10])[C-:5]=[O+:6]1)([H:7])([H:8])[H:9].[C:3](=[O:4])([H:11])[H:12]"
C        1.44598763      -0.42395950      -0.17902445
C        0.04648604      -0.62496113       0.34495515
C       -1.13949074       1.32218057       0.29008039
O       -1.30305333       1.11059845      -1.00226057
C       -1.11846097      -0.77326793      -0.57746801
O       -0.81698756      -1.94937024      -0.71994538
H        2.02028498       0.20732331       0.50051897
H        1.99377438      -1.36127452      -0.28284563
H        1.41033631       0.07238586      -1.14999849
H        0.01073681      -1.08697708       1.33001950
H       -0.46081598       2.12267747       0.60475649
H       -2.08879758       1.38464474       0.84121203
