15
Frame=0 idx=011495 GeodesicLength=0.0 rxn_smarts="[O:1]([C@@:2]1([H:9])[C:3]([H:10])([H:11])[C@:4]2([C:5]([H:12])([H:13])[O:6]2)[C:7]1([H:14])[H:15])[H:8]>>[O:1]=[C:2]([C:3]([C@@:4]1([C:7]([H:8])([H:14])[H:15])[C:5]([H:12])([H:13])[O:6]1)([H:10])[H:11])[H:9]"
O       -2.39821051       0.19751288       1.09031868
C       -1.33181048      -0.41670056       0.61139297
C       -0.87023519      -0.28871599      -0.83695202
C        0.50569014       0.17469550      -0.41691808
C        1.77934516      -0.38529373      -0.84826703
O        1.35112159       0.90348731      -1.27275528
C        0.19832026       0.65656176       0.98391165
H       -1.19352771       0.66414774       1.35068198
H       -1.01375723      -1.35643046       1.08880193
H       -1.42583630       0.51247106      -1.32582973
H       -0.93086164      -1.20439179      -1.42400847
H        2.62454454      -0.39013372      -0.16548635
H        1.79544780      -1.14695990      -1.62303895
H        0.06024287       1.74581683       0.99665579
H        0.84952666       0.33393312       1.79149286
15
Frame=1 idx=011495 GeodesicLength=0.10523486104862446 rxn_smarts="[O:1]([C@@:2]1([H:9])[C:3]([H:10])([H:11])[C@:4]2([C:5]([H:12])([H:13])[O:6]2)[C:7]1([H:14])[H:15])[H:8]>>[O:1]=[C:2]([C:3]([C@@:4]1([C:7]([H:8])([H:14])[H:15])[C:5]([H:12])([H:13])[O:6]1)([H:10])[H:11])[H:9]"
O       -2.40154652       0.22610768       1.09982413
C       -1.35181541      -0.40370974       0.60890811
C       -0.86223006      -0.31035897      -0.83110698
C        0.50668551       0.17148059      -0.41333533
C        1.78547345      -0.36534887      -0.85854950
O        1.33212253       0.91720867      -1.27532920
C        0.20512729       0.64509906       0.99043743
H       -1.19117527       0.69833985       1.36538859
H       -1.09630989      -1.36871563       1.07444691
H       -1.41448118       0.47254718      -1.35249104
H       -0.91281172      -1.24069794      -1.39591639
H        2.63772191      -0.35738898      -0.18457892
H        1.80889176      -1.12413282      -1.63597424
H        0.10418390       1.73793076       1.01340670
H        0.85016369       0.30163915       1.79486973
15
Frame=2 idx=011495 GeodesicLength=0.21027299765141366 rxn_smarts="[O:1]([C@@:2]1([H:9])[C:3]([H:10])([H:11])[C@:4]2([C:5]([H:12])([H:13])[O:6]2)[C:7]1([H:14])[H:15])[H:8]>>[O:1]=[C:2]([C:3]([C@@:4]1([C:7]([H:8])([H:14])[H:15])[C:5]([H:12])([H:13])[O:6]1)([H:10])[H:11])[H:9]"
O       -2.40362787       0.25583764       1.10884924
C       -1.37169754      -0.39064164       0.60594118
C       -0.85378379      -0.33304112      -0.82443552
C        0.50773059       0.16832976      -0.40971433
C        1.79133357      -0.34439067      -0.86916854
O        1.31211778       0.93126574      -1.27771510
C        0.21198604       0.63309669       0.99718631
H       -1.18735212       0.73317841       1.38037645
H       -1.18285604      -1.37803760       1.05752486
H       -1.40249692       0.42948065      -1.37889503
H       -0.89342571      -1.27808192      -1.36549939
H        2.65037871      -0.32314207      -0.20413674
H        1.82210321      -1.10007587      -1.64936721
H        0.14913108       1.72817828       1.03120586
H        0.85045900       0.26804372       1.79784797
15
Frame=3 idx=011495 GeodesicLength=0.31508210389398833 rxn_smarts="[O:1]([C@@:2]1([H:9])[C:3]([H:10])([H:11])[C@:4]2([C:5]([H:12])([H:13])[O:6]2)[C:7]1([H:14])[H:15])[H:8]>>[O:1]=[C:2]([C:3]([C@@:4]1([C:7]([H:8])([H:14])[H:15])[C:5]([H:12])([H:13])[O:6]1)([H:10])[H:11])[H:9]"
O       -2.40432342       0.28660377       1.11736231
C       -1.39143135      -0.37757553       0.60244444
C       -0.84486231      -0.35678752      -0.81685844
C        0.50881192       0.16525090      -0.40603930
C        1.79684602      -0.32239710      -0.88012137
O        1.29103258       0.94562615      -1.27988645
C        0.21889007       0.62057118       1.00416281
H       -1.18194347       0.76853360       1.39577302
H       -1.27339165      -1.38395624       1.03754816
H       -1.38978032       0.38311049      -1.40487870
H       -0.87260577      -1.31650764      -1.33252723
H        2.66240936      -0.28737404      -0.22415000
H        1.83496457      -1.07477857      -1.66320115
H        0.19497819       1.71646084       1.04999251
H        0.85040558       0.23321971       1.80037939
15
Frame=4 idx=011495 GeodesicLength=0.4196263182492468 rxn_smarts="[O:1]([C@@:2]1([H:9])[C:3]([H:10])([H:11])[C@:4]2([C:5]([H:12])([H:13])[O:6]2)[C:7]1([H:14])[H:15])[H:8]>>[O:1]=[C:2]([C:3]([C@@:4]1([C:7]([H:8])([H:14])[H:15])[C:5]([H:12])([H:13])[O:6]1)([H:10])[H:11])[H:9]"
O       -2.40349612       0.31819995       1.12539562
C       -1.41098304      -0.36461320       0.59836552
C       -0.83543673      -0.38159536      -0.80830155
C        0.50991442       0.16224977      -0.40229026
C        1.80191643      -0.29938097      -0.89139267
O        1.26880970       0.96023086      -1.28181342
C        0.22582748       0.60757142       1.01136550
H       -1.17485081       0.80424989       1.41172968
H       -1.36780099      -1.38599997       1.01391663
H       -1.37621163       0.33332654      -1.43024943
H       -0.85027910      -1.35589056      -1.29676731
H        2.67369091      -0.25012080      -0.24458923
H        1.84732786      -1.04827402      -1.67744250
H        0.24156358       1.70272594       1.06964915
H        0.85000804       0.19732051       1.80242426
15
Frame=5 idx=011495 GeodesicLength=0.5238049720367961 rxn_smarts="[O:1]([C@@:2]1([H:9])[C:3]([H:10])([H:11])[C@:4]2([C:5]([H:12])([H:13])[O:6]2)[C:7]1([H:14])[H:15])[H:8]>>[O:1]=[C:2]([C:3]([C@@:4]1([C:7]([H:8])([H:14])[H:15])[C:5]([H:12])([H:13])[O:6]1)([H:10])[H:11])[H:9]"
O       -2.40101830       0.35030295       1.13305413
C       -1.43033070      -0.35187577       0.59362167
C       -0.82548490      -0.40742455      -0.79870772
C        0.51101748       0.15932042      -0.39844403
C        1.80643771      -0.27539790      -0.90295071
O        1.24541572       0.97498421      -1.28345156
C        0.23276592       0.59416342       1.01877770
H       -1.16601552       0.84012392       1.42841325
H       -1.46576247      -1.38361837       0.98600329
H       -1.36165052       0.28009514      -1.45478523
H       -0.82641568      -1.39607581      -1.25800051
H        2.68407965      -0.21149217      -0.26540092
H        1.85902877      -1.02062632      -1.69204950
H        0.28866255       1.68695292       1.08998090
H        0.84927029       0.16056790       1.80393926
15
Frame=6 idx=011495 GeodesicLength=0.6276014231179502 rxn_smarts="[O:1]([C@@:2]1([H:9])[C:3]([H:10])([H:11])[C@:4]2([C:5]([H:12])([H:13])[O:6]2)[C:7]1([H:14])[H:15])[H:8]>>[O:1]=[C:2]([C:3]([C@@:4]1([C:7]([H:8])([H:14])[H:15])[C:5]([H:12])([H:13])[O:6]1)([H:10])[H:11])[H:9]"
O       -2.39674567       0.38235017       1.14064943
C       -1.44939703      -0.33953312       0.58818395
C       -0.81500526      -0.43418146      -0.78802711
C        0.51210604       0.15645816      -0.39447620
C        1.81029904      -0.25057340      -0.91473407
O        1.22085399       0.98972925      -1.28480374
C        0.23968187       0.58050898       1.02636840
H       -1.15540739       0.87599854       1.44598302
H       -1.56689566      -1.37637446       0.95287767
H       -1.34597327       0.22351426      -1.47819886
H       -0.80106412      -1.43681986      -1.21605978
H        2.69343924      -0.17164116      -0.28650203
H        1.86987392      -0.99205131      -1.70688614
H        0.33600114       1.66926645       1.11071163
H        0.84823317       0.12334895       1.80491384
15
Frame=7 idx=011495 GeodesicLength=0.7309844016624707 rxn_smarts="[O:1]([C@@:2]1([H:9])[C:3]([H:10])([H:11])[C@:4]2([C:5]([H:12])([H:13])[O:6]2)[C:7]1([H:14])[H:15])[H:8]>>[O:1]=[C:2]([C:3]([C@@:4]1([C:7]([H:8])([H:14])[H:15])[C:5]([H:12])([H:13])[O:6]1)([H:10])[H:11])[H:9]"
O       -2.39055319       0.41362187       1.14864069
C       -1.46810768      -0.32778844       0.58203556
C       -0.80400559      -0.46175141      -0.77622001
C        0.51316419       0.15363895      -0.39035522
C        1.81339325      -0.22507615      -0.92666986
O        1.19514472       1.00427004      -1.28587910
C        0.24654579       0.56679461       1.03409810
H       -1.14304343       0.91172849       1.46457719
H       -1.67071548      -1.36376597       0.91351151
H       -1.32905414       0.16375828      -1.50018533
H       -0.77433759      -1.47783238      -1.17079586
H        2.70164474      -0.13075438      -0.30781298
H        1.87968300      -0.96280853      -1.72180459
H        0.38328765       1.64985553       1.13150460
H        0.84695377       0.08610951       1.80535530
15
Frame=8 idx=011495 GeodesicLength=0.8339414523606405 rxn_smarts="[O:1]([C@@:2]1([H:9])[C:3]([H:10])([H:11])[C@:4]2([C:5]([H:12])([H:13])[O:6]2)[C:7]1([H:14])[H:15])[H:8]>>[O:1]=[C:2]([C:3]([C@@:4]1([C:7]([H:8])([H:14])[H:15])[C:5]([H:12])([H:13])[O:6]1)([H:10])[H:11])[H:9]"
O       -2.38233712       0.44304658       1.15779526
C       -1.48636025      -0.31693218       0.57521755
C       -0.79252460      -0.48994106      -0.76327977
C        0.51417852       0.15083754      -0.38605237
C        1.81561942      -0.19918414      -0.93865088
O        1.16838853       1.01833630      -1.28671816
C        0.25331445       0.55330354       1.04190398
H       -1.12901909       0.94723433       1.48427546
H       -1.77651585      -1.34529967       0.86667233
H       -1.31080535       0.10120368      -1.52039749
H       -0.74647004      -1.51870411      -1.12219453
H        2.70857966      -0.08914342      -0.32921861
H        1.88827090      -0.93331751      -1.73658403
H        0.43015366       1.62907524       1.15192710
H        0.84552716       0.04948490       1.80530415
15
Frame=9 idx=011495 GeodesicLength=0.9364655437801683 rxn_smarts="[O:1]([C@@:2]1([H:9])[C:3]([H:10])([H:11])[C@:4]2([C:5]([H:12])([H:13])[O:6]2)[C:7]1([H:14])[H:15])[H:8]>>[O:1]=[C:2]([C:3]([C@@:4]1([C:7]([H:8])([H:14])[H:15])[C:5]([H:12])([H:13])[O:6]1)([H:10])[H:11])[H:9]"
O       -2.37203689       0.46981225       1.16872996
C       -1.50416639      -0.30716308       0.56768977
C       -0.78055876      -0.51876949      -0.74916819
C        0.51511437       0.14796794      -0.38151984
C        1.81687955      -0.17300958      -0.95064186
O        1.14051479       1.03176383      -1.28733065
C        0.25996814       0.54012671       1.04978603
H       -1.11338573       0.98245475       1.50511488
H       -1.88382116      -1.32001818       0.81134183
H       -1.29103961       0.03587135      -1.53866879
H       -0.71764969      -1.55929757      -1.06996885
H        2.71415959      -0.04682986      -0.35073963
H        1.89553576      -0.90369595      -1.75119327
H        0.47648902       1.60706726       1.17172985
H        0.84399699       0.01371961       1.80483876
15
Frame=10 idx=011495 GeodesicLength=1.0384704359032075 rxn_smarts="[O:1]([C@@:2]1([H:9])[C:3]([H:10])([H:11])[C@:4]2([C:5]([H:12])([H:13])[O:6]2)[C:7]1([H:14])[H:15])[H:8]>>[O:1]=[C:2]([C:3]([C@@:4]1([C:7]([H:8])([H:14])[H:15])[C:5]([H:12])([H:13])[O:6]1)([H:10])[H:11])[H:9]"
O       -2.35960381       0.49125438       1.18351750
C       -1.52128044      -0.29916619       0.55971824
C       -0.76831080      -0.54758609      -0.73409674
C        0.51597003       0.14504925      -0.37676979
C        1.81711076      -0.14735327      -0.96234434
O        1.11208939       1.04396343      -1.28787416
C        0.26635931       0.52802198       1.05753071
H       -1.09659567       1.01760776       1.52681326
H       -1.99069884      -1.28768310       0.74590210
H       -1.26994308      -0.03076810      -1.55445912
H       -0.68862675      -1.59857316      -1.01505141
H        2.71826196      -0.00488653      -0.37195991
H        1.90125090      -0.87513392      -1.76501561
H        0.52144742       1.58490041       1.19001034
H        0.84256963      -0.01964685       1.80407893
15
Frame=11 idx=011495 GeodesicLength=1.1398027425794943 rxn_smarts="[O:1]([C@@:2]1([H:9])[C:3]([H:10])([H:11])[C@:4]2([C:5]([H:12])([H:13])[O:6]2)[C:7]1([H:14])[H:15])[H:8]>>[O:1]=[C:2]([C:3]([C@@:4]1([C:7]([H:8])([H:14])[H:15])[C:5]([H:12])([H:13])[O:6]1)([H:10])[H:11])[H:9]"
O       -2.34507949       0.50625073       1.20313223
C       -1.53798376      -0.29297897       0.55098960
C       -0.75582616      -0.57651476      -0.71820431
C        0.51666753       0.14194168      -0.37180303
C        1.81627981      -0.12228182      -0.97372050
O        1.08306105       1.05484538      -1.28836546
C        0.27238824       0.51694906       1.06510352
H       -1.07886925       1.05270451       1.54918207
H       -2.09605678      -1.24670694       0.67025290
H       -1.24728128      -0.09873807      -1.56801318
H       -0.65982159      -1.63657173      -0.95730852
H        2.72085622       0.03672181      -0.39285493
H        1.90550117      -0.84759023      -1.77810770
H        0.56500300       1.56263125       1.20660901
H        0.84116129      -0.05066192       1.80310831
15
Frame=12 idx=011495 GeodesicLength=1.2404438625874634 rxn_smarts="[O:1]([C@@:2]1([H:9])[C:3]([H:10])([H:11])[C@:4]2([C:5]([H:12])([H:13])[O:6]2)[C:7]1([H:14])[H:15])[H:8]>>[O:1]=[C:2]([C:3]([C@@:4]1([C:7]([H:8])([H:14])[H:15])[C:5]([H:12])([H:13])[O:6]1)([H:10])[H:11])[H:9]"
O       -2.32813377       0.51061180       1.23098643
C       -1.55401493      -0.28944866       0.54193877
C       -0.74336459      -0.60481737      -0.70184635
C        0.51719575       0.13868196      -0.36666117
C        1.81442461      -0.09882547      -0.98442193
O        1.05418069       1.06372406      -1.28907511
C        0.27781933       0.50789643       1.07223363
H       -1.06100944       1.08840341       1.57145164
H       -2.19782637      -1.19614780       0.58264289
H       -1.22346088      -0.16617687      -1.57893339
H       -0.63213784      -1.67224402      -0.89832122
H        2.72194326       0.07663755      -0.41295778
H        1.90820065      -0.82262915      -1.78968623
H        0.60613128       1.54175567       1.22053404
H        0.84005224      -0.07742156       1.80211578
15
Frame=13 idx=011495 GeodesicLength=1.3402706499133077 rxn_smarts="[O:1]([C@@:2]1([H:9])[C:3]([H:10])([H:11])[C@:4]2([C:5]([H:12])([H:13])[O:6]2)[C:7]1([H:14])[H:15])[H:8]>>[O:1]=[C:2]([C:3]([C@@:4]1([C:7]([H:8])([H:14])[H:15])[C:5]([H:12])([H:13])[O:6]1)([H:10])[H:11])[H:9]"
O       -2.30828506       0.50282093       1.26811739
C       -1.56986091      -0.28821876       0.53189765
C       -0.73086698      -0.63320907      -0.68511938
C        0.51745633       0.13499846      -0.36141433
C        1.81159769      -0.07669295      -0.99453370
O        1.02510032       1.07063392      -1.29017045
C        0.28257117       0.50056530       1.07887815
H       -1.04336182       1.12405730       1.59388121
H       -2.29580096      -1.13203614       0.48334210
H       -1.19789835      -0.23418428      -1.58799561
H       -0.60594320      -1.70642781      -0.83738248
H        2.72156257       0.11565752      -0.43243023
H        1.90975166      -0.79974331      -1.79999124
H        0.64476428       1.52214983       1.23179934
H        0.83921326      -0.10037094       1.80112159
15
Frame=14 idx=011495 GeodesicLength=1.4389540206899016 rxn_smarts="[O:1]([C@@:2]1([H:9])[C:3]([H:10])([H:11])[C@:4]2([C:5]([H:12])([H:13])[O:6]2)[C:7]1([H:14])[H:15])[H:8]>>[O:1]=[C:2]([C:3]([C@@:4]1([C:7]([H:8])([H:14])[H:15])[C:5]([H:12])([H:13])[O:6]1)([H:10])[H:11])[H:9]"
O       -2.28414823       0.47637428       1.31845068
C       -1.58527514      -0.28992578       0.52100482
C       -0.71855229      -0.66120714      -0.66845921
C        0.51740733       0.13087786      -0.35619170
C        1.80793908      -0.05707685      -1.00371717
O        0.99654550       1.07475606      -1.29208609
C        0.28628504       0.49621420       1.08453537
H       -1.02762191       1.15875996       1.61670246
H       -2.38786610      -1.04967619       0.37094260
H       -1.17098658      -0.30122488      -1.59507209
H       -0.58204611      -1.73847958      -0.77631571
H        2.71981637       0.15220014      -0.45077784
H        1.91024380      -0.78081110      -1.80808703
H        0.67884563       1.50608840       1.23893388
H        0.83941362      -0.11686939       1.80013702
15
Frame=15 idx=011495 GeodesicLength=1.5360977983427975 rxn_smarts="[O:1]([C@@:2]1([H:9])[C:3]([H:10])([H:11])[C@:4]2([C:5]([H:12])([H:13])[O:6]2)[C:7]1([H:14])[H:15])[H:8]>>[O:1]=[C:2]([C:3]([C@@:4]1([C:7]([H:8])([H:14])[H:15])[C:5]([H:12])([H:13])[O:6]1)([H:10])[H:11])[H:9]"
O       -2.25495751       0.42952281       1.37916648
C       -1.60041178      -0.29426438       0.50864314
C       -0.70631366      -0.69027942      -0.65182105
C        0.51694409       0.12574435      -0.35123066
C        1.80353138      -0.03959100      -1.01238225
O        0.96798628       1.07585824      -1.29543116
C        0.28886636       0.49464712       1.08906609
H       -1.01515026       1.18782635       1.64383210
H       -2.47263405      -0.93986387       0.24760491
H       -1.14179819      -0.36968251      -1.60105599
H       -0.56096916      -1.76998167      -0.71414134
H        2.71668633       0.18743039      -0.46850094
H        1.91023133      -0.76530892      -1.81448848
H        0.70670111       1.49445832       1.24153652
H        0.84128771      -0.12651581       1.79920264
15
Frame=16 idx=011495 GeodesicLength=1.6303199755026418 rxn_smarts="[O:1]([C@@:2]1([H:9])[C:3]([H:10])([H:11])[C@:4]2([C:5]([H:12])([H:13])[O:6]2)[C:7]1([H:14])[H:15])[H:8]>>[O:1]=[C:2]([C:3]([C@@:4]1([C:7]([H:8])([H:14])[H:15])[C:5]([H:12])([H:13])[O:6]1)([H:10])[H:11])[H:9]"
O       -2.22267583       0.36487306       1.44031580
C       -1.61437637      -0.30173271       0.49515236
C       -0.69423943      -0.72069443      -0.63525494
C        0.51566121       0.11930347      -0.34654781
C        1.79776042      -0.02460939      -1.02077607
O        0.93851244       1.07369172      -1.29975107
C        0.28985620       0.49584816       1.09197553
H       -1.00775722       1.20508622       1.68027177
H       -2.54153951      -0.79763784       0.12078882
H       -1.11080904      -0.43969189      -1.60543089
H       -0.54209978      -1.80097716      -0.65193970
H        2.71146868       0.22012992      -0.48580818
H        1.90904936      -0.75330040      -1.81948219
H        0.72569566       1.48835317       1.23891337
H        0.84549323      -0.12864190       1.79757321
