14
Frame=0 idx=004542 GeodesicLength=0.0 rxn_smarts="[C:1]([O:2][C:3]([C:4]([C:5]#[C:6][H:14])([H:12])[H:13])([H:10])[H:11])([H:7])([H:8])[H:9]>>[C:1]([O:2][C:3]([C:6](=[C:5]=[C:4]([H:12])[H:13])[H:14])([H:10])[H:11])([H:7])([H:8])[H:9]"
C       -2.28164619       0.78483041      -0.66636612
O       -1.54759231       0.66773731       0.55045624
C       -0.31257543       0.24772599       0.44213494
C        1.47167901      -1.69017621       0.40843322
C        2.09771801      -0.49779590       0.24404674
C        2.18441989       0.73269324       0.12702821
H       -1.82614451       1.54510528      -1.30355955
H       -2.30166449      -0.17556891      -1.18507752
H       -3.29150292       1.08174448      -0.39662177
H        0.21918137       0.18000943       1.36805474
H        0.06871470       0.00155716      -0.52941666
H        1.45738181      -2.16597441       1.38199067
H        1.29927659      -2.33539287      -0.44522860
H        2.76275447       1.62350503       0.00412548
14
Frame=1 idx=004542 GeodesicLength=0.05877362580986198 rxn_smarts="[C:1]([O:2][C:3]([C:4]([C:5]#[C:6][H:14])([H:12])[H:13])([H:10])[H:11])([H:7])([H:8])[H:9]>>[C:1]([O:2][C:3]([C:6](=[C:5]=[C:4]([H:12])[H:13])[H:14])([H:10])[H:11])([H:7])([H:8])[H:9]"
C       -2.27374876       0.80541671      -0.66389518
O       -1.55672250       0.59364566       0.54795261
C       -0.30327791       0.21446110       0.42646381
C        1.47815648      -1.68961625       0.43553867
C        2.10563688      -0.49999559       0.24420620
C        2.15976617       0.73137785       0.10862999
H       -1.81657430       1.61550858      -1.23567451
H       -2.28146529      -0.11195906      -1.25645267
H       -3.28911868       1.07497210      -0.38551354
H        0.20819096       0.17207932       1.36739386
H        0.05477405      -0.03022675      -0.55633372
H        1.47771176      -2.14735017       1.41804171
H        1.31644428      -2.35692773      -0.40329522
H        2.72022687       1.62861425      -0.04706201
14
Frame=2 idx=004542 GeodesicLength=0.11721071758959312 rxn_smarts="[C:1]([O:2][C:3]([C:4]([C:5]#[C:6][H:14])([H:12])[H:13])([H:10])[H:11])([H:7])([H:8])[H:9]>>[C:1]([O:2][C:3]([C:6](=[C:5]=[C:4]([H:12])[H:13])[H:14])([H:10])[H:11])([H:7])([H:8])[H:9]"
C       -2.26633890       0.82268727      -0.65983465
O       -1.56389706       0.52061217       0.53912518
C       -0.29191983       0.18681367       0.40852639
C        1.48153122      -1.68744523       0.46141482
C        2.11380558      -0.50240514       0.24621151
C        2.13907707       0.72871659       0.09254662
H       -1.81201386       1.67886466      -1.16321010
H       -2.25797667      -0.04619698      -1.32209793
H       -3.28789998       1.06069032      -0.37479774
H        0.19640224       0.16792885       1.36458433
H        0.04374366      -0.05678006      -0.58455495
H        1.49092122      -2.12780633       1.45199242
H        1.33084522      -2.37505673      -0.36313101
H        2.68372010       1.62937695      -0.09677490
14
Frame=3 idx=004542 GeodesicLength=0.17577896844857563 rxn_smarts="[C:1]([O:2][C:3]([C:4]([C:5]#[C:6][H:14])([H:12])[H:13])([H:10])[H:11])([H:7])([H:8])[H:9]>>[C:1]([O:2][C:3]([C:6](=[C:5]=[C:4]([H:12])[H:13])[H:14])([H:10])[H:11])([H:7])([H:8])[H:9]"
C       -2.25844658       0.83980638      -0.65478197
O       -1.56933556       0.45128895       0.52476666
C       -0.28121527       0.15779470       0.38942665
C        1.48562804      -1.68464589       0.48655508
C        2.12184689      -0.50379935       0.24940182
C        2.11774035       0.72618508       0.07782443
H       -1.80645649       1.73431255      -1.08965846
H       -2.23604400       0.02257653      -1.38016581
H       -3.28529007       1.04906710      -0.36549475
H        0.18193574       0.16235229       1.36028875
H        0.03295625      -0.08438341      -0.61326025
H        1.50331060      -2.10788172       1.48468689
H        1.34754753      -2.39170438      -0.32384993
H        2.64582257       1.62903117      -0.14573910
14
Frame=4 idx=004542 GeodesicLength=0.23422455619312788 rxn_smarts="[C:1]([O:2][C:3]([C:4]([C:5]#[C:6][H:14])([H:12])[H:13])([H:10])[H:11])([H:7])([H:8])[H:9]>>[C:1]([O:2][C:3]([C:6](=[C:5]=[C:4]([H:12])[H:13])[H:14])([H:10])[H:11])([H:7])([H:8])[H:9]"
C       -2.25031865       0.85561587      -0.64877172
O       -1.57260882       0.38743853       0.50607027
C       -0.27026732       0.12952187       0.36920674
C        1.48933604      -1.68104547       0.51026522
C        2.12981175      -0.50448001       0.25348722
C        2.09709896       0.72360636       0.06505921
H       -1.80117937       1.78100750      -1.01772727
H       -2.21570407       0.09106015      -1.42958002
H       -3.28161382       1.03865830      -0.35693868
H        0.16571482       0.15612947       1.35439903
H        0.02308432      -0.11071230      -0.64251858
H        1.51346764      -2.08788981       1.51527249
H        1.36440267      -2.40612795      -0.28641418
H        2.60877586       1.62721748      -0.19180972
14
Frame=5 idx=004542 GeodesicLength=0.29241167305420734 rxn_smarts="[C:1]([O:2][C:3]([C:4]([C:5]#[C:6][H:14])([H:12])[H:13])([H:10])[H:11])([H:7])([H:8])[H:9]>>[C:1]([O:2][C:3]([C:6](=[C:5]=[C:4]([H:12])[H:13])[H:14])([H:10])[H:11])([H:7])([H:8])[H:9]"
C       -2.24245767       0.86898869      -0.64186067
O       -1.57384920       0.32841437       0.48423574
C       -0.25820157       0.10462107       0.34835143
C        1.49112109      -1.67645551       0.53236559
C        2.13788686      -0.50487481       0.25910210
C        2.07899879       0.72067665       0.05453228
H       -1.79849552       1.82042834      -0.94609322
H       -2.19445828       0.15839794      -1.47193989
H       -3.27818585       1.02502296      -0.34942030
H        0.14871375       0.15126589       1.34736361
H        0.01501034      -0.13306398      -0.67195320
H        1.51897439      -2.06818137       1.54348856
H        1.37946145      -2.41776922      -0.25143618
H        2.57548144       1.62252899      -0.23673584
14
Frame=6 idx=004542 GeodesicLength=0.35034098517807966 rxn_smarts="[C:1]([O:2][C:3]([C:4]([C:5]#[C:6][H:14])([H:12])[H:13])([H:10])[H:11])([H:7])([H:8])[H:9]>>[C:1]([O:2][C:3]([C:6](=[C:5]=[C:4]([H:12])[H:13])[H:14])([H:10])[H:11])([H:7])([H:8])[H:9]"
C       -2.23582440       0.87872068      -0.63403637
O       -1.57224643       0.27404259       0.45991610
C       -0.24379059       0.08574820       0.32636615
C        1.48977654      -1.67078457       0.55257850
C        2.14652236      -0.50577085       0.26582428
C        2.06569291       0.71695219       0.04606668
H       -1.80129171       1.85257049      -0.87574363
H       -2.17327269       0.22274382      -1.50749067
H       -3.27588365       1.00541541      -0.34212118
H        0.13245198       0.14984650       1.33860379
H        0.00973154      -0.14885850      -0.70214026
H        1.51820867      -2.04869412       1.56915681
H        1.39007195      -2.42652376      -0.21917616
H        2.54985353       1.61459190      -0.27780405
14
Frame=7 idx=004542 GeodesicLength=0.40843875325742535 rxn_smarts="[C:1]([O:2][C:3]([C:4]([C:5]#[C:6][H:14])([H:12])[H:13])([H:10])[H:11])([H:7])([H:8])[H:9]>>[C:1]([O:2][C:3]([C:6](=[C:5]=[C:4]([H:12])[H:13])[H:14])([H:10])[H:11])([H:7])([H:8])[H:9]"
C       -2.22812309       0.88922708      -0.62585371
O       -1.57060899       0.22294392       0.43332411
C       -0.23079421       0.06382446       0.30436905
C        1.48987733      -1.66485066       0.57260409
C        2.15452452      -0.50537793       0.27272213
C        2.05011484       0.71364211       0.03691437
H       -1.80109240       1.88015466      -0.80480999
H       -2.15220972       0.28933889      -1.53819536
H       -3.27205326       0.98962829      -0.33695154
H        0.11396219       0.14582671       1.32871932
H        0.00330577      -0.16741390      -0.73195425
H        1.51888100      -2.02855082       1.59455724
H        1.40326660      -2.43492611      -0.18665423
H        2.52094941       1.60653329      -0.31879121
14
Frame=8 idx=004542 GeodesicLength=0.4665332685562743 rxn_smarts="[C:1]([O:2][C:3]([C:4]([C:5]#[C:6][H:14])([H:12])[H:13])([H:10])[H:11])([H:7])([H:8])[H:9]>>[C:1]([O:2][C:3]([C:6](=[C:5]=[C:4]([H:12])[H:13])[H:14])([H:10])[H:11])([H:7])([H:8])[H:9]"
C       -2.22062610       0.89826105      -0.61711963
O       -1.56773678       0.17545896       0.40514563
C       -0.21717748       0.04374436       0.28205308
C        1.48897182      -1.65830189       0.59167318
C        2.16253615      -0.50472392       0.28020954
C        2.03609766       0.71010353       0.02835216
H       -1.80260469       1.90258627      -0.73411290
H       -2.13084728       0.35539027      -1.56375044
H       -3.26829851       0.97216489      -0.33314461
H        0.09515934       0.14244370       1.31757124
H       -0.00227562      -0.18371614      -0.76178558
H        1.51708046      -2.00824101       1.61867744
H        1.41509698      -2.44184785      -0.15527016
H        2.49462405       1.59667776      -0.35849896
14
Frame=9 idx=004542 GeodesicLength=0.5245493657488554 rxn_smarts="[C:1]([O:2][C:3]([C:4]([C:5]#[C:6][H:14])([H:12])[H:13])([H:10])[H:11])([H:7])([H:8])[H:9]>>[C:1]([O:2][C:3]([C:6](=[C:5]=[C:4]([H:12])[H:13])[H:14])([H:10])[H:11])([H:7])([H:8])[H:9]"
C       -2.21263632       0.90681080      -0.60816939
O       -1.56435749       0.13227183       0.37624449
C       -0.20387311       0.02339888       0.26005169
C        1.48822238      -1.65139191       0.60973443
C        2.17021957      -0.50321860       0.28818035
C        2.02177713       0.70682119       0.02035963
H       -1.80293803       1.92001937      -0.66591751
H       -2.11015471       0.41984111      -1.58389739
H       -3.26359738       0.95693768      -0.33062149
H        0.07549414       0.13776914       1.30564161
H       -0.00808663      -0.19978870      -0.79100981
H        1.51470145      -1.98814551       1.64139875
H        1.42742872      -2.44755069      -0.12514497
H        2.46780026       1.58622539      -0.39685038
14
Frame=10 idx=004542 GeodesicLength=0.5826725974412019 rxn_smarts="[C:1]([O:2][C:3]([C:4]([C:5]#[C:6][H:14])([H:12])[H:13])([H:10])[H:11])([H:7])([H:8])[H:9]>>[C:1]([O:2][C:3]([C:6](=[C:5]=[C:4]([H:12])[H:13])[H:14])([H:10])[H:11])([H:7])([H:8])[H:9]"
C       -2.20438398       0.91482160      -0.59887789
O       -1.56068009       0.09203626       0.34642653
C       -0.19067520       0.00319762       0.23812386
C        1.48734998      -1.64405137       0.62723109
C        2.17762546      -0.50107868       0.29643655
C        2.00758620       0.70352673       0.01223823
H       -1.80343978       1.93353943      -0.59766794
H       -2.08865339       0.48449030      -1.59984845
H       -3.25860930       0.94190853      -0.32993045
H        0.05522408       0.13249123       1.29269522
H       -0.01396050      -0.21543148      -0.81987618
H        1.51148591      -1.96768667       1.66336748
H        1.43971777      -2.45234704      -0.09547658
H        2.44141284       1.57458355      -0.43484146
14
Frame=11 idx=004542 GeodesicLength=0.6414143695356876 rxn_smarts="[C:1]([O:2][C:3]([C:4]([C:5]#[C:6][H:14])([H:12])[H:13])([H:10])[H:11])([H:7])([H:8])[H:9]>>[C:1]([O:2][C:3]([C:6](=[C:5]=[C:4]([H:12])[H:13])[H:14])([H:10])[H:11])([H:7])([H:8])[H:9]"
C       -2.19379855       0.92512146      -0.58973154
O       -1.55920372       0.05458511       0.31588274
C       -0.18029096      -0.02305034       0.21719388
C        1.48939493      -1.63663110       0.64484277
C        2.18366270      -0.49651319       0.30434337
C        1.98818247       0.70118099       0.00282072
H       -1.79725820       1.94417049      -0.52989514
H       -2.06538229       0.55115099      -1.61198577
H       -3.25131291       0.93494876      -0.33208729
H        0.03197340       0.12159179       1.27943314
H       -0.02273852      -0.23700610      -0.84743484
H        1.51235282      -1.94645060       1.68544458
H        1.45716183      -2.45714485      -0.06503789
H        2.40725700       1.56404659      -0.47378874
14
Frame=12 idx=004542 GeodesicLength=0.6998281313418038 rxn_smarts="[C:1]([O:2][C:3]([C:4]([C:5]#[C:6][H:14])([H:12])[H:13])([H:10])[H:11])([H:7])([H:8])[H:9]>>[C:1]([O:2][C:3]([C:6](=[C:5]=[C:4]([H:12])[H:13])[H:14])([H:10])[H:11])([H:7])([H:8])[H:9]"
C       -2.18482021       0.93225822      -0.57976560
O       -1.55543965       0.01957545       0.28474581
C       -0.16750695      -0.04332822       0.19549665
C        1.48840105      -1.62839635       0.66134237
C        2.19030456      -0.49294412       0.31276492
C        1.97378834       0.69785386      -0.00600942
H       -1.79765791       1.95021172      -0.46170864
H       -2.04184419       0.61591193      -1.61979616
H       -3.24553895       0.92125382      -0.33495790
H        0.01073853       0.11477832       1.26447796
H       -0.02911009      -0.25218650      -0.87551440
H        1.50789495      -1.92496471       1.70609599
H        1.46949062      -2.46023865      -0.03593551
H        2.38129991       1.55021522      -0.51123607
14
Frame=13 idx=004542 GeodesicLength=0.7588609181825827 rxn_smarts="[C:1]([O:2][C:3]([C:4]([C:5]#[C:6][H:14])([H:12])[H:13])([H:10])[H:11])([H:7])([H:8])[H:9]>>[C:1]([O:2][C:3]([C:6](=[C:5]=[C:4]([H:12])[H:13])[H:14])([H:10])[H:11])([H:7])([H:8])[H:9]"
C       -2.17425307       0.94060973      -0.56972204
O       -1.55322057      -0.01327204       0.25291745
C       -0.15651642      -0.06723997       0.17434641
C        1.48903469      -1.61982640       0.67790798
C        2.19583551      -0.48759579       0.32081398
C        1.95610791       0.69495889      -0.01610198
H       -1.79471409       1.95323183      -0.39264937
H       -2.01540952       0.68271841      -1.62386998
H       -3.23837977       0.91212985      -0.34092834
H       -0.01237596       0.10425133       1.24884496
H       -0.03736271      -0.27091231      -0.90272325
H        1.50561657      -1.90242565       1.72679494
H        1.48482236      -2.46299792      -0.00606393
H        2.35081510       1.53637004      -0.54956681
14
Frame=14 idx=004542 GeodesicLength=0.8179284258135027 rxn_smarts="[C:1]([O:2][C:3]([C:4]([C:5]#[C:6][H:14])([H:12])[H:13])([H:10])[H:11])([H:7])([H:8])[H:9]>>[C:1]([O:2][C:3]([C:6](=[C:5]=[C:4]([H:12])[H:13])[H:14])([H:10])[H:11])([H:7])([H:8])[H:9]"
C       -2.16415929       0.94753099      -0.55918905
O       -1.55016394      -0.04381489       0.22083397
C       -0.14469838      -0.08880727       0.15305978
C        1.48844521      -1.61068097       0.69382660
C        2.20137333      -0.48224710       0.32900026
C        1.94038102       0.69163818      -0.02635290
H       -1.79490699       1.95231633      -0.32327676
H       -1.98790741       0.74897971      -1.62374802
H       -3.23158794       0.90085671      -0.34872759
H       -0.03469297       0.09485691       1.23208347
H       -0.04490156      -0.28700021      -0.92981624
H        1.50101896      -1.87940386       1.74663719
H        1.49809045      -2.46468924       0.02328354
H        2.32370949       1.52046469      -0.58761425
14
Frame=15 idx=004542 GeodesicLength=0.878399635303159 rxn_smarts="[C:1]([O:2][C:3]([C:4]([C:5]#[C:6][H:14])([H:12])[H:13])([H:10])[H:11])([H:7])([H:8])[H:9]>>[C:1]([O:2][C:3]([C:6](=[C:5]=[C:4]([H:12])[H:13])[H:14])([H:10])[H:11])([H:7])([H:8])[H:9]"
C       -2.15054569       0.95757586      -0.54941093
O       -1.55073474      -0.07135287       0.18929534
C       -0.13677741      -0.11833390       0.13380790
C        1.49161974      -1.60147588       0.70952939
C        2.20468601      -0.47322669       0.33667119
C        1.91694977       0.68979950      -0.03745522
H       -1.78559702       1.94946872      -0.25731175
H       -1.95677453       0.81487607      -1.62022289
H       -3.22151549       0.90164727      -0.35937477
H       -0.06048618       0.07717565       1.21620608
H       -0.05658625      -0.31102110      -0.95455238
H        1.50193449      -1.85614707       1.76606516
H        1.51859772      -2.46581893       0.05265671
H        2.28522959       1.50683336      -0.62590383
14
Frame=16 idx=004542 GeodesicLength=0.9392398740733608 rxn_smarts="[C:1]([O:2][C:3]([C:4]([C:5]#[C:6][H:14])([H:12])[H:13])([H:10])[H:11])([H:7])([H:8])[H:9]>>[C:1]([O:2][C:3]([C:6](=[C:5]=[C:4]([H:12])[H:13])[H:14])([H:10])[H:11])([H:7])([H:8])[H:9]"
C       -2.13647987       0.96702015      -0.53942353
O       -1.55136010      -0.09651903       0.15813874
C       -0.12896340      -0.14737704       0.11499046
C        1.49441328      -1.59176414       0.72452364
C        2.20738709      -0.46339853       0.34417509
C        1.89342289       0.68787067      -0.04880925
H       -1.77695651       1.94351640      -0.19254615
H       -1.92375245       0.87920245      -1.61290685
H       -3.21086532       0.90340642      -0.37154350
H       -0.08603760       0.05873302       1.19986647
H       -0.06861114      -0.33440145      -0.97856785
H        1.50199281      -1.83256698       1.78454618
H        1.53875666      -2.46579124       0.08136043
H        2.24705367       1.49206928      -0.66380388
