16
Frame=0 idx=010360 GeodesicLength=0.0 rxn_smarts="[C:1]([C:2]1([C:3]([H:11])([H:12])[H:13])[C:4]([H:14])([H:15])[O:5]/[C:6]1=[N:7]\[H:16])([H:8])([H:9])[H:10]>>[C:1]([C@@:2]1(/[C:6]([C:3]([H:11])([H:12])[H:13])=[N:7]/[H:16])[C:4]([H:14])([H:15])[O:5]1)([H:8])([H:9])[H:10]"
C       -1.22941693      -0.25294186       1.36819620
C       -0.36758073       0.35021182       0.34587350
C        0.48619664      -1.03686604      -1.04331103
C       -0.49960329       1.46914859      -0.59855436
O        0.77650827       1.45316920      -1.09294692
C        1.00550896       0.06468630       0.07326053
N        2.03598348      -0.13447988       0.79082196
H       -1.07702643       0.32709153       2.28631243
H       -2.28645583      -0.22701306       1.10614125
H       -0.90469953      -1.26800750       1.59509730
H        0.36084581      -1.98995736      -0.53256375
H       -0.37593023      -0.80388673      -1.66439901
H        1.36272262      -1.04637572      -1.68743197
H       -0.70625785       2.34262484       0.06082803
H       -1.33635950       1.41101801      -1.31376809
H        2.75556447      -0.65842211       0.30644400
16
Frame=1 idx=010360 GeodesicLength=0.09177228040987383 rxn_smarts="[C:1]([C:2]1([C:3]([H:11])([H:12])[H:13])[C:4]([H:14])([H:15])[O:5]/[C:6]1=[N:7]\[H:16])([H:8])([H:9])[H:10]>>[C:1]([C@@:2]1(/[C:6]([C:3]([H:11])([H:12])[H:13])=[N:7]/[H:16])[C:4]([H:14])([H:15])[O:5]1)([H:8])([H:9])[H:10]"
C       -1.21552040      -0.23897364       1.37760770
C       -0.36272907       0.34023159       0.33179546
C        0.47766108      -1.03354070      -1.06160560
C       -0.51082037       1.46969374      -0.59628251
O        0.78913724       1.47770208      -1.03053488
C        1.01534781       0.05323711       0.07860687
N        2.02808644      -0.17974069       0.80920057
H       -1.09099530       0.38498447       2.27027476
H       -2.26930892      -0.26084083       1.10239314
H       -0.87050512      -1.23428711       1.65608217
H        0.36713440      -1.99841148      -0.56971107
H       -0.38916369      -0.81072992      -1.68003445
H        1.34607123      -1.02142684      -1.71721730
H       -0.75916712       2.33441137       0.05758435
H       -1.31416448       1.39913334      -1.34595890
H        2.75893628      -0.68144250       0.31779970
16
Frame=2 idx=010360 GeodesicLength=0.183378130244022 rxn_smarts="[C:1]([C:2]1([C:3]([H:11])([H:12])[H:13])[C:4]([H:14])([H:15])[O:5]/[C:6]1=[N:7]\[H:16])([H:8])([H:9])[H:10]>>[C:1]([C@@:2]1(/[C:6]([C:3]([H:11])([H:12])[H:13])=[N:7]/[H:16])[C:4]([H:14])([H:15])[O:5]1)([H:8])([H:9])[H:10]"
C       -1.20183217      -0.22454933       1.38669472
C       -0.35798051       0.33006306       0.31808995
C        0.46918504      -1.03026772      -1.07976120
C       -0.52174901       1.46954574      -0.59416486
O        0.79934477       1.50057219      -0.96600403
C        1.02496107       0.04140647       0.08409770
N        2.01959046      -0.22497608       0.82628342
H       -1.10530276       0.44028376       2.25244792
H       -2.25096604      -0.29382869       1.10153941
H       -0.83794994      -1.19758828       1.71529607
H        0.37544470      -2.00677715      -0.60750400
H       -0.40334244      -0.81943908      -1.69459420
H        1.32874702      -0.99466974      -1.74674125
H       -0.81122791       2.32474015       0.05265207
H       -1.28940527       1.38895088      -1.37770527
H        2.76248298      -0.70346618       0.32937354
16
Frame=3 idx=010360 GeodesicLength=0.27457862527583177 rxn_smarts="[C:1]([C:2]1([C:3]([H:11])([H:12])[H:13])[C:4]([H:14])([H:15])[O:5]/[C:6]1=[N:7]\[H:16])([H:8])([H:9])[H:10]>>[C:1]([C@@:2]1(/[C:6]([C:3]([H:11])([H:12])[H:13])=[N:7]/[H:16])[C:4]([H:14])([H:15])[O:5]1)([H:8])([H:9])[H:10]"
C       -1.18813978      -0.20979629       1.39544568
C       -0.35332601       0.31964472       0.30470785
C        0.46063653      -1.02690330      -1.09774636
C       -0.53226971       1.46868594      -0.59224715
O        0.80692759       1.52160130      -0.89957815
C        1.03421678       0.02926877       0.08960875
N        2.01025141      -0.27014188       0.84202864
H       -1.12009946       0.49304000       2.23282927
H       -2.23110562      -0.32631390       1.10330979
H       -0.80649402      -1.15786033       1.77302127
H        0.38565959      -2.01474792      -0.64595044
H       -0.41833379      -0.82976143      -1.70810394
H        1.31045136      -0.96601857      -1.77582231
H       -0.86215503       2.31354371       0.04593855
H       -1.26194001       1.38050939      -1.40884029
H        2.76572017      -0.72475019       0.34139884
16
Frame=4 idx=010360 GeodesicLength=0.365787900849353 rxn_smarts="[C:1]([C:2]1([C:3]([H:11])([H:12])[H:13])[C:4]([H:14])([H:15])[O:5]/[C:6]1=[N:7]\[H:16])([H:8])([H:9])[H:10]>>[C:1]([C@@:2]1(/[C:6]([C:3]([H:11])([H:12])[H:13])=[N:7]/[H:16])[C:4]([H:14])([H:15])[O:5]1)([H:8])([H:9])[H:10]"
C       -1.17462597      -0.19472256       1.40394560
C       -0.34889949       0.30898337       0.29164468
C        0.45202814      -1.02368254      -1.11569051
C       -0.54239108       1.46729780      -0.59044949
O        0.81194876       1.54076289      -0.83138983
C        1.04323292       0.01689801       0.09505465
N        2.00033960      -0.31516839       0.85641011
H       -1.13558146       0.54349851       2.21168913
H       -2.21011737      -0.35840072       1.10774636
H       -0.77611269      -1.11517258       1.82931095
H        0.39773929      -2.02252133      -0.68529232
H       -0.43404371      -0.84181861      -1.72079822
H        1.29128348      -0.93587379      -1.80449165
H       -0.91192294       2.30119255       0.03762634
H       -1.23190835       1.37397976      -1.43915879
H        2.76903086      -0.74525237       0.35384300
16
Frame=5 idx=010360 GeodesicLength=0.4568848947315514 rxn_smarts="[C:1]([C:2]1([C:3]([H:11])([H:12])[H:13])[C:4]([H:14])([H:15])[O:5]/[C:6]1=[N:7]\[H:16])([H:8])([H:9])[H:10]>>[C:1]([C@@:2]1(/[C:6]([C:3]([H:11])([H:12])[H:13])=[N:7]/[H:16])[C:4]([H:14])([H:15])[O:5]1)([H:8])([H:9])[H:10]"
C       -1.16117773      -0.17940925       1.41216806
C       -0.34468655       0.29806752       0.27889089
C        0.44322491      -1.02055474      -1.13357499
C       -0.55197235       1.46536789      -0.58876047
O        0.81431010       1.55773844      -0.76178918
C        1.05193265       0.00437323       0.10035890
N        1.98969462      -0.35996120       0.86944525
H       -1.15199794       0.59162427       2.18905352
H       -2.18770737      -0.39047603       1.11459616
H       -0.74647706      -1.06934798       1.88426906
H        0.41148675      -2.02981289      -0.72552828
H       -0.45034856      -0.85539349      -1.73275615
H        1.27098380      -0.90438009      -1.83262310
H       -0.96013223       2.28769013       0.02778827
H       -1.19928955       1.36939209      -1.46838778
H        2.77215650      -0.76491789       0.36684984
16
Frame=6 idx=010360 GeodesicLength=0.5479636436136016 rxn_smarts="[C:1]([C:2]1([C:3]([H:11])([H:12])[H:13])[C:4]([H:14])([H:15])[O:5]/[C:6]1=[N:7]\[H:16])([H:8])([H:9])[H:10]>>[C:1]([C@@:2]1(/[C:6]([C:3]([H:11])([H:12])[H:13])=[N:7]/[H:16])[C:4]([H:14])([H:15])[O:5]1)([H:8])([H:9])[H:10]"
C       -1.14772452      -0.16393514       1.42010282
C       -0.34077966       0.28684872       0.26637168
C        0.43420730      -1.01756299      -1.15136475
C       -0.56104562       1.46301437      -0.58719521
O        0.81391444       1.57252103      -0.69092606
C        1.06028846      -0.00824754       0.10545806
N        1.97824072      -0.40464017       0.88110437
H       -1.16928814       0.63740432       2.16488022
H       -2.16380933      -0.42253456       1.12405546
H       -0.71733760      -1.02043696       1.93774864
H        0.42677061      -2.03658010      -0.76668184
H       -0.46702580      -0.87029187      -1.74408971
H        1.24952673      -0.87176531      -1.85999017
H       -1.00688170       2.27321207       0.01636241
H       -1.16408954       1.36682984      -1.49637650
H        2.77503369      -0.78383570       0.38054059
16
Frame=7 idx=010360 GeodesicLength=0.6387622579180584 rxn_smarts="[C:1]([C:2]1([C:3]([H:11])([H:12])[H:13])[C:4]([H:14])([H:15])[O:5]/[C:6]1=[N:7]\[H:16])([H:8])([H:9])[H:10]>>[C:1]([C@@:2]1(/[C:6]([C:3]([H:11])([H:12])[H:13])=[N:7]/[H:16])[C:4]([H:14])([H:15])[O:5]1)([H:8])([H:9])[H:10]"
C       -1.13416727      -0.14848106       1.42765504
C       -0.33701775       0.27553346       0.25415105
C        0.42488105      -1.01464905      -1.16898976
C       -0.56955745       1.46033095      -0.58574676
O        0.81069720       1.58484520      -0.61974847
C        1.06841393      -0.02062941       0.11018315
N        1.96602969      -0.44858508       0.89144361
H       -1.18785755       0.68037370       2.13937443
H       -2.13809048      -0.45481570       1.13565769
H       -0.68843495      -0.96845106       1.98947563
H        0.44320040      -2.04243158      -0.80840041
H       -0.48391222      -0.88621969      -1.75490938
H        1.22687603      -0.83851871      -1.88642616
H       -1.05151652       2.25798708       0.00364759
H       -1.12683770       1.36614477      -1.52261064
H        2.77729360      -0.80243382       0.39524339
16
Frame=8 idx=010360 GeodesicLength=0.7295277158012219 rxn_smarts="[C:1]([C:2]1([C:3]([H:11])([H:12])[H:13])[C:4]([H:14])([H:15])[O:5]/[C:6]1=[N:7]\[H:16])([H:8])([H:9])[H:10]>>[C:1]([C@@:2]1(/[C:6]([C:3]([H:11])([H:12])[H:13])=[N:7]/[H:16])[C:4]([H:14])([H:15])[O:5]1)([H:8])([H:9])[H:10]"
C       -1.12060817      -0.13307810       1.43482750
C       -0.33344950       0.26417645       0.24221591
C        0.41523649      -1.01198143      -1.18646268
C       -0.57750749       1.45751952      -0.58434484
O        0.80485586       1.59472564      -0.54858496
C        1.07642035      -0.03271444       0.11451596
N        1.95317720      -0.49186404       0.90049192
H       -1.20795999       0.72057016       2.11258970
H       -2.11058437      -0.48751601       1.14943837
H       -0.65975587      -0.91337326       2.03929288
H        0.46060221      -2.04748762      -0.85072279
H       -0.50093137      -0.90312471      -1.76533170
H        1.20309930      -0.80507012      -1.91190955
H       -1.09401713       2.24239655      -0.01013842
H       -1.08778477       1.36741578      -1.54684264
H        2.77920726      -0.82059436       0.41096534
16
Frame=9 idx=010360 GeodesicLength=0.820285067452913 rxn_smarts="[C:1]([C:2]1([C:3]([H:11])([H:12])[H:13])[C:4]([H:14])([H:15])[O:5]/[C:6]1=[N:7]\[H:16])([H:8])([H:9])[H:10]>>[C:1]([C@@:2]1(/[C:6]([C:3]([H:11])([H:12])[H:13])=[N:7]/[H:16])[C:4]([H:14])([H:15])[O:5]1)([H:8])([H:9])[H:10]"
C       -1.10695250      -0.11779182       1.44159618
C       -0.33004909       0.25278789       0.23053238
C        0.40517787      -1.00948285      -1.20375171
C       -0.58478102       1.45457662      -0.58300133
O        0.79652307       1.60194203      -0.47784499
C        1.08424383      -0.04448198       0.11848163
N        1.93944784      -0.53457724       0.90834993
H       -1.22974273       0.75780804       2.08444018
H       -2.08087909      -0.52087704       1.16543012
H       -0.63114264      -0.85502463       2.08709811
H        0.47872266      -2.05148749      -0.89361852
H       -0.51799444      -0.92071872      -1.77542394
H        1.17804010      -0.77157043      -1.93639297
H       -1.13415334       2.22646861      -0.02490210
H       -1.04703943       1.37055166      -1.56891362
H        2.78057891      -0.83812266       0.42792065
16
Frame=10 idx=010360 GeodesicLength=0.9106602606024117 rxn_smarts="[C:1]([C:2]1([C:3]([H:11])([H:12])[H:13])[C:4]([H:14])([H:15])[O:5]/[C:6]1=[N:7]\[H:16])([H:8])([H:9])[H:10]>>[C:1]([C@@:2]1(/[C:6]([C:3]([H:11])([H:12])[H:13])=[N:7]/[H:16])[C:4]([H:14])([H:15])[O:5]1)([H:8])([H:9])[H:10]"
C       -1.09307295      -0.10284906       1.44775314
C       -0.32659698       0.24167307       0.21912012
C        0.39471396      -1.00710122      -1.22060406
C       -0.59149742       1.45172757      -0.58174548
O        0.78577181       1.60660987      -0.40866299
C        1.09206853      -0.05553012       0.12196568
N        1.92494293      -0.57602038       0.91516196
H       -1.25307901       0.79136510       2.05515493
H       -2.04866373      -0.55460893       1.18309944
H       -0.60262135      -0.79402684       2.13207735
H        0.49714421      -2.05418829      -0.93635346
H       -0.53489733      -0.93870577      -1.78509970
H        1.15187470      -0.73855714      -1.95956018
H       -1.17155104       2.21062339      -0.04028681
H       -1.00552286       1.37528402      -1.58840951
H        2.78098651      -0.85569525       0.44638956
16
Frame=11 idx=010360 GeodesicLength=1.0010240806496238 rxn_smarts="[C:1]([C:2]1([C:3]([H:11])([H:12])[H:13])[C:4]([H:14])([H:15])[O:5]/[C:6]1=[N:7]\[H:16])([H:8])([H:9])[H:10]>>[C:1]([C@@:2]1(/[C:6]([C:3]([H:11])([H:12])[H:13])=[N:7]/[H:16])[C:4]([H:14])([H:15])[O:5]1)([H:8])([H:9])[H:10]"
C       -1.07911553      -0.08820548       1.45340880
C       -0.32313186       0.23085507       0.20796928
C        0.38387205      -1.00492976      -1.23717129
C       -0.59764075       1.44904676      -0.58050157
O        0.77301322       1.60881477      -0.34120843
C        1.09999711      -0.06588316       0.12503661
N        1.90968690      -0.61637206       0.92103286
H       -1.27817985       0.82132668       2.02487354
H       -2.01396708      -0.58875948       1.20266536
H       -0.57429481      -0.73022824       2.17421102
H        0.51579131      -2.05567472      -0.97918455
H       -0.55164585      -0.95710272      -1.79456221
H        1.12472071      -0.70624948      -1.98165701
H       -1.20635393       2.19505016      -0.05601664
H       -0.96340405       1.38148835      -1.60533893
H        2.78065240      -0.87317668       0.46644315
16
Frame=12 idx=010360 GeodesicLength=1.0913444461104769 rxn_smarts="[C:1]([C:2]1([C:3]([H:11])([H:12])[H:13])[C:4]([H:14])([H:15])[O:5]/[C:6]1=[N:7]\[H:16])([H:8])([H:9])[H:10]>>[C:1]([C@@:2]1(/[C:6]([C:3]([H:11])([H:12])[H:13])=[N:7]/[H:16])[C:4]([H:14])([H:15])[O:5]1)([H:8])([H:9])[H:10]"
C       -1.06501774      -0.07394171       1.45849531
C       -0.31955821       0.22044025       0.19705118
C        0.37264136      -1.00290220      -1.25335888
C       -0.60322905       1.44662297      -0.57928887
O        0.75852160       1.60864914      -0.27602562
C        1.10807543      -0.07546711       0.12773997
N        1.89359269      -0.65554307       0.92612260
H       -1.30492137       0.84738288       1.99362556
H       -1.97647260      -0.62321972       1.22398651
H       -0.54624114      -0.66387848       2.21315900
H        0.53449093      -2.05581186      -1.02189380
H       -0.56819798      -0.97575123      -1.80374552
H        1.09658153      -0.67475197      -2.00263549
H       -1.23847290       2.17993263      -0.07189496
H       -0.92115267       1.38896717      -1.61963835
H        2.77936011      -0.89072770       0.48830136
16
Frame=13 idx=010360 GeodesicLength=1.1816353594120756 rxn_smarts="[C:1]([C:2]1([C:3]([H:11])([H:12])[H:13])[C:4]([H:14])([H:15])[O:5]/[C:6]1=[N:7]\[H:16])([H:8])([H:9])[H:10]>>[C:1]([C@@:2]1(/[C:6]([C:3]([H:11])([H:12])[H:13])=[N:7]/[H:16])[C:4]([H:14])([H:15])[O:5]1)([H:8])([H:9])[H:10]"
C       -1.05079350      -0.06010071       1.46300418
C       -0.31579651       0.21052867       0.18634846
C        0.36106970      -1.00099832      -1.26914062
C       -0.60832404       1.44451780      -0.57811025
O        0.74261887       1.60629743      -0.21357024
C        1.11639012      -0.08419918       0.13013349
N        1.87665199      -0.69338262       0.93059667
H       -1.33296624       0.86931191       1.96166643
H       -1.93614012      -0.65758412       1.24692104
H       -0.51870917      -0.59544386       2.24856146
H        0.55312405      -2.05453665      -1.06432283
H       -0.58448760      -0.99460751      -1.81265997
H        1.06757778      -0.64419400      -2.02253427
H       -1.26794626       2.16542253      -0.08766677
H       -0.87925110       1.39744388      -1.63133710
H        2.77698203      -0.90847525       0.51211035
16
Frame=14 idx=010360 GeodesicLength=1.2719291127415975 rxn_smarts="[C:1]([C:2]1([C:3]([H:11])([H:12])[H:13])[C:4]([H:14])([H:15])[O:5]/[C:6]1=[N:7]\[H:16])([H:8])([H:9])[H:10]>>[C:1]([C@@:2]1(/[C:6]([C:3]([H:11])([H:12])[H:13])=[N:7]/[H:16])[C:4]([H:14])([H:15])[O:5]1)([H:8])([H:9])[H:10]"
C       -1.03646549      -0.04670389       1.46691234
C       -0.31177970       0.20119596       0.17583606
C        0.34922793      -0.99921297      -1.28448177
C       -0.61303317       1.44277661      -0.57696939
O        0.72560906       1.60198930      -0.15419939
C        1.12502260      -0.09203576       0.13230167
N        1.85890150      -0.72976531       0.93462141
H       -1.36172264       0.88702906       1.92932487
H       -1.89311776      -0.69124819       1.27123444
H       -0.49200794      -0.52563316       2.28005693
H        0.57167172      -2.05182768      -1.10632951
H       -0.60045312      -1.01369324      -1.82128079
H        1.03781934      -0.61464614      -2.04137806
H       -1.29491798       2.15164155      -0.10310550
H       -0.83819750       1.40663592      -1.64052861
H        2.77344314      -0.92650206       0.53798532
16
Frame=15 idx=010360 GeodesicLength=1.3622256945087705 rxn_smarts="[C:1]([C:2]1([C:3]([H:11])([H:12])[H:13])[C:4]([H:14])([H:15])[O:5]/[C:6]1=[N:7]\[H:16])([H:8])([H:9])[H:10]>>[C:1]([C@@:2]1(/[C:6]([C:3]([H:11])([H:12])[H:13])=[N:7]/[H:16])[C:4]([H:14])([H:15])[O:5]1)([H:8])([H:9])[H:10]"
C       -1.02211442      -0.03376717       1.47028005
C       -0.30746280       0.19247473       0.16550310
C        0.33718495      -0.99753459      -1.29941158
C       -0.61738325       1.44138082      -0.57585255
O        0.70785407       1.59593037      -0.09814232
C        1.13401214      -0.09898268       0.13431769
N        1.84034093      -0.76459241       0.93828768
H       -1.39082255       0.90056395       1.89688006
H       -1.84756207      -0.72385215       1.29681300
H       -0.46643425      -0.45491812       2.30759424
H        0.59006746      -2.04765628      -1.14789041
H       -0.61601920      -1.03304045      -1.82962369
H        1.00743573      -0.58612468      -2.05928315
H       -1.31949091       2.13861667      -0.11798415
H       -0.79824841       1.41628938      -1.64738239
H        2.76864258      -0.94478742       0.56589441
16
Frame=16 idx=010360 GeodesicLength=1.4526693386226683 rxn_smarts="[C:1]([C:2]1([C:3]([H:11])([H:12])[H:13])[C:4]([H:14])([H:15])[O:5]/[C:6]1=[N:7]\[H:16])([H:8])([H:9])[H:10]>>[C:1]([C@@:2]1(/[C:6]([C:3]([H:11])([H:12])[H:13])=[N:7]/[H:16])[C:4]([H:14])([H:15])[O:5]1)([H:8])([H:9])[H:10]"
C       -1.00761119      -0.02132840       1.47301706
C       -0.30281629       0.18431924       0.15529179
C        0.32497638      -0.99585156      -1.31380519
C       -0.62152275       1.44024935      -0.57484270
O        0.68943223       1.58825556      -0.04549704
C        1.14327507      -0.10511839       0.13633035
N        1.82090554      -0.79791828       0.94174974
H       -1.41917063       0.91008430       1.86452917
H       -1.79977034      -0.75455628       1.32340644
H       -0.44208655      -0.38435447       2.33088007
H        0.60851871      -2.04183973      -1.18890051
H       -0.63111867      -1.05263279      -1.83750186
H        0.97625732      -0.55839535      -2.07614863
H       -1.34196488       2.12620388      -0.13240167
H       -0.75966101       1.42618220      -1.65214310
H        2.76235704      -0.96329927       0.59603609
