21
Frame=0 idx=006371 GeodesicLength=0.0 rxn_smarts="[C:1]([C:2]([C:3]([H:12])([H:13])[H:14])([C:4]([C:5]1([H:17])[C:6]([H:18])([H:19])[C:7]1([H:20])[H:21])([H:15])[H:16])[H:11])([H:8])([H:9])[H:10]>>[C:1]([C:2]([C:3]([H:12])([H:13])[H:14])([C:4](=[C:5]([H:15])[H:17])[H:16])[H:11])([H:8])([H:9])[H:10].[C:6](=[C:7]([H:20])[H:21])([H:18])[H:19]"
C       -1.35099488       1.18434423      -0.50720512
C       -1.33978845      -0.14035081       0.27006702
C       -2.47391784      -1.05963421      -0.16587495
C        0.00388148      -0.77449159       0.10327040
C        1.18144700      -0.34188532       0.78832736
C        2.57045632      -0.22117061       0.06907431
C        2.45124495       1.16746657      -0.28753992
H       -1.30431976       0.99918066      -1.58305309
H       -2.26399712       1.74595686      -0.29782378
H       -0.49747919       1.80925641      -0.23267297
H       -1.47317890       0.10355105       1.33100681
H       -3.44334298      -0.57383692      -0.03929747
H       -2.37144802      -1.32262500      -1.22245287
H       -2.47889286      -1.98621707       0.41162438
H        0.90976591      -1.42909028       1.15584758
H        0.14219833      -1.50624198      -0.68837271
H        1.05029320       0.32567495       1.63376895
H        3.37255266      -0.43110886       0.77364193
H        2.60435913      -0.95775086      -0.73589008
H        1.75590114       1.47289833      -1.05711834
H        2.95525983       1.93607454       0.28067255
21
Frame=1 idx=006371 GeodesicLength=0.09882294883468944 rxn_smarts="[C:1]([C:2]([C:3]([H:12])([H:13])[H:14])([C:4]([C:5]1([H:17])[C:6]([H:18])([H:19])[C:7]1([H:20])[H:21])([H:15])[H:16])[H:11])([H:8])([H:9])[H:10]>>[C:1]([C:2]([C:3]([H:12])([H:13])[H:14])([C:4](=[C:5]([H:15])[H:17])[H:16])[H:11])([H:8])([H:9])[H:10].[C:6](=[C:7]([H:20])[H:21])([H:18])[H:19]"
C       -1.35369356       1.17564295      -0.53561033
C       -1.33863681      -0.13398807       0.26557431
C       -2.48089498      -1.05622213      -0.14290245
C        0.00013647      -0.78014858       0.09785362
C        1.17628543      -0.35570475       0.78687273
C        2.59138822      -0.21300565       0.06438089
C        2.44887921       1.18110862      -0.25060187
H       -1.31334810       0.97166794      -1.60837859
H       -2.26459527       1.74233158      -0.33076565
H       -0.49829845       1.80489937      -0.27821315
H       -1.46248149       0.12952582       1.32298117
H       -3.44695261      -0.56414687      -0.01424713
H       -2.39124896      -1.33766818      -1.19590350
H       -2.48347567      -1.97275800       0.45042662
H        0.89368263      -1.46218944       1.13358795
H        0.13518900      -1.49161150      -0.71285484
H        1.04873588       0.28774045       1.65141990
H        3.39825225      -0.43652212       0.75882664
H        2.61565660      -0.92796971      -0.75957214
H        1.77126428       1.49805394      -1.03127052
H        2.95415591       1.94096434       0.32839635
21
Frame=2 idx=006371 GeodesicLength=0.19754834180282665 rxn_smarts="[C:1]([C:2]([C:3]([H:12])([H:13])[H:14])([C:4]([C:5]1([H:17])[C:6]([H:18])([H:19])[C:7]1([H:20])[H:21])([H:15])[H:16])[H:11])([H:8])([H:9])[H:10]>>[C:1]([C:2]([C:3]([H:12])([H:13])[H:14])([C:4](=[C:5]([H:15])[H:17])[H:16])[H:11])([H:8])([H:9])[H:10].[C:6](=[C:7]([H:20])[H:21])([H:18])[H:19]"
C       -1.35608791       1.16636242      -0.56434776
C       -1.33716229      -0.12758061       0.26075827
C       -2.48764937      -1.05199524      -0.11974308
C       -0.00366907      -0.78639359       0.09231036
C        1.17103837      -0.37021392       0.78531421
C        2.61258980      -0.20400172       0.05949825
C        2.44537663       1.19405091      -0.21302840
H       -1.32259859       0.94334896      -1.63363248
H       -2.26462093       1.73842066      -0.36389718
H       -0.49853598       1.79937501      -0.32483878
H       -1.45107360       0.15573004       1.31417451
H       -3.45010000      -0.55320139       0.01066186
H       -2.41092288      -1.35224772      -1.16858854
H       -2.48799140      -1.95798785       0.48958857
H        0.87709817      -1.49571045       1.11070799
H        0.12793900      -1.47777187      -0.73639165
H        1.04721889       0.24822786       1.66851326
H        3.42478638      -0.44028894       0.74298661
H        2.62686321      -0.89684794      -0.78278683
H        1.78562560       1.52356260      -1.00377221
H        2.95187598       1.94516279       0.37651301
21
Frame=3 idx=006371 GeodesicLength=0.2961905091250667 rxn_smarts="[C:1]([C:2]([C:3]([H:12])([H:13])[H:14])([C:4]([C:5]1([H:17])[C:6]([H:18])([H:19])[C:7]1([H:20])[H:21])([H:15])[H:16])[H:11])([H:8])([H:9])[H:10]>>[C:1]([C:2]([C:3]([H:12])([H:13])[H:14])([C:4](=[C:5]([H:15])[H:17])[H:16])[H:11])([H:8])([H:9])[H:10].[C:6](=[C:7]([H:20])[H:21])([H:18])[H:19]"
C       -1.35809906       1.15650632      -0.59332929
C       -1.33531728      -0.12116191       0.25561417
C       -2.49416105      -1.04688418      -0.09644385
C       -0.00752170      -0.79328992       0.08665075
C        1.16572355      -0.38548130       0.78365600
C        2.63407113      -0.19408964       0.05443404
C        2.44063942       1.20618109      -0.17493674
H       -1.33199744       0.91429072      -1.65871203
H       -2.26397028       1.73425434      -0.39712241
H       -0.49811047       1.79261145      -0.37242898
H       -1.43888132       0.18207941       1.30457476
H       -3.45274777      -0.54091571       0.03539345
H       -2.43046829      -1.36622165      -1.14055027
H       -2.49244123      -1.94184792       0.52900054
H        0.85994533      -1.52968773       1.08727101
H        0.12048501      -1.46482644      -0.75901823
H        1.04573806       0.20715914       1.68495068
H        3.45219085      -0.44211987       0.72616218
H        2.63800124      -0.86447329      -0.80537572
H        1.79874919       1.54921181      -0.97465664
H        2.94817210       1.94870529       0.42486658
21
Frame=4 idx=006371 GeodesicLength=0.3947755442906342 rxn_smarts="[C:1]([C:2]([C:3]([H:12])([H:13])[H:14])([C:4]([C:5]1([H:17])[C:6]([H:18])([H:19])[C:7]1([H:20])[H:21])([H:15])[H:16])[H:11])([H:8])([H:9])[H:10]>>[C:1]([C:2]([C:3]([H:12])([H:13])[H:14])([C:4](=[C:5]([H:15])[H:17])[H:16])[H:11])([H:8])([H:9])[H:10].[C:6](=[C:7]([H:20])[H:21])([H:18])[H:19]"
C       -1.35965275       1.14606910      -0.62248006
C       -1.33305209      -0.11476398       0.25014175
C       -2.50040146      -1.04081223      -0.07304113
C       -0.01141083      -0.80090165       0.08088073
C        1.16035500      -0.40158270       0.78189474
C        2.65583680      -0.18317267       0.04919648
C        2.43459046       1.21738681      -0.13643909
H       -1.34148207       0.88454526      -1.68353091
H       -2.26254352       1.72985410      -0.43036598
H       -0.49694814       1.78453424      -0.42088030
H       -1.42581477       0.20848153       1.29415772
H       -3.45484555      -0.52719966       0.05991737
H       -2.44989447      -1.37944754      -1.11180921
H       -2.49681029      -1.92427007       0.56857421
H        0.84215168      -1.56416083       1.06333911
H        0.11285733      -1.45287346      -0.78077388
H        1.04428828       0.16455674       1.70063114
H        3.48049143      -0.44173173       0.70839165
H        2.64907293      -0.83090875      -0.82720873
H        1.81038418       1.57481155      -0.94393066
H        2.94282786       1.95158594       0.47333504
21
Frame=5 idx=006371 GeodesicLength=0.493350270972407 rxn_smarts="[C:1]([C:2]([C:3]([H:12])([H:13])[H:14])([C:4]([C:5]1([H:17])[C:6]([H:18])([H:19])[C:7]1([H:20])[H:21])([H:15])[H:16])[H:11])([H:8])([H:9])[H:10]>>[C:1]([C:2]([C:3]([H:12])([H:13])[H:14])([C:4](=[C:5]([H:15])[H:17])[H:16])[H:11])([H:8])([H:9])[H:10].[C:6](=[C:7]([H:20])[H:21])([H:18])[H:19]"
C       -1.36068292       1.13506762      -0.65171319
C       -1.33032072      -0.10841608       0.24435089
C       -2.50635913      -1.03372872      -0.04957809
C       -0.01532917      -0.80928504       0.07500706
C        1.15495104      -0.41859168       0.78003142
C        2.67789542      -0.17115176       0.04379227
C        2.42716936       1.22754196      -0.09768474
H       -1.35099593       0.85418875      -1.70799724
H       -2.26024035       1.72526990      -0.46353113
H       -0.49496900       1.77507815      -0.47006105
H       -1.41178634       0.23483577       1.28292357
H       -3.45635718      -0.51198304       0.08421776
H       -2.46921521      -1.39180093      -1.08241669
H       -2.50109286      -1.90522772       0.60819861
H        0.82363607      -1.59916804       1.03898055
H        0.10508954      -1.44198207      -0.80171012
H        1.04287378       0.12046318       1.71545907
H        3.50971131      -0.43882904       0.68975850
H        2.66008078      -0.79627466      -0.84814886
H        1.82031177       1.60017235      -0.91166627
H        2.93562975       1.95382111       0.52178766
21
Frame=6 idx=006371 GeodesicLength=0.5919350404797733 rxn_smarts="[C:1]([C:2]([C:3]([H:12])([H:13])[H:14])([C:4]([C:5]1([H:17])[C:6]([H:18])([H:19])[C:7]1([H:20])[H:21])([H:15])[H:16])[H:11])([H:8])([H:9])[H:10]>>[C:1]([C:2]([C:3]([H:12])([H:13])[H:14])([C:4](=[C:5]([H:15])[H:17])[H:16])[H:11])([H:8])([H:9])[H:10].[C:6](=[C:7]([H:20])[H:21])([H:18])[H:19]"
C       -1.36112670       1.12350551      -0.68095572
C       -1.32706792      -0.10215810       0.23823683
C       -2.51199741      -1.02556880      -0.02608644
C       -0.01926919      -0.81849895       0.06902222
C        1.14953225      -0.43658690       0.77803699
C        2.70024973      -0.15793098       0.03824693
C        2.41833559       1.23655717      -0.05880218
H       -1.36049920       0.82328555      -1.73203043
H       -2.25697746       1.72051601      -0.49654110
H       -0.49212336       1.76419253      -0.51985271
H       -1.39669766       0.26103232       1.27087497
H       -3.45721467      -0.49519153       0.10827839
H       -2.48845086      -1.40313016      -1.05239960
H       -2.50524502      -1.88466697       0.64779231
H        0.80428658      -1.63474690       1.01426246
H        0.09720315      -1.43222857      -0.82188354
H        1.04150139       0.07493328       1.72932679
H        3.53985962      -0.43313046       0.67035976
H        2.67100949      -0.76064699      -0.86809515
H        1.82828344       1.62508245      -0.87791109
H        2.92640823       1.95538049       0.57012035
21
Frame=7 idx=006371 GeodesicLength=0.6905682666994618 rxn_smarts="[C:1]([C:2]([C:3]([H:12])([H:13])[H:14])([C:4]([C:5]1([H:17])[C:6]([H:18])([H:19])[C:7]1([H:20])[H:21])([H:15])[H:16])[H:11])([H:8])([H:9])[H:10]>>[C:1]([C:2]([C:3]([H:12])([H:13])[H:14])([C:4](=[C:5]([H:15])[H:17])[H:16])[H:11])([H:8])([H:9])[H:10].[C:6](=[C:7]([H:20])[H:21])([H:18])[H:19]"
C       -1.36092836       1.11140006      -0.71012929
C       -1.32325088      -0.09602665       0.23181051
C       -2.51729216      -1.01628724      -0.00260592
C       -0.02322824      -0.82859393       0.06292368
C        1.14412007      -0.45564247       0.77589127
C        2.72290826      -0.14340886       0.03258388
C        2.40806385       1.24434761      -0.01994417
H       -1.36994638       0.79191996      -1.75555422
H       -2.25267448       1.71563430      -0.52931102
H       -0.48836061       1.75183510      -0.57011562
H       -1.38045894       0.28696016       1.25802770
H       -3.45736739      -0.47677217       0.13209240
H       -2.50763038      -1.41330802      -1.02180330
H       -2.50923897      -1.86257959       0.68725761
H        0.78399632      -1.67092382       0.98926246
H        0.08921776      -1.42366663      -0.84135092
H        1.04019323       0.02803416       1.74213931
H        3.57094657      -0.42438234       0.65030631
H        2.68185303      -0.72417275      -0.88694827
H        1.83408074       1.64937081      -0.84275853
H        2.91499695       1.95626231       0.61822612
21
Frame=8 idx=006371 GeodesicLength=0.7892822088997878 rxn_smarts="[C:1]([C:2]([C:3]([H:12])([H:13])[H:14])([C:4]([C:5]1([H:17])[C:6]([H:18])([H:19])[C:7]1([H:20])[H:21])([H:15])[H:16])[H:11])([H:8])([H:9])[H:10]>>[C:1]([C:2]([C:3]([H:12])([H:13])[H:14])([C:4](=[C:5]([H:15])[H:17])[H:16])[H:11])([H:8])([H:9])[H:10].[C:6](=[C:7]([H:20])[H:21])([H:18])[H:19]"
C       -1.36004486       1.09875147      -0.73919311
C       -1.31881625      -0.09006069       0.22506934
C       -2.52220210      -1.00582833       0.02085626
C       -0.02721474      -0.83962550       0.05669022
C        1.13873006      -0.47584460       0.77353839
C        2.74585494      -0.12745503       0.02683316
C        2.39633156       1.25083253       0.01879132
H       -1.37933370       0.76013524      -1.77852196
H       -2.24724720       1.71064484      -0.56179685
H       -0.48363973       1.73795089      -0.62077369
H       -1.36294147       0.31252208       1.24437912
H       -3.45672621      -0.45665099       0.15568363
H       -2.52678524      -1.42220541      -0.99063958
H       -2.51300411      -1.83892474       0.72654934
H        0.76262545      -1.70773239       0.96403461
H        0.08112989      -1.41635999      -0.86018301
H        1.03897259      -0.02019298       1.75379285
H        3.60296712      -0.41231073       0.62970490
H        2.69256944      -0.68692552      -0.90464860
H        1.83748736       1.67287560      -0.80624572
H        2.90128720       1.95640426       0.66607937
21
Frame=9 idx=006371 GeodesicLength=0.8875076611268151 rxn_smarts="[C:1]([C:2]([C:3]([H:12])([H:13])[H:14])([C:4]([C:5]1([H:17])[C:6]([H:18])([H:19])[C:7]1([H:20])[H:21])([H:15])[H:16])[H:11])([H:8])([H:9])[H:10]>>[C:1]([C:2]([C:3]([H:12])([H:13])[H:14])([C:4](=[C:5]([H:15])[H:17])[H:16])[H:11])([H:8])([H:9])[H:10].[C:6](=[C:7]([H:20])[H:21])([H:18])[H:19]"
C       -1.35855602       1.08571925      -0.76790966
C       -1.31374326      -0.08430160       0.21803744
C       -2.52658935      -0.99422001       0.04418932
C       -0.03123802      -0.85153038       0.05021560
C        1.13345230      -0.49725065       0.77080350
C        2.76901940      -0.11005541       0.02122698
C        2.38322294       1.25592776       0.05692264
H       -1.38879783       0.72831689      -1.80074045
H       -2.24074711       1.70566587      -0.59363251
H       -0.47812251       1.72272428      -0.67141516
H       -1.34412855       0.33742276       1.23003587
H       -3.45513722      -0.43493628       0.17911176
H       -2.54585611      -1.42960183      -0.95910278
H       -2.51627875      -1.81390033       0.76538370
H        0.73994267      -1.74501828       0.93872312
H        0.07289938      -1.41017647      -0.87856435
H        1.03801294      -0.06965383       1.76408749
H        3.63548340      -0.39646550       0.60914122
H        2.70347170      -0.64941617      -0.92072519
H        1.83868453       1.69494213      -0.76907207
H        2.88500549       1.95580781       0.71328354
21
Frame=10 idx=006371 GeodesicLength=0.9858792489288402 rxn_smarts="[C:1]([C:2]([C:3]([H:12])([H:13])[H:14])([C:4]([C:5]1([H:17])[C:6]([H:18])([H:19])[C:7]1([H:20])[H:21])([H:15])[H:16])[H:11])([H:8])([H:9])[H:10]>>[C:1]([C:2]([C:3]([H:12])([H:13])[H:14])([C:4](=[C:5]([H:15])[H:17])[H:16])[H:11])([H:8])([H:9])[H:10].[C:6](=[C:7]([H:20])[H:21])([H:18])[H:19]"
C       -1.35630302       1.07219987      -0.79641967
C       -1.30796539      -0.07875695       0.21070809
C       -2.53052037      -0.98138619       0.06748378
C       -0.03529659      -0.86443821       0.04357508
C        1.12825147      -0.51994371       0.76775890
C        2.79243403      -0.09104209       0.01554175
C        2.36867720       1.25961885       0.09468988
H       -1.39813731       0.69624240      -1.82231694
H       -2.23299993       1.70065927      -0.62508120
H       -0.47161568       1.70597570      -0.72224490
H       -1.32388121       0.36179251       1.21494121
H       -3.45262631      -0.41145745       0.20238260
H       -2.56494203      -1.43553639      -0.92705534
H       -2.51922759      -1.78733976       0.80395283
H        0.71593267      -1.78297201       0.91329375
H        0.06455506      -1.40533036      -0.89641878
H        1.03721934      -0.12036470       1.77308485
H        3.66878269      -0.37687254       0.58824623
H        2.71429730      -0.61142190      -0.93553762
H        1.83722624       1.71593528      -0.73074850
H        2.86613943       1.95443837       0.76016400
21
Frame=11 idx=006371 GeodesicLength=1.0844272096991734 rxn_smarts="[C:1]([C:2]([C:3]([H:12])([H:13])[H:14])([C:4]([C:5]1([H:17])[C:6]([H:18])([H:19])[C:7]1([H:20])[H:21])([H:15])[H:16])[H:11])([H:8])([H:9])[H:10]>>[C:1]([C:2]([C:3]([H:12])([H:13])[H:14])([C:4](=[C:5]([H:15])[H:17])[H:16])[H:11])([H:8])([H:9])[H:10].[C:6](=[C:7]([H:20])[H:21])([H:18])[H:19]"
C       -1.35323041       1.05819698      -0.82471655
C       -1.30141369      -0.07345423       0.20306943
C       -2.53393574      -0.96726938       0.09076542
C       -0.03939579      -0.87840708       0.03673323
C        1.12316518      -0.54403357       0.76431932
C        2.81605414      -0.07027372       0.00978815
C        2.35266816       1.26185386       0.13203074
H       -1.40735105       0.66395017      -1.84323273
H       -2.22391296       1.69565651      -0.65613171
H       -0.46407985       1.68765580      -0.77324437
H       -1.30205317       0.38556093       1.19907296
H       -3.44907973      -0.38612094       0.22555969
H       -2.58407443      -1.43989347      -0.89446214
H       -2.52176334      -1.75919013       0.84226692
H        0.69045884      -1.82165358       0.88777464
H        0.05607954      -1.40188350      -0.91382451
H        1.03664201      -0.17234601       1.78071182
H        3.70276336      -0.35325857       0.56712069
H        2.72504212      -0.57302363      -0.94906024
H        1.83290537       1.73570508      -0.69131004
H        2.84451144       1.95222848       0.80676929
21
Frame=12 idx=006371 GeodesicLength=1.1831777410901925 rxn_smarts="[C:1]([C:2]([C:3]([H:12])([H:13])[H:14])([C:4]([C:5]1([H:17])[C:6]([H:18])([H:19])[C:7]1([H:20])[H:21])([H:15])[H:16])[H:11])([H:8])([H:9])[H:10]>>[C:1]([C:2]([C:3]([H:12])([H:13])[H:14])([C:4](=[C:5]([H:15])[H:17])[H:16])[H:11])([H:8])([H:9])[H:10].[C:6](=[C:7]([H:20])[H:21])([H:18])[H:19]"
C       -1.34929349       1.04373014      -0.85276342
C       -1.29402701      -0.06841701       0.19512807
C       -2.53677794      -0.95182745       0.11403806
C       -0.04354684      -0.89348153       0.02966958
C        1.11822108      -0.56960729       0.76041457
C        2.83982911      -0.04762972       0.00398999
C        2.33518890       1.26257874       0.16884537
H       -1.41642224       0.63151292      -1.86345060
H       -2.21340781       1.69069465      -0.68674060
H       -0.45550312       1.66774772      -0.82434053
H       -1.27852420       0.40865192       1.18243974
H       -3.44438985      -0.35886877       0.24868786
H       -2.60326585      -1.44256077      -0.86133456
H       -2.52380295      -1.72945052       0.88029199
H        0.66339666      -1.86109212       0.86220602
H        0.04744944      -1.39987788      -0.93084235
H        1.03632503      -0.22558363       1.78691006
H        3.73730593      -0.32534713       0.54587659
H        2.73571080      -0.53435371      -0.96124452
H        1.82555901       1.75406678      -0.65086262
H        2.81997535       1.94911467       0.85308130
21
Frame=13 idx=006371 GeodesicLength=1.2821919263174164 rxn_smarts="[C:1]([C:2]([C:3]([H:12])([H:13])[H:14])([C:4]([C:5]1([H:17])[C:6]([H:18])([H:19])[C:7]1([H:20])[H:21])([H:15])[H:16])[H:11])([H:8])([H:9])[H:10]>>[C:1]([C:2]([C:3]([H:12])([H:13])[H:14])([C:4](=[C:5]([H:15])[H:17])[H:16])[H:11])([H:8])([H:9])[H:10].[C:6](=[C:7]([H:20])[H:21])([H:18])[H:19]"
C       -1.34443912       1.02879650      -0.88056075
C       -1.28573135      -0.06367853       0.18687323
C       -2.53896304      -0.93499013       0.13733782
C       -0.04776456      -0.90972273       0.02234755
C        1.11345332      -0.59677526       0.75594038
C        2.86368020      -0.02293353      -0.00183437
C        2.31622035       1.26172728       0.20507785
H       -1.42534924       0.59896361      -1.88295944
H       -2.20138657       1.68578768      -0.71691309
H       -0.44586410       1.64620371      -0.87552537
H       -1.25313893       0.43098766       1.16502145
H       -3.43840361      -0.32959973       0.27183302
H       -2.62253381      -1.44341529      -0.82762438
H       -2.52522138      -1.69804909       0.91805813
H        0.63458668      -1.90132614       0.83660174
H        0.03862623      -1.39938014      -0.94754440
H        1.03633156      -0.28012483       1.79160371
H        3.77224625      -0.29284139       0.52464315
H        2.74628759      -0.49545841      -0.97207342
H        1.81499123       1.77086030      -0.60944116
H        2.79237229       1.94496848       0.89913834
21
Frame=14 idx=006371 GeodesicLength=1.3815645347993966 rxn_smarts="[C:1]([C:2]([C:3]([H:12])([H:13])[H:14])([C:4]([C:5]1([H:17])[C:6]([H:18])([H:19])[C:7]1([H:20])[H:21])([H:15])[H:16])[H:11])([H:8])([H:9])[H:10]>>[C:1]([C:2]([C:3]([H:12])([H:13])[H:14])([C:4](=[C:5]([H:15])[H:17])[H:16])[H:11])([H:8])([H:9])[H:10].[C:6](=[C:7]([H:20])[H:21])([H:18])[H:19]"
C       -1.33861283       1.01338474      -0.90812384
C       -1.27644491      -0.05926204       0.17829657
C       -2.54040766      -0.91668980       0.16070041
C       -0.05207236      -0.92719512       0.01474096
C        1.10889360      -0.62564531       0.75079145
C        2.88750328       0.00402411      -0.00768460
C        2.29573095       1.25923807       0.24069486
H       -1.43414257       0.56632133      -1.90175717
H       -2.18772566       1.68097176      -0.74665394
H       -0.43511723       1.62296574      -0.92681547
H       -1.22572921       0.45249741       1.14678416
H       -3.43096618      -0.29820495       0.29506600
H       -2.64189063      -1.44233820      -0.79328257
H       -2.52591157      -1.66493586       0.95559180
H        0.60388765      -1.94238768       0.81098457
H        0.02955576      -1.40047000      -0.96398457
H        1.03672607      -0.33602099       1.79472187
H        3.80740188      -0.25543545       0.50349532
H        2.75675515      -0.45640298      -0.98151859
H        1.80099009       1.78592161      -0.56705796
H        2.76157639       1.93966359       0.94501072
21
Frame=15 idx=006371 GeodesicLength=1.4814033471125578 rxn_smarts="[C:1]([C:2]([C:3]([H:12])([H:13])[H:14])([C:4]([C:5]1([H:17])[C:6]([H:18])([H:19])[C:7]1([H:20])[H:21])([H:15])[H:16])[H:11])([H:8])([H:9])[H:10]>>[C:1]([C:2]([C:3]([H:12])([H:13])[H:14])([C:4](=[C:5]([H:15])[H:17])[H:16])[H:11])([H:8])([H:9])[H:10].[C:6](=[C:7]([H:20])[H:21])([H:18])[H:19]"
C       -1.33174420       0.99746797      -0.93548812
C       -1.26607475      -0.05520013       0.16937625
C       -2.54100054      -0.89682763       0.18417979
C       -0.05649971      -0.94598076       0.00681595
C        1.10457640      -0.65634774       0.74483921
C        2.91115447       0.03346472      -0.01353929
C        2.27368008       1.25503158       0.27568402
H       -1.44281838       0.53358049      -1.91984926
H       -2.17228179       1.67626327      -0.77600336
H       -0.42321212       1.59794664      -0.97826388
H       -1.19610121       0.47311575       1.12767631
H       -3.42187813      -0.26453843       0.31846265
H       -2.66134369      -1.43918412      -0.75821842
H       -2.52572211      -1.63000502       0.99295568
H        0.57114167      -1.98431354       0.78535538
H        0.02016536      -1.40325205      -0.98022099
H        1.03758616      -0.39337932       1.79617934
H        3.84253290      -0.21273528       0.48251677
H        2.76707383      -0.41719022      -0.98956427
H        1.78330891       1.79908504      -0.52367468
H        2.72745685       1.93299879       0.99078090
21
Frame=16 idx=006371 GeodesicLength=1.5818530643439423 rxn_smarts="[C:1]([C:2]([C:3]([H:12])([H:13])[H:14])([C:4]([C:5]1([H:17])[C:6]([H:18])([H:19])[C:7]1([H:20])[H:21])([H:15])[H:16])[H:11])([H:8])([H:9])[H:10]>>[C:1]([C:2]([C:3]([H:12])([H:13])[H:14])([C:4](=[C:5]([H:15])[H:17])[H:16])[H:11])([H:8])([H:9])[H:10].[C:6](=[C:7]([H:20])[H:21])([H:18])[H:19]"
C       -1.32376671       0.98102514      -0.96268091
C       -1.25452307      -0.05152315       0.16009456
C       -2.54061447      -0.87530248       0.20782843
C       -0.06107934      -0.96615743      -0.00146047
C        1.10054047      -0.68900860       0.73794228
C        2.93445825       0.06564733      -0.01937122
C        2.25003530       1.24901623       0.30999752
H       -1.45139270       0.50075843      -1.93723205
H       -2.15490618       1.67168533      -0.80498819
H       -0.41010727       1.57106219      -1.02991378
H       -1.16406028       0.49276333       1.10765025
H       -3.41091918      -0.22845654       0.34209501
H       -2.68088184      -1.43379424      -0.72234699
H       -2.52448001      -1.59316022       1.03020449
H        0.53618459      -2.02711490       0.75972094
H        0.01037352      -1.40782768      -0.99631049
H        1.03901996      -0.45231111       1.79586689
H        3.87733885      -0.16435365       0.46183532
H        2.77722690      -0.37786129      -0.99615572
H        1.76168176       1.81015188      -0.47926833
H        2.68987145       1.92476141       1.03649245
