11
Frame=0 idx=005695 GeodesicLength=0.0 rxn_smarts="[C:1]([C@@:2]1([C:5]#[N:6])[C:3]([H:10])([H:11])[O:4]1)([H:7])([H:8])[H:9]>>[C:1]([C:2]([C:3]([C:5]#[N:6])([H:10])[H:11])=[O:4])([H:7])([H:8])[H:9]"
C       -1.29877315      -0.37183460      -0.14159609
C        0.18415537      -0.14800491      -0.45454971
C        1.15655846      -0.38508232       0.60617405
O        0.63891530      -0.66067526      -1.54718408
C        0.44974831       1.40026624      -0.16571468
N        0.70054488       2.50625694       0.04835713
H       -1.89175578       0.08103145      -0.93299016
H       -1.48033780      -1.44631926      -0.13967307
H       -1.58013821       0.06310287       0.81897584
H        2.19183578      -0.26959090       0.30723703
H        0.92924685      -0.76915021       1.60096370
11
Frame=1 idx=005695 GeodesicLength=0.07003595883372418 rxn_smarts="[C:1]([C@@:2]1([C:5]#[N:6])[C:3]([H:10])([H:11])[O:4]1)([H:7])([H:8])[H:9]>>[C:1]([C:2]([C:3]([C:5]#[N:6])([H:10])[H:11])=[O:4])([H:7])([H:8])[H:9]"
C       -1.30512028      -0.36764339      -0.14482062
C        0.17427186      -0.14488377      -0.45864595
C        1.16162081      -0.38081651       0.58946502
O        0.65145356      -0.68560671      -1.52724001
C        0.46265120       1.40674839      -0.14384335
N        0.69327162       2.51619855       0.07231446
H       -1.89599946       0.05557987      -0.95403377
H       -1.48048526      -1.44235820      -0.10245907
H       -1.59743881       0.09571723       0.79892791
H        2.19810728      -0.25971929       0.29702534
H        0.93766747      -0.79321617       1.57331004
11
Frame=2 idx=005695 GeodesicLength=0.1401273263246139 rxn_smarts="[C:1]([C@@:2]1([C:5]#[N:6])[C:3]([H:10])([H:11])[O:4]1)([H:7])([H:8])[H:9]>>[C:1]([C:2]([C:3]([C:5]#[N:6])([H:10])[H:11])=[O:4])([H:7])([H:8])[H:9]"
C       -1.31107168      -0.36345767      -0.14829967
C        0.16489653      -0.14169852      -0.46336380
C        1.16654466      -0.37662875       0.57261615
O        0.66290944      -0.71017642      -1.50727583
C        0.47569285       1.41291180      -0.12135187
N        0.68553248       2.52543507       0.09765044
H       -1.89999378       0.02819779      -0.97469504
H       -1.48028257      -1.43672036      -0.06397425
H       -1.61470085       0.12895307       0.77687127
H        2.20426832      -0.25060838       0.28667266
H        0.94620459      -0.81620763       1.54514993
11
Frame=3 idx=005695 GeodesicLength=0.21027350884895463 rxn_smarts="[C:1]([C@@:2]1([C:5]#[N:6])[C:3]([H:10])([H:11])[O:4]1)([H:7])([H:8])[H:9]>>[C:1]([C:2]([C:3]([C:5]#[N:6])([H:10])[H:11])=[O:4])([H:7])([H:8])[H:9]"
C       -1.31664553      -0.35929948      -0.15202085
C        0.15600247      -0.13847004      -0.46867204
C        1.17135343      -0.37250678       0.55563724
O        0.67329693      -0.73433340      -1.48734465
C        0.48880582       1.41872141      -0.09818815
N        0.67743571       2.53387967       0.12434828
H       -1.90372778      -0.00118958      -0.99483058
H       -1.47976313      -1.42924887      -0.02428212
H       -1.63193282       0.16273284       0.75267312
H        2.21032121      -0.24217225       0.27611148
H        0.95485368      -0.83811352       1.51656827
11
Frame=4 idx=005695 GeodesicLength=0.2804568557727698 rxn_smarts="[C:1]([C@@:2]1([C:5]#[N:6])[C:3]([H:10])([H:11])[O:4]1)([H:7])([H:8])[H:9]>>[C:1]([C:2]([C:3]([C:5]#[N:6])([H:10])[H:11])=[O:4])([H:7])([H:8])[H:9]"
C       -1.32186457      -0.35517795      -0.15597563
C        0.14756125      -0.13521332      -0.47453868
C        1.17605963      -0.36845113       0.53853839
O        0.68264277      -0.75799683      -1.46751003
C        0.50193502       1.42413554      -0.07428056
N        0.66907149       2.54146732       0.15234632
H       -1.90720439      -0.03264059      -1.01427646
H       -1.47893095      -1.41977781       0.01653078
H       -1.64913017       0.19693455       0.72621990
H        2.21626335      -0.23437656       0.26528070
H        0.96359657      -0.85890322       1.48766528
11
Frame=5 idx=005695 GeodesicLength=0.350666020468698 rxn_smarts="[C:1]([C@@:2]1([C:5]#[N:6])[C:3]([H:10])([H:11])[O:4]1)([H:7])([H:8])[H:9]>>[C:1]([C:2]([C:3]([C:5]#[N:6])([H:10])[H:11])=[O:4])([H:7])([H:8])[H:9]"
C       -1.32675142      -0.35108911      -0.16014826
C        0.13954284      -0.13193962      -0.48093177
C        1.18067526      -0.36446208       0.52132251
O        0.69098125      -0.78109067      -1.44783172
C        0.51503611       1.42910757      -0.04956130
N        0.66049504       2.54813793       0.18160933
H       -1.91040887      -0.06624034      -1.03287171
H       -1.47778392      -1.40811943       0.05840794
H       -1.66629655       0.23147113       0.69737469
H        2.22209137      -0.22718824       0.25411386
H        0.97241889      -0.87858715       1.45851642
11
Frame=6 idx=005695 GeodesicLength=0.420895240335026 rxn_smarts="[C:1]([C@@:2]1([C:5]#[N:6])[C:3]([H:10])([H:11])[O:4]1)([H:7])([H:8])[H:9]>>[C:1]([C:2]([C:3]([C:5]#[N:6])([H:10])[H:11])=[O:4])([H:7])([H:8])[H:9]"
C       -1.33133477      -0.34705454      -0.16454464
C        0.13191350      -0.12867081      -0.48783026
C        1.18521430      -0.36054000       0.50397476
O        0.69834664      -0.80357909      -1.42836609
C        0.52802557       1.43358156      -0.02395530
N        0.65182427       2.55381319       0.21214461
H       -1.91333757      -0.10204862      -1.05043707
H       -1.47636307      -1.39408689       0.10130058
H       -1.68341006       0.26624050       0.66596893
H        2.22780185      -0.22049725       0.24255404
H        0.98131933      -0.89715804       1.42919045
11
Frame=7 idx=005695 GeodesicLength=0.4911364337757799 rxn_smarts="[C:1]([C@@:2]1([C:5]#[N:6])[C:3]([H:10])([H:11])[O:4]1)([H:7])([H:8])[H:9]>>[C:1]([C:2]([C:3]([C:5]#[N:6])([H:10])[H:11])=[O:4])([H:7])([H:8])[H:9]"
C       -1.33564180      -0.34307433      -0.16915586
C        0.12463831      -0.12541582      -0.49521452
C        1.18968362      -0.35669164       0.48647829
O        0.70478158      -0.82539517      -1.40918075
C        0.54084395       1.43749576       0.00262276
N        0.64312856       2.55843082       0.24396053
H       -1.91597263      -0.14017278      -1.06678439
H       -1.47467479      -1.37745437       0.14517891
H       -1.70046132       0.30115836       0.63181522
H        2.23338758      -0.21424667       0.23053710
H        0.99028694      -0.91463417       1.39974272
11
Frame=8 idx=005695 GeodesicLength=0.5613391476411339 rxn_smarts="[C:1]([C@@:2]1([C:5]#[N:6])[C:3]([H:10])([H:11])[O:4]1)([H:7])([H:8])[H:9]>>[C:1]([C:2]([C:3]([C:5]#[N:6])([H:10])[H:11])=[O:4])([H:7])([H:8])[H:9]"
C       -1.33970492      -0.33916673      -0.17396139
C        0.11767944      -0.12219227      -0.50304645
C        1.19407221      -0.35290969       0.46885322
O        0.71035369      -0.84648176      -1.39031304
C        0.55339426       1.44077931       0.03028194
N        0.63454031       2.56198086       0.27683260
H       -1.91831081      -0.18049823      -1.08163356
H       -1.47275803      -1.35807395       0.18977572
H       -1.71738424       0.33594134       0.59489084
H        2.23882776      -0.20834012       0.21806662
H        0.99929032      -0.93103876       1.37025350
11
Frame=9 idx=005695 GeodesicLength=0.6314303733198539 rxn_smarts="[C:1]([C@@:2]1([C:5]#[N:6])[C:3]([H:10])([H:11])[O:4]1)([H:7])([H:8])[H:9]>>[C:1]([C:2]([C:3]([C:5]#[N:6])([H:10])[H:11])=[O:4])([H:7])([H:8])[H:9]"
C       -1.34354968      -0.33538232      -0.17892649
C        0.11100626      -0.11904306      -0.51127487
C        1.19837083      -0.34918172       0.45113977
O        0.71515027      -0.86682989      -1.37176721
C        0.56554634       1.44334496       0.05914057
N        0.62618512       2.56449043       0.31038707
H       -1.92032613      -0.22266614      -1.09468000
H       -1.47073682      -1.33590974       0.23466081
H       -1.73404380       0.37019328       0.55532192
H        2.24409920      -0.20263068       0.20517409
H        1.00829841      -0.94638512       1.34082433
11
Frame=10 idx=005695 GeodesicLength=0.7013513091248472 rxn_smarts="[C:1]([C@@:2]1([C:5]#[N:6])[C:3]([H:10])([H:11])[O:4]1)([H:7])([H:8])[H:9]>>[C:1]([C:2]([C:3]([C:5]#[N:6])([H:10])[H:11])=[O:4])([H:7])([H:8])[H:9]"
C       -1.34721538      -0.33168380      -0.18403491
C        0.10456904      -0.11594706      -0.51986046
C        1.20251477      -0.34548445       0.43339712
O        0.71925037      -0.88632360      -1.35357384
C        0.57723182       1.44511403       0.08932848
N        0.61823034       2.56604159       0.34418787
H       -1.92207396      -0.26647679      -1.10567277
H       -1.46852508      -1.31091943       0.27941157
H       -1.75034192       0.40351215       0.51334100
H        2.24914237      -0.19708552       0.19196634
H        1.01721763      -0.96074713       1.31150961
11
Frame=11 idx=005695 GeodesicLength=0.7711865564473093 rxn_smarts="[C:1]([C@@:2]1([C:5]#[N:6])[C:3]([H:10])([H:11])[O:4]1)([H:7])([H:8])[H:9]>>[C:1]([C:2]([C:3]([C:5]#[N:6])([H:10])[H:11])=[O:4])([H:7])([H:8])[H:9]"
C       -1.35070175      -0.32811135      -0.18930805
C        0.09836142      -0.11297153      -0.52885499
C        1.20656587      -0.34182682       0.41551725
O        0.72268357      -0.90510016      -1.33578165
C        0.58842265       1.44597483       0.12077268
N        0.61046641       2.56642829       0.37879772
H       -1.92348745      -0.31209202      -1.11448006
H       -1.46627114      -1.28274061       0.32432882
H       -1.76616425       0.43611272       0.46845404
H        2.25398869      -0.19155532       0.17826570
H        1.02613598      -0.97411803       1.28228853
11
Frame=12 idx=005695 GeodesicLength=0.8408979367366777 rxn_smarts="[C:1]([C@@:2]1([C:5]#[N:6])[C:3]([H:10])([H:11])[O:4]1)([H:7])([H:8])[H:9]>>[C:1]([C:2]([C:3]([C:5]#[N:6])([H:10])[H:11])=[O:4])([H:7])([H:8])[H:9]"
C       -1.35404670      -0.32460797      -0.19466056
C        0.09233707      -0.11009073      -0.53819423
C        1.21046823      -0.33816718       0.39758270
O        0.72553727      -0.92308318      -1.31836981
C        0.59902838       1.44585468       0.15361772
N        0.60307431       2.56577318       0.41369975
H       -1.92453969      -0.35922190      -1.12082487
H       -1.46393744      -1.25142262       0.36885314
H       -1.78149772       0.46758470       0.42095623
H        2.25858306      -0.18598150       0.16415956
H        1.03499322      -0.98663749       1.25318038
11
Frame=13 idx=005695 GeodesicLength=0.9105818723014968 rxn_smarts="[C:1]([C@@:2]1([C:5]#[N:6])[C:3]([H:10])([H:11])[O:4]1)([H:7])([H:8])[H:9]>>[C:1]([C:2]([C:3]([C:5]#[N:6])([H:10])[H:11])=[O:4])([H:7])([H:8])[H:9]"
C       -1.35725461      -0.32117822      -0.20014644
C        0.08648961      -0.10736080      -0.54796864
C        1.21423836      -0.33449385       0.37949673
O        0.72785456      -0.94041125      -1.30138822
C        0.60906627       1.44465776       0.18770549
N        0.59583667       2.56386892       0.44944683
H       -1.92524992      -0.40800018      -1.12450242
H       -1.46157305      -1.21655474       0.41316101
H       -1.79614634       0.49799384       0.37048166
H        2.26293260      -0.18026730       0.14953847
H        1.04380587      -0.99825418       1.22417553
11
Frame=14 idx=005695 GeodesicLength=0.9802432960156877 rxn_smarts="[C:1]([C@@:2]1([C:5]#[N:6])[C:3]([H:10])([H:11])[O:4]1)([H:7])([H:8])[H:9]>>[C:1]([C:2]([C:3]([C:5]#[N:6])([H:10])[H:11])=[O:4])([H:7])([H:8])[H:9]"
C       -1.36033667      -0.31783464      -0.20572569
C        0.08079763      -0.10483734      -0.55817898
C        1.21784850      -0.33075491       0.36129415
O        0.72971103      -0.95718564      -1.28477214
C        0.61848929       1.44230002       0.22294392
N        0.58873094       2.56068790       0.48584926
H       -1.92563360      -0.45792664      -1.12526281
H       -1.45924362      -1.17818711       0.45674198
H       -1.80990557       0.52696036       0.31730907
H        2.26700249      -0.17430214       0.13443869
H        1.05253959      -1.00891987       1.19536253
11
Frame=15 idx=005695 GeodesicLength=1.0498856067677202 rxn_smarts="[C:1]([C@@:2]1([C:5]#[N:6])[C:3]([H:10])([H:11])[O:4]1)([H:7])([H:8])[H:9]>>[C:1]([C:2]([C:3]([C:5]#[N:6])([H:10])[H:11])=[O:4])([H:7])([H:8])[H:9]"
C       -1.36331512      -0.31454475      -0.21132230
C        0.07521848      -0.10251616      -0.56879067
C        1.22123775      -0.32690204       0.34304309
O        0.73117898      -0.97336111      -1.26848300
C        0.62725001       1.43871602       0.25932546
N        0.58191224       2.55629753       0.52250499
H       -1.92566329      -0.50856102      -1.12290999
H       -1.45695465      -1.13653446       0.49900143
H       -1.82271696       0.55407694       0.26186726
H        2.27073089      -0.16802386       0.11894744
H        1.06112166      -1.01864708       1.16681628
11
Frame=16 idx=005695 GeodesicLength=1.1195052749727892 rxn_smarts="[C:1]([C@@:2]1([C:5]#[N:6])[C:3]([H:10])([H:11])[O:4]1)([H:7])([H:8])[H:9]>>[C:1]([C:2]([C:3]([C:5]#[N:6])([H:10])[H:11])=[O:4])([H:7])([H:8])[H:9]"
C       -1.36619066      -0.31137195      -0.21695901
C        0.06974563      -0.10051330      -0.57985068
C        1.22436050      -0.32287033       0.32479649
O        0.73237074      -0.98913395      -1.25240089
C        0.63539136       1.43389068       0.29644394
N        0.57526125       2.55067348       0.55918961
H       -1.92551299      -0.55896658      -1.11742474
H       -1.45474776      -1.09203654       0.53926203
H       -1.83421896       0.57888319       0.20495969
H        2.27408947      -0.16136622       0.10319673
H        1.06945143      -1.02718847       1.13878684
