11
Frame=0 idx=003741 GeodesicLength=0.0 rxn_smarts="[C:1]([C@@:2]([N:3]([H:10])[H:11])([C:4]#[N:5])[H:9])([H:6])([H:7])[H:8]>>[C:1]([C@@:2]([N:3]([H:10])[H:11])([N+:5]#[C-:4])[H:9])([H:6])([H:7])[H:8]"
C        1.22791696      -0.07872433       0.20696259
C       -0.10782396      -0.22135665      -0.43318573
N       -1.03449183      -0.97657664       0.13341720
C       -0.92055230       1.80953778      -0.70222583
N       -0.71615547       1.91189104       0.44539166
H        1.75298843       0.77784517      -0.20370223
H        1.14738207       0.04089200       1.28520467
H        1.79500595      -0.98830250      -0.01791639
H       -0.15045968      -0.17330977      -1.51067845
H       -1.91268971      -1.09662936      -0.34250028
H       -1.08112041      -1.00526679       1.13923275
11
Frame=1 idx=003741 GeodesicLength=0.05408782842971723 rxn_smarts="[C:1]([C@@:2]([N:3]([H:10])[H:11])([C:4]#[N:5])[H:9])([H:6])([H:7])[H:8]>>[C:1]([C@@:2]([N:3]([H:10])[H:11])([N+:5]#[C-:4])[H:9])([H:6])([H:7])[H:8]"
C        1.22918471      -0.07666307       0.20653789
C       -0.11344627      -0.19981291      -0.42819606
N       -1.03167704      -0.98108487       0.13322508
C       -0.91742622       1.81014946      -0.70857246
N       -0.72960244       1.89488173       0.44157471
H        1.76226478       0.77624381      -0.20209288
H        1.15375114       0.03928398       1.28578602
H        1.78592656      -0.99123554      -0.02201638
H       -0.14449593      -0.17559043      -1.50785721
H       -1.91440700      -1.08924665      -0.33766098
H       -1.08007229      -1.00692553       1.13927227
11
Frame=2 idx=003741 GeodesicLength=0.10820675947223503 rxn_smarts="[C:1]([C@@:2]([N:3]([H:10])[H:11])([C:4]#[N:5])[H:9])([H:6])([H:7])[H:8]>>[C:1]([C@@:2]([N:3]([H:10])[H:11])([N+:5]#[C-:4])[H:9])([H:6])([H:7])[H:8]"
C        1.23031443      -0.07465575       0.20601240
C       -0.11889168      -0.17893340      -0.42342921
N       -1.02889612      -0.98534055       0.13287093
C       -0.91428052       1.81077466      -0.71435324
N       -0.74277390       1.87821172       0.43778487
H        1.77138719       0.77437363      -0.20088613
H        1.15986336       0.03795061       1.28620287
H        1.77692360      -0.99406368      -0.02574127
H       -0.13861950      -0.17756864      -1.50466840
H       -1.91591278      -1.08238702      -0.33294535
H       -1.07911408      -1.00836158       1.13915251
11
Frame=3 idx=003741 GeodesicLength=0.1622956460155403 rxn_smarts="[C:1]([C@@:2]([N:3]([H:10])[H:11])([C:4]#[N:5])[H:9])([H:6])([H:7])[H:8]>>[C:1]([C@@:2]([N:3]([H:10])[H:11])([N+:5]#[C-:4])[H:9])([H:6])([H:7])[H:8]"
C        1.23126956      -0.07270066       0.20539075
C       -0.12414789      -0.15869301      -0.41886192
N       -1.02610766      -0.98937476       0.13236177
C       -0.91109805       1.81137881      -0.71956057
N       -0.75567865       1.86186416       0.43399898
H        1.78027762       0.77223970      -0.20004809
H        1.16568819       0.03688983       1.28642034
H        1.76793792      -0.99680301      -0.02910617
H       -0.13280133      -0.17927926      -1.50111408
H       -1.91716352      -1.07593450      -0.32832860
H       -1.07817619      -1.00958730       1.13884759
11
Frame=4 idx=003741 GeodesicLength=0.21635597404537427 rxn_smarts="[C:1]([C@@:2]([N:3]([H:10])[H:11])([C:4]#[N:5])[H:9])([H:6])([H:7])[H:8]>>[C:1]([C@@:2]([N:3]([H:10])[H:11])([N+:5]#[C-:4])[H:9])([H:6])([H:7])[H:8]"
C        1.23209683      -0.07079173       0.20468394
C       -0.12921676      -0.13905777      -0.41450823
N       -1.02333234      -0.99319348       0.13172954
C       -0.90792233       1.81195348      -0.72422553
N       -0.76831553       1.84580948       0.43024911
H        1.78899923       0.76985080      -0.19955440
H        1.17126254       0.03609288       1.28648010
H        1.75902031      -0.99945741      -0.03211538
H       -0.12710275      -0.18073520      -1.49727776
H       -1.91818921      -1.06990005      -0.32385895
H       -1.07730001      -1.01057101       1.13839758
11
Frame=5 idx=003741 GeodesicLength=0.27044410442678213 rxn_smarts="[C:1]([C@@:2]([N:3]([H:10])[H:11])([C:4]#[N:5])[H:9])([H:6])([H:7])[H:8]>>[C:1]([C@@:2]([N:3]([H:10])[H:11])([N+:5]#[C-:4])[H:9])([H:6])([H:7])[H:8]"
C        1.23283390      -0.06892210       0.20391133
C       -0.13410245      -0.11999039      -0.41036209
N       -1.02059624      -0.99684401       0.13098984
C       -0.90478559       1.81250263      -0.72840144
N       -0.78072024       1.83002413       0.42651163
H        1.79760056       0.76723014      -0.19938891
H        1.17663343       0.03554049       1.28642067
H        1.75019862      -1.00203043      -0.03477316
H       -0.12150579      -0.18192609      -1.49323112
H       -1.91907225      -1.06420027      -0.31951440
H       -1.07648397      -1.01138410       1.13783765
11
Frame=6 idx=003741 GeodesicLength=0.3245586626912267 rxn_smarts="[C:1]([C@@:2]([N:3]([H:10])[H:11])([C:4]#[N:5])[H:9])([H:6])([H:7])[H:8]>>[C:1]([C@@:2]([N:3]([H:10])[H:11])([N+:5]#[C-:4])[H:9])([H:6])([H:7])[H:8]"
C        1.23347702      -0.06708327       0.20307669
C       -0.13880917      -0.10144922      -0.40642998
N       -1.01788650      -1.00033861       0.13014641
C       -0.90165442       1.81301155      -0.73209800
N       -0.79292482       1.81447815       0.42280805
H        1.80607208       0.76439118      -0.19954139
H        1.18180092       0.03524176       1.28624634
H        1.74145419      -1.00453969      -0.03708614
H       -0.11601807      -0.18289556      -1.48899608
H       -1.91980821      -1.05878602      -0.31529768
H       -1.07570303      -1.01203027       1.13717179
11
Frame=7 idx=003741 GeodesicLength=0.37869696896488825 rxn_smarts="[C:1]([C@@:2]([N:3]([H:10])[H:11])([C:4]#[N:5])[H:9])([H:6])([H:7])[H:8]>>[C:1]([C@@:2]([N:3]([H:10])[H:11])([N+:5]#[C-:4])[H:9])([H:6])([H:7])[H:8]"
C        1.23403987      -0.06527555       0.20219331
C       -0.14334358      -0.08341259      -0.40267237
N       -1.01519837      -1.00371226       0.12921336
C       -0.89855644       1.81350385      -0.73534995
N       -0.80493873       1.79914426       0.41909451
H        1.81442385       0.76132494      -0.19996507
H        1.18678665       0.03517688       1.28596110
H        1.73279299      -1.00696766      -0.03907723
H       -0.11063534      -0.18364156      -1.48460825
H       -1.92042718      -1.05360287      -0.31117898
H       -1.07494373      -1.01253743       1.13638956
11
Frame=8 idx=003741 GeodesicLength=0.4328797080589455 rxn_smarts="[C:1]([C@@:2]([N:3]([H:10])[H:11])([C:4]#[N:5])[H:9])([H:6])([H:7])[H:8]>>[C:1]([C@@:2]([N:3]([H:10])[H:11])([N+:5]#[C-:4])[H:9])([H:6])([H:7])[H:8]"
C        1.23453066      -0.06349117       0.20126628
C       -0.14770996      -0.06583506      -0.39912973
N       -1.01254244      -1.00696912       0.12819778
C       -0.89547193       1.81395929      -0.73816231
N       -0.81679041       1.78401536       0.41541159
H        1.82266354       0.75805565      -0.20067956
H        1.19159728       0.03536165       1.28559596
H        1.72421205      -1.00935523      -0.04074619
H       -0.10535889      -0.18419534      -1.48009447
H       -1.92093082      -1.04863268      -0.30718579
H       -1.07419909      -1.01291334       1.13552644
11
Frame=9 idx=003741 GeodesicLength=0.4869605071239863 rxn_smarts="[C:1]([C@@:2]([N:3]([H:10])[H:11])([C:4]#[N:5])[H:9])([H:6])([H:7])[H:8]>>[C:1]([C@@:2]([N:3]([H:10])[H:11])([N+:5]#[C-:4])[H:9])([H:6])([H:7])[H:8]"
C        1.23495650      -0.06173378       0.20029053
C       -0.15188836      -0.04872632      -0.39574547
N       -1.00992045      -1.01012988       0.12709089
C       -0.89241206       1.81439237      -0.74057145
N       -0.82848375       1.76909903       0.41176139
H        1.83081685       0.75455881      -0.20161852
H        1.19623155       0.03576650       1.28510511
H        1.71568609      -1.01164094      -0.04209712
H       -0.10020118      -0.18455956      -1.47551178
H       -1.92130674      -1.04387566      -0.30325379
H       -1.07347845      -1.01315057       1.13455022
11
Frame=10 idx=003741 GeodesicLength=0.5411034555007904 rxn_smarts="[C:1]([C@@:2]([N:3]([H:10])[H:11])([C:4]#[N:5])[H:9])([H:6])([H:7])[H:8]>>[C:1]([C@@:2]([N:3]([H:10])[H:11])([N+:5]#[C-:4])[H:9])([H:6])([H:7])[H:8]"
C        1.23532642      -0.05999409       0.19928370
C       -0.15591933      -0.03201801      -0.39255143
N       -1.00732800      -1.01321098       0.12592065
C       -0.88937504       1.81480223      -0.74257379
N       -0.84002797       1.75435784       0.40812002
H        1.83886596       0.75086616      -0.20281222
H        1.20072137       0.03640572       1.28455158
H        1.70724541      -1.01388757      -0.04315524
H       -0.09514405      -0.18475365      -1.47084387
H       -1.92159555      -1.03929076      -0.29944399
H       -1.07276922      -1.01327689       1.13350458
11
Frame=11 idx=003741 GeodesicLength=0.5953297381566129 rxn_smarts="[C:1]([C@@:2]([N:3]([H:10])[H:11])([C:4]#[N:5])[H:9])([H:6])([H:7])[H:8]>>[C:1]([C@@:2]([N:3]([H:10])[H:11])([N+:5]#[C-:4])[H:9])([H:6])([H:7])[H:8]"
C        1.23564963      -0.05827043       0.19825159
C       -0.15981020      -0.01567829      -0.38952544
N       -1.00476710      -1.01622574       0.12469331
C       -0.88637357       1.81520982      -0.74419229
N       -0.85142373       1.73977186       0.40447258
H        1.84682549       0.74697662      -0.20425242
H        1.20508240       0.03726840       1.28394252
H        1.69888893      -1.01609406      -0.04392396
H       -0.09019202      -0.18477642      -1.46610882
H       -1.92180332      -1.03487291      -0.29575247
H       -1.07207650      -1.01330885       1.13239541
11
Frame=12 idx=003741 GeodesicLength=0.6494918418255103 rxn_smarts="[C:1]([C@@:2]([N:3]([H:10])[H:11])([C:4]#[N:5])[H:9])([H:6])([H:7])[H:8]>>[C:1]([C@@:2]([N:3]([H:10])[H:11])([N+:5]#[C-:4])[H:9])([H:6])([H:7])[H:8]"
C        1.23592582      -0.05656655       0.19718800
C       -0.16353552       0.00029025      -0.38665552
N       -1.00222711      -1.01917913       0.12340390
C       -0.88342584       1.81560063      -0.74544157
N       -0.86267652       1.72536502       0.40085451
H        1.85471484       0.74288445      -0.20589887
H        1.20930466       0.03834126       1.28324584
H        1.69057184      -1.01824186      -0.04440328
H       -0.08535683      -0.18465299      -1.46133506
H       -1.92189753      -1.03062415      -0.29215910
H       -1.07139782      -1.01321694       1.13120116
11
Frame=13 idx=003741 GeodesicLength=0.7036957731267895 rxn_smarts="[C:1]([C@@:2]([N:3]([H:10])[H:11])([C:4]#[N:5])[H:9])([H:6])([H:7])[H:8]>>[C:1]([C@@:2]([N:3]([H:10])[H:11])([N+:5]#[C-:4])[H:9])([H:6])([H:7])[H:8]"
C        1.23616694      -0.05487781       0.19610421
C       -0.16712721       0.01592808      -0.38394093
N       -0.99972115      -1.02208602       0.12206920
C       -0.88052003       1.81599510      -0.74633333
N       -0.87379143       1.71111068       0.39723228
H        1.86252368       0.73859934      -0.20775439
H        1.21341477       0.03961969       1.28249958
H        1.68233646      -1.02034292      -0.04462089
H       -0.08062791      -0.18438359      -1.45652943
H       -1.92191422      -1.02653306      -0.28867972
H       -1.07073989      -1.01302949       1.12995342
11
Frame=14 idx=003741 GeodesicLength=0.7579174037839682 rxn_smarts="[C:1]([C@@:2]([N:3]([H:10])[H:11])([C:4]#[N:5])[H:9])([H:6])([H:7])[H:8]>>[C:1]([C@@:2]([N:3]([H:10])[H:11])([N+:5]#[C-:4])[H:9])([H:6])([H:7])[H:8]"
C        1.23637442      -0.05320435       0.19500111
C       -0.17058443       0.03125377      -0.38137250
N       -0.99724443      -1.02495282       0.12069451
C       -0.87766609       1.81639469      -0.74688010
N       -0.88476406       1.69700672       0.39360944
H        1.87025557       0.73412631      -0.20980467
H        1.21741677       0.04109301       1.28170053
H        1.67416958      -1.02239690      -0.04458376
H       -0.07600885      -0.18398015      -1.45170033
H       -1.92184425      -1.02259883      -0.28531640
H       -1.07010423      -1.01274146       1.12865217
11
Frame=15 idx=003741 GeodesicLength=0.8121469111563843 rxn_smarts="[C:1]([C@@:2]([N:3]([H:10])[H:11])([C:4]#[N:5])[H:9])([H:6])([H:7])[H:8]>>[C:1]([C@@:2]([N:3]([H:10])[H:11])([N+:5]#[C-:4])[H:9])([H:6])([H:7])[H:8]"
C        1.23655220      -0.05154618       0.19388045
C       -0.17391102       0.04628518      -0.37894334
N       -0.99479657      -1.02778684       0.11928673
C       -0.87487092       1.81680120      -0.74709438
N       -0.89559086       1.68305136       0.38998411
H        1.87791073       0.72947162      -0.21203397
H        1.22131765       0.04274894       1.28085148
H        1.66607169      -1.02440179      -0.04430551
H       -0.07150023      -0.18345352      -1.44685691
H       -1.92168758      -1.01881899      -0.28207140
H       -1.06949509      -1.01235098       1.12730273
11
Frame=16 idx=003741 GeodesicLength=0.8663800051349052 rxn_smarts="[C:1]([C@@:2]([N:3]([H:10])[H:11])([C:4]#[N:5])[H:9])([H:6])([H:7])[H:8]>>[C:1]([C@@:2]([N:3]([H:10])[H:11])([N+:5]#[C-:4])[H:9])([H:6])([H:7])[H:8]"
C        1.23670460      -0.04990296       0.19274397
C       -0.17711186       0.06103990      -0.37664764
N       -0.99237780      -1.03059482       0.11785292
C       -0.87214025       1.81721651      -0.74698905
N       -0.90626839       1.66924180       0.38635401
H        1.88548967       0.72464302      -0.21442718
H        1.22512502       0.04457528       1.27995664
H        1.65804480      -1.02635596      -0.04380040
H       -0.06710238      -0.18281466      -1.44200724
H       -1.92144657      -1.01519057      -0.27894730
H       -1.06891685      -1.01185754       1.12591128
