12
Frame=0 idx=009513 GeodesicLength=0.0 rxn_smarts="[C:1]([c:2]1[c:3]([H:11])[o:4][c:5]([O:6][H:12])[n:7]1)([H:8])([H:9])[H:10]>>[C:1]([c:2]1[c:3]([H:11])[o:4][c:5](=[O:6])[n:7]1[H:12])([H:8])([H:9])[H:10]"
C       -1.73503582       0.49628819       0.21673101
C       -0.37056603      -0.04155596      -0.00459021
C        0.02028153      -1.25442797      -0.43715476
O        1.42040049      -1.31079862      -0.49240312
C        1.79353609      -0.11552699      -0.08574348
O        2.91814810       0.43947112       0.07847388
N        0.79669285       0.68491196       0.21848252
H       -1.86361036       0.80164480       1.25645433
H       -1.91080474       1.36950144      -0.41352860
H       -2.48582715      -0.25725567      -0.01778289
H       -0.50594201      -2.14388177      -0.73327596
H        1.92272703       1.33162942       0.41433727
12
Frame=1 idx=009513 GeodesicLength=0.03356516151013018 rxn_smarts="[C:1]([c:2]1[c:3]([H:11])[o:4][c:5]([O:6][H:12])[n:7]1)([H:8])([H:9])[H:10]>>[C:1]([c:2]1[c:3]([H:11])[o:4][c:5](=[O:6])[n:7]1[H:12])([H:8])([H:9])[H:10]"
C       -1.73417987       0.49621933       0.21691514
C       -0.37061590      -0.04375535      -0.00499547
C        0.02030088      -1.25975183      -0.42714518
O        1.41919209      -1.31509518      -0.48286458
C        1.79246043      -0.09918115      -0.13783144
O        2.91665921       0.43311024       0.09255678
N        0.79562608       0.68813451       0.20579655
H       -1.86029399       0.80671366       1.25546142
H       -1.91145912       1.36637902      -0.41721247
H       -2.48581529      -0.25805724      -0.01260627
H       -0.50643298      -2.14559261      -0.73309320
H        1.92455845       1.33087659       0.44501871
12
Frame=2 idx=009513 GeodesicLength=0.06746765036786799 rxn_smarts="[C:1]([c:2]1[c:3]([H:11])[o:4][c:5]([O:6][H:12])[n:7]1)([H:8])([H:9])[H:10]>>[C:1]([c:2]1[c:3]([H:11])[o:4][c:5](=[O:6])[n:7]1[H:12])([H:8])([H:9])[H:10]"
C       -1.73325473       0.49606392       0.21759629
C       -0.37066776      -0.04445240      -0.00906709
C        0.02048454      -1.26264572      -0.42308802
O        1.41831803      -1.31816008      -0.47316927
C        1.79192726      -0.08907663      -0.17164665
O        2.91412805       0.42615032       0.10504832
N        0.79438902       0.69340200       0.18749020
H       -1.85455104       0.81026384       1.25563301
H       -1.91449255       1.36379116      -0.41881505
H       -2.48555633      -0.25936038      -0.00596109
H       -0.50620751      -2.14698035      -0.73346486
H        1.92548302       1.33100431       0.46944422
12
Frame=3 idx=009513 GeodesicLength=0.1015250510422294 rxn_smarts="[C:1]([c:2]1[c:3]([H:11])[o:4][c:5]([O:6][H:12])[n:7]1)([H:8])([H:9])[H:10]>>[C:1]([c:2]1[c:3]([H:11])[o:4][c:5](=[O:6])[n:7]1[H:12])([H:8])([H:9])[H:10]"
C       -1.73221934       0.49594863       0.21835713
C       -0.37066080      -0.04495435      -0.01369836
C        0.02065330      -1.26477821      -0.42119420
O        1.41745717      -1.32085014      -0.46386693
C        1.79187319      -0.08224823      -0.19687346
O        2.91115458       0.41996202       0.11556740
N        0.79322824       0.69820229       0.17014262
H       -1.84882532       0.81227943       1.25633236
H       -1.91718156       1.36224619      -0.41901191
H       -2.48525280      -0.26016343      -0.00050836
H       -0.50587924      -2.14837224      -0.73396555
H        1.92565257       1.33272803       0.48871926
12
Frame=4 idx=009513 GeodesicLength=0.13553049071840664 rxn_smarts="[C:1]([c:2]1[c:3]([H:11])[o:4][c:5]([O:6][H:12])[n:7]1)([H:8])([H:9])[H:10]>>[C:1]([c:2]1[c:3]([H:11])[o:4][c:5](=[O:6])[n:7]1[H:12])([H:8])([H:9])[H:10]"
C       -1.73108581       0.49591713       0.21899741
C       -0.37060144      -0.04568287      -0.01772823
C        0.02082709      -1.26687054      -0.41946023
O        1.41655531      -1.32314524      -0.45549000
C        1.79202317      -0.07694610      -0.21816589
O        2.90790677       0.41469588       0.12381793
N        0.79211190       0.70200890       0.15522216
H       -1.84384005       0.81339870       1.25705910
H       -1.91886253       1.36148139      -0.41859524
H       -2.48488442      -0.26036084       0.00339090
H       -0.50551643      -2.14983734      -0.73432524
H        1.92536644       1.33534091       0.50527734
12
Frame=5 idx=009513 GeodesicLength=0.1695107383594856 rxn_smarts="[C:1]([c:2]1[c:3]([H:11])[o:4][c:5]([O:6][H:12])[n:7]1)([H:8])([H:9])[H:10]>>[C:1]([c:2]1[c:3]([H:11])[o:4][c:5](=[O:6])[n:7]1[H:12])([H:8])([H:9])[H:10]"
C       -1.72990430       0.49591807       0.21959179
C       -0.37049844      -0.04654284      -0.02144461
C        0.02101107      -1.26892263      -0.41788372
O        1.41562326      -1.32506404      -0.44828452
C        1.79225930      -0.07277901      -0.23672624
O        2.90443822       0.40982250       0.13123340
N        0.79109648       0.70525515       0.14167873
H       -1.83920882       0.81411100       1.25783774
H       -1.92002341       1.36107736      -0.41792466
H       -2.48453526      -0.26028821       0.00658434
H       -0.50514815      -2.15135889      -0.73455575
H        1.92489004       1.33877154       0.51989349
12
Frame=6 idx=009513 GeodesicLength=0.20352889821990086 rxn_smarts="[C:1]([c:2]1[c:3]([H:11])[o:4][c:5]([O:6][H:12])[n:7]1)([H:8])([H:9])[H:10]>>[C:1]([c:2]1[c:3]([H:11])[o:4][c:5](=[O:6])[n:7]1[H:12])([H:8])([H:9])[H:10]"
C       -1.72869735       0.49598632       0.22003533
C       -0.37036522      -0.04757240      -0.02467981
C        0.02120887      -1.27107171      -0.41601295
O        1.41468491      -1.32668131      -0.44196733
C        1.79253680      -0.06921309      -0.25381728
O        2.90088452       0.40565054       0.13690929
N        0.79013839       0.70794969       0.12958869
H       -1.83506293       0.81468518       1.25846675
H       -1.92061606       1.36092763      -0.41731066
H       -2.48419550      -0.25994846       0.00905544
H       -0.50477423      -2.15297657      -0.73449731
H        1.92425780       1.34226418       0.53422984
12
Frame=7 idx=009513 GeodesicLength=0.2375689448976652 rxn_smarts="[C:1]([c:2]1[c:3]([H:11])[o:4][c:5]([O:6][H:12])[n:7]1)([H:8])([H:9])[H:10]>>[C:1]([c:2]1[c:3]([H:11])[o:4][c:5](=[O:6])[n:7]1[H:12])([H:8])([H:9])[H:10]"
C       -1.72747012       0.49611161       0.22035241
C       -0.37020378      -0.04871943      -0.02756629
C        0.02142330      -1.27325897      -0.41396560
O        1.41375125      -1.32803485      -0.43640892
C        1.79282301      -0.06609585      -0.26988998
O        2.89725165       0.40203972       0.14124081
N        0.78922802       0.71024307       0.11853814
H       -1.83125800       0.81522469       1.25894687
H       -1.92080882       1.36092745      -0.41680044
H       -2.48385659      -0.25941942       0.01104998
H       -0.50437291      -2.15468885      -0.73409100
H        1.92349298       1.34567082       0.54859400
12
Frame=8 idx=009513 GeodesicLength=0.271616944273276 rxn_smarts="[C:1]([c:2]1[c:3]([H:11])[o:4][c:5]([O:6][H:12])[n:7]1)([H:8])([H:9])[H:10]>>[C:1]([c:2]1[c:3]([H:11])[o:4][c:5](=[O:6])[n:7]1[H:12])([H:8])([H:9])[H:10]"
C       -1.72621404       0.49627300       0.22062118
C       -0.37001644      -0.04994511      -0.03022050
C        0.02165398      -1.27552754      -0.41164527
O        1.41283237      -1.32927086      -0.43119558
C        1.79311643      -0.06336233      -0.28516703
O        2.89353479       0.39883002       0.14470768
N        0.78834815       0.71229924       0.10803845
H       -1.82758409       0.81591252       1.25932554
H       -1.92080006       1.36091905      -0.41645273
H       -2.48349681      -0.25883593       0.01296096
H       -0.50394351      -2.15630225      -0.73389977
H        1.92256924       1.34901018       0.56292707
12
Frame=9 idx=009513 GeodesicLength=0.3056503052298568 rxn_smarts="[C:1]([c:2]1[c:3]([H:11])[o:4][c:5]([O:6][H:12])[n:7]1)([H:8])([H:9])[H:10]>>[C:1]([c:2]1[c:3]([H:11])[o:4][c:5](=[O:6])[n:7]1[H:12])([H:8])([H:9])[H:10]"
C       -1.72493352       0.49647855       0.22081481
C       -0.36980660      -0.05123033      -0.03269683
C        0.02190217      -1.27784076      -0.40913513
O        1.41192419      -1.33036089      -0.42636915
C        1.79341311      -0.06093389      -0.29984953
O        2.88975824       0.39603770       0.14728093
N        0.78750314       0.71411852       0.09811147
H       -1.82405888       0.81668076       1.25959497
H       -1.92058409       1.36095357      -0.41623235
H       -2.48312128      -0.25816416       0.01469679
H       -0.50348672      -2.15792371      -0.73363724
H        1.92149026       1.35218463       0.57742126
12
Frame=10 idx=009513 GeodesicLength=0.3398434567091911 rxn_smarts="[C:1]([c:2]1[c:3]([H:11])[o:4][c:5]([O:6][H:12])[n:7]1)([H:8])([H:9])[H:10]>>[C:1]([c:2]1[c:3]([H:11])[o:4][c:5](=[O:6])[n:7]1[H:12])([H:8])([H:9])[H:10]"
C       -1.72364400       0.49672944       0.22097007
C       -0.36958864      -0.05249193      -0.03524025
C        0.02217828      -1.28014904      -0.40664619
O        1.41107453      -1.33136936      -0.42178258
C        1.79379595      -0.05876506      -0.31413349
O        2.88592340       0.39352382       0.14942701
N        0.78667763       0.71586390       0.08831558
H       -1.82048844       0.81758280       1.25980869
H       -1.92038313       1.36099769      -0.41609834
H       -2.48274545      -0.25748042       0.01648764
H       -0.50303694      -2.15960548      -0.73327553
H        1.92023682       1.35516366       0.59216739
12
Frame=11 idx=009513 GeodesicLength=0.3738480991241275 rxn_smarts="[C:1]([c:2]1[c:3]([H:11])[o:4][c:5]([O:6][H:12])[n:7]1)([H:8])([H:9])[H:10]>>[C:1]([c:2]1[c:3]([H:11])[o:4][c:5](=[O:6])[n:7]1[H:12])([H:8])([H:9])[H:10]"
C       -1.72226000       0.49700103       0.22114446
C       -0.36932741      -0.05373072      -0.03794161
C        0.02244054      -1.28244551      -0.40414756
O        1.41013737      -1.33246532      -0.41670104
C        1.79415383      -0.05693084      -0.32793491
O        2.88194700       0.39137612       0.15109693
N        0.78593474       0.71753049       0.07834735
H       -1.81666848       0.81864909       1.26001095
H       -1.92017334       1.36096230      -0.41603936
H       -2.48229587      -0.25681153       0.01856451
H       -0.50247585      -2.16106767      -0.73344364
H        1.91858748       1.35793257       0.60704393
12
Frame=12 idx=009513 GeodesicLength=0.4078398987609732 rxn_smarts="[C:1]([c:2]1[c:3]([H:11])[o:4][c:5]([O:6][H:12])[n:7]1)([H:8])([H:9])[H:10]>>[C:1]([c:2]1[c:3]([H:11])[o:4][c:5](=[O:6])[n:7]1[H:12])([H:8])([H:9])[H:10]"
C       -1.72083068       0.49731922       0.22118250
C       -0.36904787      -0.05499945      -0.04049240
C        0.02274290      -1.28470337      -0.40162211
O        1.40926601      -1.33330268      -0.41242806
C        1.79441561      -0.05520217      -0.34149756
O        2.87786868       0.38953695       0.15203879
N        0.78515407       0.71898932       0.06906560
H       -1.81304965       0.81956124       1.26006614
H       -1.91967715       1.36112097      -0.41599484
H       -2.48178185      -0.25598347       0.02016769
H       -0.50193527      -2.16278523      -0.73274079
H        1.91687520       1.36044866       0.62225503
12
Frame=13 idx=009513 GeodesicLength=0.4419142035720744 rxn_smarts="[C:1]([c:2]1[c:3]([H:11])[o:4][c:5]([O:6][H:12])[n:7]1)([H:8])([H:9])[H:10]>>[C:1]([c:2]1[c:3]([H:11])[o:4][c:5](=[O:6])[n:7]1[H:12])([H:8])([H:9])[H:10]"
C       -1.71942322       0.49766843       0.22117913
C       -0.36876183      -0.05631281      -0.04291524
C        0.02305568      -1.28700712      -0.39894877
O        1.40842127      -1.33409626      -0.40828427
C        1.79470625      -0.05367021      -0.35480318
O        2.87379854       0.38800764       0.15240308
N        0.78443280       0.72029220       0.06017317
H       -1.80958877       0.82048932       1.26009618
H       -1.91905764       1.36134263      -0.41599364
H       -2.48132173      -0.25507721       0.02158655
H       -0.50137466      -2.16451035      -0.73203418
H        1.91511331       1.36287374       0.63754117
12
Frame=14 idx=009513 GeodesicLength=0.4760065827561285 rxn_smarts="[C:1]([c:2]1[c:3]([H:11])[o:4][c:5]([O:6][H:12])[n:7]1)([H:8])([H:9])[H:10]>>[C:1]([c:2]1[c:3]([H:11])[o:4][c:5](=[O:6])[n:7]1[H:12])([H:8])([H:9])[H:10]"
C       -1.71799314       0.49804929       0.22112828
C       -0.36846263      -0.05763709      -0.04531083
C        0.02338418      -1.28931901      -0.39618917
O        1.40759635      -1.33483123      -0.40425713
C        1.79497822      -0.05230839      -0.36791751
O        2.86966743       0.38677052       0.15227647
N        0.78373893       0.72148217       0.05152396
H       -1.80616897       0.82142177       1.26007760
H       -1.91833183       1.36162697      -0.41602322
H       -2.48085000      -0.25410484       0.02288535
H       -0.50078463      -2.16625947      -0.73121477
H        1.91322609       1.36510929       0.65302097
12
Frame=15 idx=009513 GeodesicLength=0.5102172783490598 rxn_smarts="[C:1]([c:2]1[c:3]([H:11])[o:4][c:5]([O:6][H:12])[n:7]1)([H:8])([H:9])[H:10]>>[C:1]([c:2]1[c:3]([H:11])[o:4][c:5](=[O:6])[n:7]1[H:12])([H:8])([H:9])[H:10]"
C       -1.71660273       0.49848531       0.22104814
C       -0.36817665      -0.05891663      -0.04786012
C        0.02375341      -1.29160732      -0.39349422
O        1.40688263      -1.33554693      -0.40032397
C        1.79534998      -0.05114576      -0.38088327
O        2.86553574       0.38573691       0.15188196
N        0.78307670       0.72260863       0.04292482
H       -1.80276781       0.82229450       1.26009820
H       -1.91765616       1.36206071      -0.41600648
H       -2.48044520      -0.25303718       0.02409619
H       -0.50013905      -2.16810873      -0.73014402
H        1.91118913       1.36717651       0.66866277
12
Frame=16 idx=009513 GeodesicLength=0.5442270144493675 rxn_smarts="[C:1]([c:2]1[c:3]([H:11])[o:4][c:5]([O:6][H:12])[n:7]1)([H:8])([H:9])[H:10]>>[C:1]([c:2]1[c:3]([H:11])[o:4][c:5](=[O:6])[n:7]1[H:12])([H:8])([H:9])[H:10]"
C       -1.71502189       0.49890981       0.22090331
C       -0.36782656      -0.06020145      -0.05046779
C        0.02409029      -1.29385643      -0.39081019
O        1.40598684      -1.33614353      -0.39643747
C        1.79551694      -0.05007823      -0.39364785
O        2.86114891       0.38504418       0.15107632
N        0.78244031       0.72366031       0.03444572
H       -1.79914566       0.82315667       1.25998279
H       -1.91672214       1.36246717      -0.41598486
H       -2.47984336      -0.25196839       0.02523783
H       -0.49953378      -2.16998615      -0.72888964
H        1.90891010       1.36899605       0.68459183
