15
Frame=0 idx=010616 GeodesicLength=0.0 rxn_smarts="[O:1]=[C:2]1[C:3]([H:8])([H:9])[C:4]([H:10])([H:11])[C@@:5]2([H:12])[C:6]([H:13])([H:14])[C@@:7]12[H:15]>>[O:1]=[C:2]1[C:3]([H:8])([H:9])[C:4]([H:10])([H:11])[C:5][C:6]([H:13])([H:14])[C:7]1([H:12])[H:15]"
O       -0.11357645       2.52542490       0.27455629
C       -0.09489008       1.32765729       0.18119108
C       -1.26028541       0.46594701      -0.27922949
C       -1.00374350      -0.98193662       0.17202161
C        0.46463815      -1.32811033       0.37928591
C        1.30367572      -0.59405975      -0.57774086
C        1.09592652       0.47672541       0.51173312
H       -1.33681076       0.57314518      -1.36434923
H       -2.18224801       0.87459630       0.13241872
H       -1.56734847      -1.20738940       1.07822094
H       -1.33778379      -1.70848792      -0.57777456
H        0.81403551      -0.19467539       1.42309742
H        0.88667798      -0.29474926      -1.53963909
H        2.33709385      -0.91512616      -0.66587540
H        1.99463873       0.98103871       0.85208358
15
Frame=1 idx=010616 GeodesicLength=0.058015654572852175 rxn_smarts="[O:1]=[C:2]1[C:3]([H:8])([H:9])[C:4]([H:10])([H:11])[C@@:5]2([H:12])[C:6]([H:13])([H:14])[C@@:7]12[H:15]>>[O:1]=[C:2]1[C:3]([H:8])([H:9])[C:4]([H:10])([H:11])[C:5][C:6]([H:13])([H:14])[C:7]1([H:12])[H:15]"
O       -0.12053020       2.52537716       0.28314057
C       -0.09746052       1.32815359       0.18271351
C       -1.26202536       0.46723209      -0.28129816
C       -1.00643486      -0.98107744       0.16778921
C        0.46081901      -1.32434770       0.37282388
C        1.30817832      -0.59169323      -0.57734546
C        1.09517055       0.47825698       0.50999853
H       -1.33479490       0.57375777      -1.36682007
H       -2.18541136       0.87570398       0.12728546
H       -1.55803831      -1.20196703       1.08322897
H       -1.35176816      -1.70839637      -0.57549384
H        0.82559499      -0.21035583       1.43238287
H        0.89376602      -0.30281251      -1.54363344
H        2.34067633      -0.91720936      -0.65924863
H        1.99225845       0.98937789       0.84447661
15
Frame=2 idx=010616 GeodesicLength=0.1160334558282215 rxn_smarts="[O:1]=[C:2]1[C:3]([H:8])([H:9])[C:4]([H:10])([H:11])[C@@:5]2([H:12])[C:6]([H:13])([H:14])[C@@:7]12[H:15]>>[O:1]=[C:2]1[C:3]([H:8])([H:9])[C:4]([H:10])([H:11])[C:5][C:6]([H:13])([H:14])[C:7]1([H:12])[H:15]"
O       -0.12755927       2.52532108       0.29173357
C       -0.10006977       1.32871211       0.18413428
C       -1.26379453       0.46854090      -0.28340318
C       -1.00912587      -0.98017119       0.16361523
C        0.45704013      -1.32046058       0.36636330
C        1.31267606      -0.58927214      -0.57695064
C        1.09437622       0.47988077       0.50821127
H       -1.33280942       0.57433499      -1.36931929
H       -2.18859248       0.87684844       0.12210134
H       -1.54867017      -1.19646454       1.08807636
H       -1.36581957      -1.70822288      -0.57293294
H        0.83747178      -0.22651963       1.44146417
H        0.90094425      -0.31099685      -1.54758515
H        2.34420931      -0.91922262      -0.65255961
H        1.98972332       0.99769216       0.83705129
15
Frame=3 idx=010616 GeodesicLength=0.17405032055552058 rxn_smarts="[O:1]=[C:2]1[C:3]([H:8])([H:9])[C:4]([H:10])([H:11])[C@@:5]2([H:12])[C:6]([H:13])([H:14])[C@@:7]12[H:15]>>[O:1]=[C:2]1[C:3]([H:8])([H:9])[C:4]([H:10])([H:11])[C:5][C:6]([H:13])([H:14])[C:7]1([H:12])[H:15]"
O       -0.13466363       2.52525577       0.30032883
C       -0.10271752       1.32933542       0.18544696
C       -1.26559296       0.46987385      -0.28554530
C       -1.01181507      -0.97921679       0.15949946
C        0.45330168      -1.31644671       0.35990710
C        1.31716764      -0.58679365      -0.57655483
C        1.09354104       0.48159868       0.50637152
H       -1.33085695       0.57487518      -1.37184760
H       -2.19178989       0.87802984       0.11686728
H       -1.53924548      -1.19087947       1.09276509
H       -1.37993289      -1.70796452      -0.57008621
H        0.84966370      -0.24318492       1.45032915
H        0.90821471      -0.31930309      -1.55148906
H        2.34769089      -0.92116023      -0.64580788
H        1.98703471       1.00598064       0.82981549
15
Frame=4 idx=010616 GeodesicLength=0.2320613135364596 rxn_smarts="[O:1]=[C:2]1[C:3]([H:8])([H:9])[C:4]([H:10])([H:11])[C@@:5]2([H:12])[C:6]([H:13])([H:14])[C@@:7]12[H:15]>>[O:1]=[C:2]1[C:3]([H:8])([H:9])[C:4]([H:10])([H:11])[C:5][C:6]([H:13])([H:14])[C:7]1([H:12])[H:15]"
O       -0.14182754       2.52518795       0.30887966
C       -0.10540453       1.33002748       0.18664923
C       -1.26742342       0.47123096      -0.28771728
C       -1.01450041      -0.97821650       0.15544014
C        0.44960513      -1.31230412       0.35346194
C        1.32165142      -0.58425416      -0.57615426
C        1.09266259       0.48341392       0.50448272
H       -1.32894992       0.57537716      -1.37439731
H       -2.19500141       0.87924780       0.11160248
H       -1.52977373      -1.18522313       1.09728789
H       -1.39409334      -1.70761680      -0.56695925
H        0.86216297      -0.26036989       1.45896862
H        0.91557766      -0.32772434      -1.55533563
H        2.35111870      -0.92301459      -0.63899687
H        1.98419583       1.01423825       0.82278790
15
Frame=5 idx=010616 GeodesicLength=0.2900675822322439 rxn_smarts="[O:1]=[C:2]1[C:3]([H:8])([H:9])[C:4]([H:10])([H:11])[C@@:5]2([H:12])[C:6]([H:13])([H:14])[C@@:7]12[H:15]>>[O:1]=[C:2]1[C:3]([H:8])([H:9])[C:4]([H:10])([H:11])[C:5][C:6]([H:13])([H:14])[C:7]1([H:12])[H:15]"
O       -0.14905197       2.52512212       0.31738140
C       -0.10813068       1.33079334       0.18773500
C       -1.26928784       0.47261322      -0.28991981
C       -1.01718197      -0.97717072       0.15143720
C        0.44595139      -1.30803251       0.34703097
C        1.32612860      -0.58165207      -0.57574743
C        1.09174052       0.48532988       0.50254453
H       -1.32709243       0.57583968      -1.37696926
H       -2.19822961       0.88050366       0.10630760
H       -1.52025900      -1.17949408       1.10164750
H       -1.40829744      -1.70717969      -0.56354675
H        0.87496648      -0.27809517       1.46736965
H        0.92303710      -0.33626248      -1.55911943
H        2.35449503      -0.92478235      -0.63212646
H        1.98121181       1.02246717       0.81597528
15
Frame=6 idx=010616 GeodesicLength=0.3480651759331618 rxn_smarts="[O:1]=[C:2]1[C:3]([H:8])([H:9])[C:4]([H:10])([H:11])[C@@:5]2([H:12])[C:6]([H:13])([H:14])[C@@:7]12[H:15]>>[O:1]=[C:2]1[C:3]([H:8])([H:9])[C:4]([H:10])([H:11])[C:5][C:6]([H:13])([H:14])[C:7]1([H:12])[H:15]"
O       -0.15633753       2.52505570       0.32582791
C       -0.11089552       1.33163449       0.18869774
C       -1.27118470       0.47402059      -0.29215362
C       -1.01985677      -0.97607735       0.14749097
C        0.44234073      -1.30362781       0.34061891
C        1.33059625      -0.57898396      -0.57533221
C        1.09077212       0.48734871       0.50055596
H       -1.32528568       0.57626104      -1.37956417
H       -2.20147077       0.88179621       0.10098315
H       -1.51070160      -1.17368840       1.10584635
H       -1.42253687      -1.70664863      -0.55984283
H        0.88806794      -0.29638181       1.47551878
H        0.93059371      -0.34491806      -1.56283424
H        2.35781549      -0.92645725      -0.62519603
H        1.97808319       1.03066653       0.80938332
15
Frame=7 idx=010616 GeodesicLength=0.4060594260501483 rxn_smarts="[O:1]=[C:2]1[C:3]([H:8])([H:9])[C:4]([H:10])([H:11])[C@@:5]2([H:12])[C:6]([H:13])([H:14])[C@@:7]12[H:15]>>[O:1]=[C:2]1[C:3]([H:8])([H:9])[C:4]([H:10])([H:11])[C:5][C:6]([H:13])([H:14])[C:7]1([H:12])[H:15]"
O       -0.16367036       2.52500230       0.33417627
C       -0.11369964       1.33255785       0.18953634
C       -1.27311866       0.47545411      -0.29441105
C       -1.02252415      -0.97494015       0.14359963
C        0.43877626      -1.29908944       0.33423412
C        1.33505566      -0.57624815      -0.57490493
C        1.08975899       0.48947651       0.49851827
H       -1.32354374       0.57664150      -1.38217413
H       -2.20472708       0.88312636       0.09564866
H       -1.50111439      -1.16781932       1.10987763
H       -1.43679699      -1.70602324      -0.55585420
H        0.90145297      -0.31525266       1.48340618
H        0.93824900      -0.35368768      -1.56647036
H        2.36108296      -0.92803517      -0.61820914
H        1.97481918       1.03883718       0.80302672
15
Frame=8 idx=010616 GeodesicLength=0.4640207831320719 rxn_smarts="[O:1]=[C:2]1[C:3]([H:8])([H:9])[C:4]([H:10])([H:11])[C@@:5]2([H:12])[C:6]([H:13])([H:14])[C@@:7]12[H:15]>>[O:1]=[C:2]1[C:3]([H:8])([H:9])[C:4]([H:10])([H:11])[C:5][C:6]([H:13])([H:14])[C:7]1([H:12])[H:15]"
O       -0.17103348       2.52496615       0.34237333
C       -0.11654400       1.33356400       0.19024706
C       -1.27509044       0.47691211      -0.29668478
C       -1.02518090      -0.97375990       0.13976167
C        0.43525605      -1.29441580       0.32788018
C        1.33950259      -0.57343909      -0.57446064
C        1.08869394       0.49171302       0.49643706
H       -1.32187690       0.57697888      -1.38479172
H       -2.20799289       0.88449098       0.09032405
H       -1.49150076      -1.16189535       1.11373921
H       -1.45106208      -1.70529538      -0.55158927
H        0.91511969      -0.33472406       1.49102206
H        0.94600316      -0.36255796      -1.57001603
H        2.36429056      -0.92950703      -0.61116717
H        1.97141545       1.04696943       0.79692499
15
Frame=9 idx=010616 GeodesicLength=0.5219623150272954 rxn_smarts="[O:1]=[C:2]1[C:3]([H:8])([H:9])[C:4]([H:10])([H:11])[C@@:5]2([H:12])[C:6]([H:13])([H:14])[C@@:7]12[H:15]>>[O:1]=[C:2]1[C:3]([H:8])([H:9])[C:4]([H:10])([H:11])[C:5][C:6]([H:13])([H:14])[C:7]1([H:12])[H:15]"
O       -0.17842924       2.52495703       0.35041862
C       -0.11942789       1.33466021       0.19082633
C       -1.27710276       0.47839603      -0.29897488
C       -1.02782756      -0.97253775       0.13597743
C        0.43178315      -1.28960579       0.32156400
C        1.34394018      -0.57055667      -0.57399789
C        1.08758142       0.49406577       0.49430909
H       -1.32028981       0.57727248      -1.38741789
H       -2.21127354       0.88589137       0.08501043
H       -1.48186860      -1.15591559       1.11743354
H       -1.46532696      -1.70446834      -0.54704396
H        0.92905440      -0.35482372       1.49835201
H        0.95385992      -0.37153556      -1.57346580
H        2.36744436      -0.93087158      -0.60407075
H        1.96788292       1.05507210       0.79107971
15
Frame=10 idx=010616 GeodesicLength=0.5798860786159755 rxn_smarts="[O:1]=[C:2]1[C:3]([H:8])([H:9])[C:4]([H:10])([H:11])[C@@:5]2([H:12])[C:6]([H:13])([H:14])[C@@:7]12[H:15]>>[O:1]=[C:2]1[C:3]([H:8])([H:9])[C:4]([H:10])([H:11])[C:5][C:6]([H:13])([H:14])[C:7]1([H:12])[H:15]"
O       -0.18585806       2.52497485       0.35829811
C       -0.12235178       1.33584709       0.19126599
C       -1.27915317       0.47990628      -0.30128077
C       -1.03045839      -0.97127133       0.13224890
C        0.42836061      -1.28465768       0.31528647
C        1.34836570      -0.56759679      -0.57351371
C        1.08641808       0.49653538       0.49213158
H       -1.31878500       0.57752205      -1.39005017
H       -2.21456318       0.88732693       0.07970928
H       -1.47221309      -1.14987576       1.12096753
H       -1.47957862      -1.70353500      -0.54221205
H        0.94323621      -0.37558187       1.50538420
H        0.96181906      -0.38061749      -1.57681172
H        2.37054056      -0.93212153      -0.59691814
H        1.96422106       1.06314487       0.78549450
15
Frame=11 idx=010616 GeodesicLength=0.637794463376569 rxn_smarts="[O:1]=[C:2]1[C:3]([H:8])([H:9])[C:4]([H:10])([H:11])[C@@:5]2([H:12])[C:6]([H:13])([H:14])[C@@:7]12[H:15]>>[O:1]=[C:2]1[C:3]([H:8])([H:9])[C:4]([H:10])([H:11])[C:5][C:6]([H:13])([H:14])[C:7]1([H:12])[H:15]"
O       -0.19334196       2.52502029       0.36605496
C       -0.12531836       1.33713203       0.19156509
C       -1.28124234       0.48144261      -0.30361389
C       -1.03307580      -0.96995767       0.12857888
C        0.42498509      -1.27956502       0.30905907
C        1.35278099      -0.56455966      -0.57300662
C        1.08520550       0.49913320       0.48989934
H       -1.31735077       0.57772115      -1.39270359
H       -2.21787248       0.88879653       0.07439383
H       -1.46253640      -1.14375471       1.12434831
H       -1.49382769      -1.70249741      -0.53707391
H        0.95768944      -0.39703503       1.51208954
H        0.96988712      -0.38981632      -1.58004802
H        2.37358039      -0.93325880      -0.58970692
H        1.96043725       1.07119883       0.78016394
15
Frame=12 idx=010616 GeodesicLength=0.6956807422877602 rxn_smarts="[O:1]=[C:2]1[C:3]([H:8])([H:9])[C:4]([H:10])([H:11])[C@@:5]2([H:12])[C:6]([H:13])([H:14])[C@@:7]12[H:15]>>[O:1]=[C:2]1[C:3]([H:8])([H:9])[C:4]([H:10])([H:11])[C:5][C:6]([H:13])([H:14])[C:7]1([H:12])[H:15]"
O       -0.20086014       2.52510505       0.37362671
C       -0.12832648       1.33851673       0.19171710
C       -1.28337312       0.48300503      -0.30596195
C       -1.03567617      -0.96859970       0.12496613
C        0.42166180      -1.27433140       0.30287888
C        1.35718730      -0.56144180      -0.57247288
C        1.08394251       0.50185847       0.48761452
H       -1.31600534       0.57787120      -1.39536343
H       -2.22119635       0.89030023       0.06909502
H       -1.45284184      -1.13756733       1.12757798
H       -1.50805396      -1.70134892      -0.53164403
H        0.97237438      -0.41920575       1.51846733
H        0.97806518      -0.39912138      -1.58316467
H        2.37656839      -0.93427395      -0.58243669
H        1.95653385       1.07923352       0.77509999
15
Frame=13 idx=010616 GeodesicLength=0.7535523375433812 rxn_smarts="[O:1]=[C:2]1[C:3]([H:8])([H:9])[C:4]([H:10])([H:11])[C@@:5]2([H:12])[C:6]([H:13])([H:14])[C@@:7]12[H:15]>>[O:1]=[C:2]1[C:3]([H:8])([H:9])[C:4]([H:10])([H:11])[C:5][C:6]([H:13])([H:14])[C:7]1([H:12])[H:15]"
O       -0.20843619       2.52522326       0.38106049
C       -0.13137793       1.34000678       0.19171432
C       -1.28554137       0.48459432      -0.30833789
C       -1.03825745      -0.96719166       0.12141531
C        0.41838751      -1.26894800       0.29675740
C        1.36158221      -0.55824073      -0.57190917
C        1.08262706       0.50472114       0.48526892
H       -1.31473498       0.57796773      -1.39804455
H       -2.22453695       0.89183673       0.06378290
H       -1.44312543      -1.13129019       1.13066447
H       -1.52226047      -1.70008865      -0.52589472
H        0.98730757      -0.44214148       1.52448443
H        0.98635747      -0.40854285      -1.58615304
H        2.37949834      -0.93516488      -0.57509983
H        1.95251061       1.08725845       0.77029095
15
Frame=14 idx=010616 GeodesicLength=0.8114122116423884 rxn_smarts="[O:1]=[C:2]1[C:3]([H:8])([H:9])[C:4]([H:10])([H:11])[C@@:5]2([H:12])[C:6]([H:13])([H:14])[C@@:7]12[H:15]>>[O:1]=[C:2]1[C:3]([H:8])([H:9])[C:4]([H:10])([H:11])[C:5][C:6]([H:13])([H:14])[C:7]1([H:12])[H:15]"
O       -0.21607467       2.52538296       0.38835583
C       -0.13447307       1.34160920       0.19155124
C       -1.28775067       0.48621120      -0.31074201
C       -1.04082088      -0.96573323       0.11792863
C        0.41516556      -1.26341469       0.29069589
C        1.36597180      -0.55495600      -0.57131440
C        1.08126297       0.50772864       0.48285952
H       -1.31354574       0.57800586      -1.40074813
H       -2.22790086       0.89340743       0.05845811
H       -1.43339256      -1.12491583       1.13361595
H       -1.53644428      -1.69871739      -0.51982118
H        1.00247304      -0.46587718       1.53012508
H        0.99477197      -0.41808548      -1.58900766
H        2.38238037      -0.93592995      -0.56769502
H        1.94837702       1.09528448       0.76573814
15
Frame=15 idx=010616 GeodesicLength=0.8692567115356562 rxn_smarts="[O:1]=[C:2]1[C:3]([H:8])([H:9])[C:4]([H:10])([H:11])[C@@:5]2([H:12])[C:6]([H:13])([H:14])[C@@:7]12[H:15]>>[O:1]=[C:2]1[C:3]([H:8])([H:9])[C:4]([H:10])([H:11])[C:5][C:6]([H:13])([H:14])[C:7]1([H:12])[H:15]"
O       -0.22378010       2.52558325       0.39550659
C       -0.13761278       1.34332684       0.19122084
C       -1.28999758       0.48785602      -0.31317509
C       -1.04336061      -0.96422109       0.11451044
C        0.41199712      -1.25772655       0.28470114
C        1.37035294      -0.55158316      -0.57068334
C        1.07984713       0.51088665       0.48038030
H       -1.31243621       0.57798407      -1.40347392
H       -2.23128269       0.89501030       0.05311836
H       -1.42363952      -1.11843581       1.13643933
H       -1.55058903      -1.69722810      -0.51341368
H        1.01785243      -0.49045800       1.53536479
H        1.00330962      -0.42774759      -1.59171646
H        2.38520873      -0.93656279      -0.56021619
H        1.94413056       1.10331596       0.76143689
15
Frame=16 idx=010616 GeodesicLength=0.9270959214788054 rxn_smarts="[O:1]=[C:2]1[C:3]([H:8])([H:9])[C:4]([H:10])([H:11])[C@@:5]2([H:12])[C:6]([H:13])([H:14])[C@@:7]12[H:15]>>[O:1]=[C:2]1[C:3]([H:8])([H:9])[C:4]([H:10])([H:11])[C:5][C:6]([H:13])([H:14])[C:7]1([H:12])[H:15]"
O       -0.23157035       2.52582415       0.40254334
C       -0.14079893       1.34516720       0.19071427
C       -1.29228357       0.48952932      -0.31564693
C       -1.04587800      -0.96265161       0.11116500
C        0.40888261      -1.25188020       0.27877657
C        1.37473057      -0.54812114      -0.57001392
C        1.07838090       0.51420466       0.47782634
H       -1.31140070       0.57789474      -1.40623331
H       -2.23469114       0.89664624       0.04774214
H       -1.41386247      -1.11182743       1.13914633
H       -1.56470668      -1.69561937      -0.50664934
H        1.03345094      -0.51593610       1.54017585
H        1.01197889      -0.43754111      -1.59427160
H        2.38799247      -0.93705567      -0.55265905
H        1.93977546       1.11136630       0.75738431
