9
Frame=0 idx=005106 GeodesicLength=0.0 rxn_smarts="[O:1]([c:2]1[n:3][n:4]([H:8])[n:5][c:6]1[H:9])[H:7]>>[N-:4]([N+:5]#[C:6][H:9])[H:8].[O:1]([C:2]#[N:3])[H:7]"
O       -1.46155829      -0.45416880      -1.07273525
C       -1.24330009      -0.36479503       0.24070896
N       -1.51115506      -0.70461662       1.33685161
N        2.20548624      -0.33570340      -0.04904796
N        1.26435322       0.42523232       0.11578369
C        0.14314650       0.83024286       0.35602051
H       -2.15639151      -1.11221471      -1.19686424
H        2.84149914       0.06186241      -0.74566538
H       -0.08208012       1.65416097       1.01494808
9
Frame=1 idx=005106 GeodesicLength=0.11636033522759388 rxn_smarts="[O:1]([c:2]1[n:3][n:4]([H:8])[n:5][c:6]1[H:9])[H:7]>>[N-:4]([N+:5]#[C:6][H:9])[H:8].[O:1]([C:2]#[N:3])[H:7]"
O       -1.52560698      -0.41219565      -1.07307317
C       -1.17497693      -0.41989305       0.21329576
N       -1.31615345      -0.85959653       1.30115783
N        2.16617094      -0.33511098       0.03184525
N        1.27760544       0.50271899       0.12132528
C        0.13023110       0.87613233       0.30003662
H       -2.26450562      -1.02882167      -1.15713848
H        2.84888877      -0.03170857      -0.66790973
H       -0.14165328       1.70847512       0.93046063
9
Frame=2 idx=005106 GeodesicLength=0.23323784204817616 rxn_smarts="[O:1]([c:2]1[n:3][n:4]([H:8])[n:5][c:6]1[H:9])[H:7]>>[N-:4]([N+:5]#[C:6][H:9])[H:8].[O:1]([C:2]#[N:3])[H:7]"
O       -1.58317002      -0.37968034      -1.06854040
C       -1.10747156      -0.46981531       0.17235548
N       -1.13387229      -0.99268054       1.23562335
N        2.13893169      -0.31784783       0.12147532
N        1.28953710       0.56814859       0.12708464
C        0.12107309       0.90921973       0.25064964
H       -2.36783691      -0.94474621      -1.09275001
H        2.83794570      -0.12033243      -0.59756166
H       -0.19513680       1.74773433       0.85166364
9
Frame=3 idx=005106 GeodesicLength=0.3507666953948728 rxn_smarts="[O:1]([c:2]1[n:3][n:4]([H:8])[n:5][c:6]1[H:9])[H:7]>>[N-:4]([N+:5]#[C:6][H:9])[H:8].[O:1]([C:2]#[N:3])[H:7]"
O       -1.64196005      -0.34860190      -1.05614360
C       -1.04512862      -0.51333948       0.12183710
N       -0.96686100      -1.10900090       1.14735016
N        2.11217470      -0.30035646       0.20183737
N        1.29927437       0.62058038       0.13175205
C        0.11482981       0.93236237       0.20632534
H       -2.45868417      -0.86723197      -1.00673524
H        2.82740329      -0.19315582      -0.51926699
H       -0.24104833       1.77874378       0.77304380
9
Frame=4 idx=005106 GeodesicLength=0.46790854214168726 rxn_smarts="[O:1]([c:2]1[n:3][n:4]([H:8])[n:5][c:6]1[H:9])[H:7]>>[N-:4]([N+:5]#[C:6][H:9])[H:8].[O:1]([C:2]#[N:3])[H:7]"
O       -1.69871940      -0.31838494      -1.03658285
C       -0.98923031      -0.54781148       0.06421134
N       -0.81692089      -1.20691940       1.04231295
N        2.08342023      -0.28460006       0.27395620
N        1.30618202       0.66312439       0.13842700
C        0.11026080       0.95143592       0.16814830
H       -2.52720061      -0.80506057      -0.90868880
H        2.81050266      -0.25770878      -0.44177867
H       -0.27829448       1.80592493       0.69999453
9
Frame=5 idx=005106 GeodesicLength=0.5849020879537028 rxn_smarts="[O:1]([c:2]1[n:3][n:4]([H:8])[n:5][c:6]1[H:9])[H:7]>>[N-:4]([N+:5]#[C:6][H:9])[H:8].[O:1]([C:2]#[N:3])[H:7]"
O       -1.74646353      -0.29684555      -1.01410421
C       -0.93728382      -0.57830544       0.00110870
N       -0.68196171      -1.29243685       0.92515472
N        2.05192494      -0.27304811       0.33733266
N        1.31041452       0.69810002       0.15244035
C        0.10609737       0.96604763       0.13604673
H       -2.58027086      -0.74357247      -0.79680624
H        2.78947232      -0.31215462      -0.36573195
H       -0.31192923       1.83221540       0.62455926
9
Frame=6 idx=005106 GeodesicLength=0.702739430453475 rxn_smarts="[O:1]([c:2]1[n:3][n:4]([H:8])[n:5][c:6]1[H:9])[H:7]>>[N-:4]([N+:5]#[C:6][H:9])[H:8].[O:1]([C:2]#[N:3])[H:7]"
O       -1.79172217      -0.27924120      -0.98659022
C       -0.88659512      -0.60574773      -0.07230566
N       -0.55793323      -1.36705191       0.79375118
N        2.01814370      -0.26270625       0.39937847
N        1.31138711       0.72798787       0.17022120
C        0.10146879       0.97802891       0.10749406
H       -2.61507255      -0.68551137      -0.66950406
H        2.76271900      -0.36313046      -0.28917579
H       -0.34239553       1.85737214       0.54673082
9
Frame=7 idx=005106 GeodesicLength=0.8210286145610054 rxn_smarts="[O:1]([c:2]1[n:3][n:4]([H:8])[n:5][c:6]1[H:9])[H:7]>>[N-:4]([N+:5]#[C:6][H:9])[H:8].[O:1]([C:2]#[N:3])[H:7]"
O       -1.83081561      -0.26988350      -0.95641829
C       -0.84028572      -0.62893047      -0.15088829
N       -0.44529565      -1.43143616       0.65308391
N        1.97824318      -0.25956589       0.45415092
N        1.30721353       0.75142404       0.19522034
C        0.09482621       0.98750852       0.08439544
H       -2.62855933      -0.62757478      -0.53035944
H        2.73368315      -0.40546438      -0.21296758
H       -0.36900977       1.88392261       0.46378298
9
Frame=8 idx=005106 GeodesicLength=0.939835727641085 rxn_smarts="[O:1]([c:2]1[n:3][n:4]([H:8])[n:5][c:6]1[H:9])[H:7]>>[N-:4]([N+:5]#[C:6][H:9])[H:8].[O:1]([C:2]#[N:3])[H:7]"
O       -1.86544848      -0.26627799      -0.92140019
C       -0.79952241      -0.64547373      -0.23131982
N       -0.34331973      -1.48381008       0.50653010
N        1.93151712      -0.26439864       0.50208236
N        1.29720899       0.76894733       0.22820243
C        0.08570502       0.99653796       0.06817346
H       -2.61797997      -0.57784038      -0.38780629
H        2.70060564      -0.44203500      -0.14017892
H       -0.38876618       1.91435054       0.37571688
9
Frame=9 idx=005106 GeodesicLength=1.0590094788059448 rxn_smarts="[O:1]([c:2]1[n:3][n:4]([H:8])[n:5][c:6]1[H:9])[H:7]>>[N-:4]([N+:5]#[C:6][H:9])[H:8].[O:1]([C:2]#[N:3])[H:7]"
O       -1.89553501      -0.26783754      -0.88059704
C       -0.76493205      -0.65417873      -0.30973366
N       -0.25096507      -1.52286186       0.35777564
N        1.87823079      -0.27683117       0.54297311
N        1.28090642       0.78103372       0.26962357
C        0.07366364       1.00649152       0.06012765
H       -2.58561256      -0.54090978      -0.24913705
H        2.66271819      -0.47452392      -0.07306202
H       -0.39847434       1.94961775       0.28202979
9
Frame=10 idx=005106 GeodesicLength=1.1787508762533363 rxn_smarts="[O:1]([c:2]1[n:3][n:4]([H:8])[n:5][c:6]1[H:9])[H:7]>>[N-:4]([N+:5]#[C:6][H:9])[H:8].[O:1]([C:2]#[N:3])[H:7]"
O       -1.92156288      -0.27473300      -0.83395943
C       -0.73640811      -0.65472866      -0.38473254
N       -0.16666532      -1.54765790       0.20820354
N        1.81893297      -0.29519013       0.57773243
N        1.25811256       0.78824328       0.31800265
C        0.05831680       1.01843533       0.05995195
H       -2.53560882      -0.51840138      -0.11683766
H        2.62017664      -0.50429842      -0.01100044
H       -0.39529384       1.98833088       0.18263950
9
Frame=11 idx=005106 GeodesicLength=1.300950831148632 rxn_smarts="[O:1]([c:2]1[n:3][n:4]([H:8])[n:5][c:6]1[H:9])[H:7]>>[N-:4]([N+:5]#[C:6][H:9])[H:8].[O:1]([C:2]#[N:3])[H:7]"
O       -1.94305211      -0.29399000      -0.78566295
C       -0.71293824      -0.64997816      -0.45694925
N       -0.08827289      -1.55832467       0.06033552
N        1.75351771      -0.31716422       0.60693844
N        1.22787437       0.79111722       0.36965904
C        0.03988356       1.03221439       0.05885612
H       -2.46890359      -0.49640650       0.01180643
H        2.57438403      -0.53106786       0.04882174
H       -0.38249285       2.02359980       0.08619492
9
Frame=12 idx=005106 GeodesicLength=1.425425343363681 rxn_smarts="[O:1]([c:2]1[n:3][n:4]([H:8])[n:5][c:6]1[H:9])[H:7]>>[N-:4]([N+:5]#[C:6][H:9])[H:8].[O:1]([C:2]#[N:3])[H:7]"
O       -1.96280071      -0.31758343      -0.72512993
C       -0.69591886      -0.63665854      -0.52892240
N       -0.01457512      -1.55274544      -0.09447646
N        1.67960148      -0.34274376       0.63260436
N        1.19011754       0.78989968       0.42429537
C        0.01957063       1.05029743       0.05693964
H       -2.38671927      -0.49204552       0.13768919
H        2.52429330      -0.55783914       0.11310045
H       -0.35356898       2.05941871      -0.01610022
9
Frame=13 idx=005106 GeodesicLength=1.554241496142244 rxn_smarts="[O:1]([c:2]1[n:3][n:4]([H:8])[n:5][c:6]1[H:9])[H:7]>>[N-:4]([N+:5]#[C:6][H:9])[H:8].[O:1]([C:2]#[N:3])[H:7]"
O       -1.97234824      -0.35396599      -0.66834868
C       -0.68196769      -0.62239797      -0.59235606
N        0.05168151      -1.53386760      -0.22754139
N        1.60364792      -0.36790167       0.64970699
N        1.14635878       0.78611417       0.47698621
C       -0.00236077       1.07009091       0.05299730
H       -2.29463502      -0.48366627       0.24604433
H        2.46822239      -0.58415397       0.16578654
H       -0.31859889       2.08974838      -0.10327524
9
Frame=14 idx=005106 GeodesicLength=1.6868209155402234 rxn_smarts="[O:1]([c:2]1[n:3][n:4]([H:8])[n:5][c:6]1[H:9])[H:7]>>[N-:4]([N+:5]#[C:6][H:9])[H:8].[O:1]([C:2]#[N:3])[H:7]"
O       -1.97281863      -0.39747146      -0.61263441
C       -0.67102385      -0.60842104      -0.64839727
N        0.11108830      -1.50613012      -0.34069713
N        1.52701930      -0.39133184       0.65976497
N        1.09928928       0.78086108       0.52325595
C       -0.02441488       1.09133115       0.04580959
H       -2.19770375      -0.47442953       0.33717227
H        2.40875103      -0.61103666       0.21093896
H       -0.28018680       2.11662842      -0.17521294
9
Frame=15 idx=005106 GeodesicLength=1.8222596571340592 rxn_smarts="[O:1]([c:2]1[n:3][n:4]([H:8])[n:5][c:6]1[H:9])[H:7]>>[N-:4]([N+:5]#[C:6][H:9])[H:8].[O:1]([C:2]#[N:3])[H:7]"
O       -1.96406733      -0.44602080      -0.56192309
C       -0.66136411      -0.59846477      -0.69588085
N        0.16386683      -1.47619204      -0.42854869
N        1.45395768      -0.41150471       0.66305285
N        1.05394341       0.77571737       0.55754289
C       -0.04454767       1.11185363       0.03369078
H       -2.10284470      -0.45675055       0.40825390
H        2.34928212      -0.63946784       0.24782772
H       -0.24822624       2.14082970      -0.22401552
9
Frame=16 idx=005106 GeodesicLength=1.9601285870678513 rxn_smarts="[O:1]([c:2]1[n:3][n:4]([H:8])[n:5][c:6]1[H:9])[H:7]>>[N-:4]([N+:5]#[C:6][H:9])[H:8].[O:1]([C:2]#[N:3])[H:7]"
O       -1.94825462      -0.49615550      -0.51265116
C       -0.65329140      -0.59132059      -0.73670356
N        0.21207690      -1.44527300      -0.50062097
N        1.38408406      -0.42949792       0.66133945
N        1.01056576       0.77057524       0.58361726
C       -0.06323063       1.13156292       0.01993625
H       -2.01208919      -0.43481113       0.46449619
H        2.29086653      -0.66863484       0.27999584
H       -0.22072740       2.16355482      -0.25940930
