13
Frame=0 idx=010373 GeodesicLength=0.0 rxn_smarts="[N:1]#[C:2][C@@:3]1([H:8])[C:4]([H:9])([H:10])[C@@:5]2([H:11])[C:6]([H:12])([H:13])[N:7]12>>[N:1]#[C:2][C@@:3]1([H:8])[C-:4]([H:10])[C:5]([H:9])([H:11])[N+:7]1=[C:6]([H:12])[H:13]"
N        2.45343359      -1.21964426       0.90982558
C        1.67645854      -0.37907623       0.81919975
C        0.68682119       0.68978812       0.64293604
C        0.44279846       1.24863703      -0.76778511
C       -1.10572319       0.28956020      -0.58871516
C       -1.03533867      -0.99833799       0.17238551
N       -0.71703182       0.23924051       0.83512862
H        0.91939905       1.48433619       1.35256725
H       -0.20667725       0.12336576      -1.32356777
H        1.12661880       0.89016455      -1.55674591
H       -2.00815439       0.76347665      -0.93958029
H       -0.25121278      -1.71557252      -0.04991535
H       -1.98139155      -1.41593802       0.49426689
13
Frame=1 idx=010373 GeodesicLength=0.0990838260973468 rxn_smarts="[N:1]#[C:2][C@@:3]1([H:8])[C:4]([H:9])([H:10])[C@@:5]2([H:11])[C:6]([H:12])([H:13])[N:7]12>>[N:1]#[C:2][C@@:3]1([H:8])[C-:4]([H:10])[C:5]([H:9])([H:11])[N+:7]1=[C:6]([H:12])[H:13]"
N        2.46083306      -1.21576993       0.91486882
C        1.68118689      -0.37801726       0.82184651
C        0.68668068       0.68471422       0.64068064
C        0.43231086       1.23499788      -0.77014441
C       -1.10145519       0.29986634      -0.59191390
C       -1.03551109      -1.00544375       0.17898527
N       -0.71633798       0.23044912       0.83335273
H        0.91261662       1.48350818       1.34785341
H       -0.20805303       0.11391755      -1.35212362
H        1.13253005       0.91006946      -1.55622338
H       -2.00438537       0.78678637      -0.92548685
H       -0.25228281      -1.72763106      -0.02978575
H       -1.98813269      -1.41744711       0.48809054
13
Frame=2 idx=010373 GeodesicLength=0.19817366810309775 rxn_smarts="[N:1]#[C:2][C@@:3]1([H:8])[C:4]([H:9])([H:10])[C@@:5]2([H:11])[C:6]([H:12])([H:13])[N:7]12>>[N:1]#[C:2][C@@:3]1([H:8])[C-:4]([H:10])[C:5]([H:9])([H:11])[N+:7]1=[C:6]([H:12])[H:13]"
N        2.46803465      -1.21201532       0.92077632
C        1.68588418      -0.37699452       0.82459762
C        0.68657461       0.67955826       0.63829036
C        0.42254263       1.22078339      -0.77284411
C       -1.09739081       0.31035613      -0.59504734
C       -1.03545612      -1.01281009       0.18566835
N       -0.71563599       0.22163691       0.83133958
H        0.90582715       1.48267984       1.34284205
H       -0.21031384       0.10546867      -1.38111596
H        1.13792035       0.92998224      -1.55563295
H       -2.00041947       0.81034135      -0.91101495
H       -0.25314985      -1.73966683      -0.00964611
H       -1.99441748      -1.41932002       0.48178714
13
Frame=3 idx=010373 GeodesicLength=0.2972635103612439 rxn_smarts="[N:1]#[C:2][C@@:3]1([H:8])[C:4]([H:9])([H:10])[C@@:5]2([H:11])[C:6]([H:12])([H:13])[N:7]12>>[N:1]#[C:2][C@@:3]1([H:8])[C-:4]([H:10])[C:5]([H:9])([H:11])[N+:7]1=[C:6]([H:12])[H:13]"
N        2.47505947      -1.20834504       0.92751577
C        1.69054804      -0.37601258       0.82746062
C        0.68649902       0.67430693       0.63575777
C        0.41346257       1.20596832      -0.77589635
C       -1.09352774       0.32102529      -0.59811609
C       -1.03518840      -1.02045222       0.19245158
N       -0.71492993       0.21279350       0.82907719
H        0.89901991       1.48183888       1.33751574
H       -0.21346469       0.09800048      -1.41058250
H        1.14280850       0.94995991      -1.55495756
H       -1.99618246       0.83418701      -0.89615556
H       -0.25382618      -1.75171873       0.01059213
H       -2.00027809      -1.42155175       0.47533726
13
Frame=4 idx=010373 GeodesicLength=0.3963524534724443 rxn_smarts="[N:1]#[C:2][C@@:3]1([H:8])[C:4]([H:9])([H:10])[C@@:5]2([H:11])[C:6]([H:12])([H:13])[N:7]12>>[N:1]#[C:2][C@@:3]1([H:8])[C-:4]([H:10])[C:5]([H:9])([H:11])[N+:7]1=[C:6]([H:12])[H:13]"
N        2.48191810      -1.20472628       0.93506373
C        1.69517773      -0.37507653       0.83044074
C        0.68645145       0.66894621       0.63307346
C        0.40504114       1.19052136      -0.77931506
C       -1.08986322       0.33187308      -0.60111856
C       -1.03472022      -1.02838589       0.19935661
N       -0.71422279       0.20390717       0.82655559
H        0.89218991       1.48097599       1.33185383
H       -0.21751512       0.09149889      -1.44055845
H        1.14720116       0.97006441      -1.55417668
H       -1.99159320       0.85836284      -0.88090453
H       -0.25432318      -1.76382120       0.03100991
H       -2.00574176      -1.42414005       0.46871940
13
Frame=5 idx=010373 GeodesicLength=0.4954560247022009 rxn_smarts="[N:1]#[C:2][C@@:3]1([H:8])[C:4]([H:9])([H:10])[C@@:5]2([H:11])[C:6]([H:12])([H:13])[N:7]12>>[N:1]#[C:2][C@@:3]1([H:8])[C-:4]([H:10])[C:5]([H:9])([H:11])[N+:7]1=[C:6]([H:12])[H:13]"
N        2.48862545      -1.20114169       0.94339964
C        1.69977257      -0.37418898       0.83354374
C        0.68643031       0.66346367       0.63022671
C        0.39725275       1.17440252      -0.78311850
C       -1.08638802       0.34289324      -0.60405876
C       -1.03406331      -1.03662706       0.20640797
N       -0.71351682       0.19496490       0.82376515
H        0.88533531       1.48008251       1.32583229
H       -0.22246459       0.08593603      -1.47108230
H        1.15109662       0.99038483      -1.55326169
H       -1.98659439       0.88292152      -0.86526412
H       -0.25465330      -1.77600815       0.05169801
H       -2.01083258      -1.42708334       0.46191186
13
Frame=6 idx=010373 GeodesicLength=0.5945673865741168 rxn_smarts="[N:1]#[C:2][C@@:3]1([H:8])[C:4]([H:9])([H:10])[C@@:5]2([H:11])[C:6]([H:12])([H:13])[N:7]12>>[N:1]#[C:2][C@@:3]1([H:8])[C-:4]([H:10])[C:5]([H:9])([H:11])[N+:7]1=[C:6]([H:12])[H:13]"
N        2.49518879      -1.19756314       0.95251756
C        1.70433157      -0.37336102       0.83677335
C        0.68643475       0.65783910       0.62720282
C        0.39007403       1.15755093      -0.78733316
C       -1.08309520       0.35408473      -0.60693500
C       -1.03323006      -1.04519372       0.21362459
N       -0.71281425       0.18595276       0.82069434
H        0.87845351       1.47915021       1.31941135
H       -0.22832916       0.08131504      -1.50218695
H        1.15446586       1.01101949      -1.55218017
H       -1.98107576       0.90790256      -0.84922886
H       -0.25483376      -1.78831307       0.07275474
H       -2.01557032      -1.43038386       0.45488541
13
Frame=7 idx=010373 GeodesicLength=0.6936917599714922 rxn_smarts="[N:1]#[C:2][C@@:3]1([H:8])[C:4]([H:9])([H:10])[C@@:5]2([H:11])[C:6]([H:12])([H:13])[N:7]12>>[N:1]#[C:2][C@@:3]1([H:8])[C-:4]([H:10])[C:5]([H:9])([H:11])[N+:7]1=[C:6]([H:12])[H:13]"
N        2.50161384      -1.19398114       0.96241614
C        1.70885675      -0.37260114       0.84013388
C        0.68646798       0.65205317       0.62398639
C        0.38348847       1.13990033      -0.79198775
C       -1.07996685       0.36544068      -0.60975373
C       -1.03223110      -1.05410237       0.22103822
N       -0.71211457       0.17685597       0.81733232
H        0.87155236       1.47817406       1.31255165
H       -0.23511601       0.07762684      -1.53390910
H        1.15726619       1.03209145      -1.55088824
H       -1.97496356       0.93335068      -0.83280902
H       -0.25488180      -1.80076559       0.09427766
H       -2.01997171      -1.43404295       0.44761158
13
Frame=8 idx=010373 GeodesicLength=0.7928250958190173 rxn_smarts="[N:1]#[C:2][C@@:3]1([H:8])[C:4]([H:9])([H:10])[C@@:5]2([H:11])[C:6]([H:12])([H:13])[N:7]12>>[N:1]#[C:2][C@@:3]1([H:8])[C-:4]([H:10])[C:5]([H:9])([H:11])[N+:7]1=[C:6]([H:12])[H:13]"
N        2.50789861      -1.19037599       0.97310511
C        1.71334852      -0.37192326       0.84362597
C        0.68653413       0.64607995       0.62055695
C        0.37747840       1.12136346      -0.79711737
C       -1.07698523       0.37695732      -0.61251880
C       -1.03108138      -1.06337217       0.22867305
N       -0.71141719       0.16765759       0.81366722
H        0.86464445       1.47714284       1.30519727
H       -0.24283731       0.07487636      -1.56628243
H        1.15942995       1.05375101      -1.54933716
H       -1.96813851       0.95930387      -0.81600903
H       -0.25482538      -1.81339374       0.11638355
H       -2.02404907      -1.43806725       0.44005567
13
Frame=9 idx=010373 GeodesicLength=0.8918044759697662 rxn_smarts="[N:1]#[C:2][C@@:3]1([H:8])[C:4]([H:9])([H:10])[C@@:5]2([H:11])[C:6]([H:12])([H:13])[N:7]12>>[N:1]#[C:2][C@@:3]1([H:8])[C-:4]([H:10])[C:5]([H:9])([H:11])[N+:7]1=[C:6]([H:12])[H:13]"
N        2.51410139      -1.18674751       0.98453376
C        1.71780716      -0.37132207       0.84728581
C        0.68663198       0.63989856       0.61688941
C        0.37199485       1.10182835      -0.80273387
C       -1.07411892       0.38863119      -0.61524119
C       -1.02978389      -1.07301774       0.23656611
N       -0.71071992       0.15831902       0.80968878
H        0.85772420       1.47610328       1.29726967
H       -0.25151735       0.07326874      -1.59926357
H        1.16100406       1.07594505      -1.54747821
H       -1.96062427       0.98577298      -0.79883792
H       -0.25467736      -1.82620573       0.13920478
H       -2.02782192      -1.44247413       0.43211643
13
Frame=10 idx=010373 GeodesicLength=0.9908123521365974 rxn_smarts="[N:1]#[C:2][C@@:3]1([H:8])[C:4]([H:9])([H:10])[C@@:5]2([H:11])[C:6]([H:12])([H:13])[N:7]12>>[N:1]#[C:2][C@@:3]1([H:8])[C-:4]([H:10])[C:5]([H:9])([H:11])[N+:7]1=[C:6]([H:12])[H:13]"
N        2.52014866      -1.18310938       0.99681056
C        1.72224141      -0.37084400       0.85106136
C        0.68678420       0.63346970       0.61294113
C        0.36706943       1.08116216      -0.80892720
C       -1.07134215       0.40044021      -0.61793824
C       -1.02836604      -1.08305653       0.24475940
N       -0.71001642       0.14885179       0.80537062
H        0.85084001       1.47499550       1.28869556
H       -0.26113481       0.07259718      -1.63297766
H        1.16169661       1.09916985      -1.54518114
H       -1.95214055       1.01282273      -0.78131294
H       -0.25449011      -1.83924001       0.16287430
H       -2.03129022      -1.44725920       0.42382427
13
Frame=11 idx=010373 GeodesicLength=1.0898763592472218 rxn_smarts="[N:1]#[C:2][C@@:3]1([H:8])[C:4]([H:9])([H:10])[C@@:5]2([H:11])[C:6]([H:12])([H:13])[N:7]12>>[N:1]#[C:2][C@@:3]1([H:8])[C-:4]([H:10])[C:5]([H:9])([H:11])[N+:7]1=[C:6]([H:12])[H:13]"
N        2.52603848      -1.17948076       1.00996692
C        1.72666078      -0.37052080       0.85493828
C        0.68700865       0.62675273       0.60867228
C        0.36270125       1.05921530      -0.81575141
C       -1.06860391       0.41236839      -0.62063111
C       -1.02684567      -1.09350085       0.25330156
N       -0.70929922       0.13924335       0.80069286
H        0.84402530       1.47380164       1.27938232
H       -0.27165871       0.07283393      -1.66747043
H        1.16129828       1.12371745      -1.54231742
H       -1.94255432       1.04050018      -0.76347789
H       -0.25430763      -1.85251273       0.18755612
H       -2.03446328      -1.45241783       0.41513792
13
Frame=12 idx=010373 GeodesicLength=1.1890042475526144 rxn_smarts="[N:1]#[C:2][C@@:3]1([H:8])[C:4]([H:9])([H:10])[C@@:5]2([H:11])[C:6]([H:12])([H:13])[N:7]12>>[N:1]#[C:2][C@@:3]1([H:8])[C-:4]([H:10])[C:5]([H:9])([H:11])[N+:7]1=[C:6]([H:12])[H:13]"
N        2.53174936      -1.17588339       1.02406698
C        1.73107964      -0.37039950       0.85888758
C        0.68733290       0.61969370       0.60402852
C        0.35890237       1.03580009      -0.82328298
C       -1.06584175       0.42439462      -0.62335315
C       -1.02524502      -1.10436153       0.26224959
N       -0.70855369       0.12948436       0.79562828
H        0.83733492       1.47249269       1.26921041
H       -0.28306804       0.07394465      -1.70278863
H        1.15949217       1.14997439      -1.53870385
H       -1.93164878       1.06883747      -0.74539444
H       -0.25418901      -1.86603711       0.21343517
H       -2.03734507      -1.45794042       0.40601653
13
Frame=13 idx=010373 GeodesicLength=1.2882361606281971 rxn_smarts="[N:1]#[C:2][C@@:3]1([H:8])[C:4]([H:9])([H:10])[C@@:5]2([H:11])[C:6]([H:12])([H:13])[N:7]12>>[N:1]#[C:2][C@@:3]1([H:8])[C-:4]([H:10])[C:5]([H:9])([H:11])[N+:7]1=[C:6]([H:12])[H:13]"
N        2.53726235      -1.17243032       1.03920293
C        1.73552606      -0.37054747       0.86287798
C        0.68780978       0.61222645       0.59892814
C        0.35573073       1.01065239      -0.83163032
C       -1.06294577       0.43646587      -0.62617261
C       -1.02359081      -1.11564383       0.27168864
N       -0.70775251       0.11958082       0.79013292
H        0.83085525       1.47105060       1.25800468
H       -0.29527586       0.07584160      -1.73898925
H        1.15573083       1.17855692      -1.53404318
H       -1.91918761       1.09788133      -0.72718496
H       -0.25421298      -1.87983869       0.24075556
H       -2.03994945      -1.46379568       0.39642946
13
Frame=14 idx=010373 GeodesicLength=1.3875071068035885 rxn_smarts="[N:1]#[C:2][C@@:3]1([H:8])[C:4]([H:9])([H:10])[C@@:5]2([H:11])[C:6]([H:12])([H:13])[N:7]12>>[N:1]#[C:2][C@@:3]1([H:8])[C-:4]([H:10])[C:5]([H:9])([H:11])[N+:7]1=[C:6]([H:12])[H:13]"
N        2.54254619      -1.16913053       1.05544173
C        1.74002382      -0.37103579       0.86686103
C        0.68848583       0.60427626       0.59330286
C        0.35321366       0.98357020      -0.84087177
C       -1.05981065       0.44856503      -0.62914407
C       -1.02190504      -1.12732951       0.28168722
N       -0.70686420       0.10953093       0.78416488
H        0.82468082       1.46940946       1.24564390
H       -0.30822790       0.07848727      -1.77611598
H        1.14948411       1.20985280      -1.52804339
H       -1.90491031       1.12763233      -0.70896910
H       -0.25446130      -1.89387589       0.26973246
H       -2.04225501      -1.46995256       0.38631022
13
Frame=15 idx=010373 GeodesicLength=1.4867695929486722 rxn_smarts="[N:1]#[C:2][C@@:3]1([H:8])[C:4]([H:9])([H:10])[C@@:5]2([H:11])[C:6]([H:12])([H:13])[N:7]12>>[N:1]#[C:2][C@@:3]1([H:8])[C-:4]([H:10])[C:5]([H:9])([H:11])[N+:7]1=[C:6]([H:12])[H:13]"
N        2.54756670      -1.16608851       1.07285820
C        1.74460888      -0.37194829       0.87078835
C        0.68943669       0.59576633       0.58705253
C        0.35143062       0.95429614      -0.85112735
C       -1.05627312       0.46064165      -0.63236718
C       -1.02021286      -1.13939410       0.29233924
N       -0.70584414       0.09935862       0.77766154
H        0.81893918       1.46752557       1.23195706
H       -0.32177393       0.08181542      -1.81422585
H        1.13993075       1.24439516      -1.52025147
H       -1.88853104       1.15810188      -0.69091603
H       -0.25503372      -1.90810992       0.30063280
H       -2.04424401      -1.47635995       0.37559816
13
Frame=16 idx=010373 GeodesicLength=1.5859516455125888 rxn_smarts="[N:1]#[C:2][C@@:3]1([H:8])[C:4]([H:9])([H:10])[C@@:5]2([H:11])[C:6]([H:12])([H:13])[N:7]12>>[N:1]#[C:2][C@@:3]1([H:8])[C-:4]([H:10])[C:5]([H:9])([H:11])[N+:7]1=[C:6]([H:12])[H:13]"
N        2.55229563      -1.16342719       1.09147561
C        1.74932261      -0.37336673       0.87460115
C        0.69075009       0.58665075       0.58007639
C        0.35049709       0.92266347      -0.86253748
C       -1.05213569       0.47267017      -0.63595843
C       -1.01854065      -1.15180096       0.30373997
N       -0.70465058       0.08911591       0.77056037
H        0.81376531       1.46540018       1.21681958
H       -0.33567461       0.08578228      -1.85338555
H        1.12608475       1.28250046      -1.51011767
H       -1.86978961       1.18928937      -0.67319502
H       -0.25603238      -1.92248875       0.33371205
H       -2.04589197      -1.48298895       0.36420904
