16
Frame=0 idx=005040 GeodesicLength=0.0 rxn_smarts="[C:1]1([H:7])([H:8])[C:2]([H:9])([H:10])[C:3]12[C:4]([H:11])([H:12])[C:5]([H:13])([H:14])[C:6]2([H:15])[H:16]>>[C:1]([C:5]1([H:13])[C:4]([H:11])([H:12])[C:3](=[C:2]([H:9])[H:10])[C:6]1([H:15])[H:16])([H:7])([H:8])[H:14]"
C       -0.77493868       0.75905471       2.37388568
C       -1.59350609      -0.17173375      -1.16739742
C       -0.30888502      -0.19930279      -0.86122046
C        0.59085915      -1.22323290      -0.20282194
C        1.44690804      -0.03244280       0.29603193
C        0.77189338       0.85723909      -0.77690822
H       -1.26948676      -0.23115625       2.29908636
H       -1.38752335       1.36799078       1.67880844
H       -2.06141780       0.72950116      -1.54694719
H       -2.21865225      -1.05009868      -1.05426398
H        1.12862130      -1.81746238      -0.94576518
H        0.15036466      -1.89546335       0.53367513
H        2.53070119      -0.13632615       0.26359835
H        1.15425990       0.27703433       1.30781268
H        1.36277388       0.89608944      -1.69539756
H        0.47802844       1.87030956      -0.50217655
16
Frame=1 idx=005040 GeodesicLength=0.15563727604611174 rxn_smarts="[C:1]1([H:7])([H:8])[C:2]([H:9])([H:10])[C:3]12[C:4]([H:11])([H:12])[C:5]([H:13])([H:14])[C:6]2([H:15])[H:16]>>[C:1]([C:5]1([H:13])[C:4]([H:11])([H:12])[C:3](=[C:2]([H:9])[H:10])[C:6]1([H:15])[H:16])([H:7])([H:8])[H:14]"
C       -0.76070764       0.72604344       2.27540632
C       -1.60872865      -0.15723600      -1.12169009
C       -0.31678183      -0.18887915      -0.82963492
C        0.59180433      -1.22112165      -0.19536807
C        1.44634662      -0.03006329       0.30714797
C        0.77460395       0.85922573      -0.76913214
H       -1.27451010      -0.25469436       2.27743585
H       -1.39805722       1.36975545       1.64051051
H       -2.06433973       0.73228816      -1.54165004
H       -2.22470995      -1.04509781      -1.03602154
H        1.11832194      -1.80983585      -0.95046102
H        0.16288531      -1.90541888       0.53685059
H        2.52955710      -0.13911868       0.26686814
H        1.17491347       0.29721770       1.33720290
H        1.35382270       0.88835044      -1.69519024
H        0.49557968       1.87858474      -0.50227424
16
Frame=2 idx=005040 GeodesicLength=0.3112697903630412 rxn_smarts="[C:1]1([H:7])([H:8])[C:2]([H:9])([H:10])[C:3]12[C:4]([H:11])([H:12])[C:5]([H:13])([H:14])[C:6]2([H:15])[H:16]>>[C:1]([C:5]1([H:13])[C:4]([H:11])([H:12])[C:3](=[C:2]([H:9])[H:10])[C:6]1([H:15])[H:16])([H:7])([H:8])[H:14]"
C       -0.74909390       0.69369824       2.18174707
C       -1.62299981      -0.14405385      -1.08000143
C       -0.32370998      -0.17990236      -0.80245296
C        0.59226447      -1.21950585      -0.18952392
C        1.44331762      -0.02760163       0.31886063
C        0.77677114       0.86063775      -0.76257586
H       -1.27370085      -0.27588398       2.25871587
H       -1.40149596       1.37292529       1.60603371
H       -2.06794026       0.73399556      -1.53431338
H       -2.23004134      -1.04024173      -1.02065521
H        1.10968971      -1.80255036      -0.95502482
H        0.17335806      -1.91538342       0.53759455
H        2.52606936      -0.14091799       0.27387917
H        1.19001098       0.31834622       1.36601636
H        1.34649938       0.88082038      -1.69454350
H        0.51100137       1.88561773      -0.50375629
16
Frame=3 idx=005040 GeodesicLength=0.4669498383921892 rxn_smarts="[C:1]1([H:7])([H:8])[C:2]([H:9])([H:10])[C:3]12[C:4]([H:11])([H:12])[C:5]([H:13])([H:14])[C:6]2([H:15])[H:16]>>[C:1]([C:5]1([H:13])[C:4]([H:11])([H:12])[C:3](=[C:2]([H:9])[H:10])[C:6]1([H:15])[H:16])([H:7])([H:8])[H:14]"
C       -0.73963264       0.66210070       2.09248689
C       -1.63633363      -0.13223438      -1.04217571
C       -0.32972702      -0.17236462      -0.77954181
C        0.59242222      -1.21838918      -0.18519986
C        1.43808586      -0.02510258       0.33107173
C        0.77854914       0.86147686      -0.75717033
H       -1.26761882      -0.29480309       2.24218792
H       -1.39871985       1.37675894       1.57448904
H       -2.07241382       0.73536492      -1.52455556
H       -2.23505975      -1.03537609      -1.00706249
H        1.10285769      -1.79566352      -0.95949330
H        0.18209372      -1.92533258       0.53616476
H        2.52053817      -0.14177952       0.28445029
H        1.19952197       0.34039535       1.39431262
H        1.34089930       0.87348683      -1.69354111
H        0.52453746       1.89146197      -0.50642307
16
Frame=4 idx=005040 GeodesicLength=0.6226896468986922 rxn_smarts="[C:1]1([H:7])([H:8])[C:2]([H:9])([H:10])[C:3]12[C:4]([H:11])([H:12])[C:5]([H:13])([H:14])[C:6]2([H:15])[H:16]>>[C:1]([C:5]1([H:13])[C:4]([H:11])([H:12])[C:3](=[C:2]([H:9])[H:10])[C:6]1([H:15])[H:16])([H:7])([H:8])[H:14]"
C       -0.73184248       0.63134266       2.00736130
C       -1.64883896      -0.12170665      -1.00782402
C       -0.33495771      -0.16618202      -0.76059393
C        0.59238084      -1.21774960      -0.18225626
C        1.43093357      -0.02261760       0.34364852
C        0.78003433       0.86178180      -0.75278555
H       -1.25669355      -0.31144302       2.22734814
H       -1.39052267       1.38060940       1.54529815
H       -2.07778366       0.73684039      -1.51258697
H       -2.24003640      -1.03051551      -0.99472459
H        1.09776534      -1.78922245      -0.96389528
H        0.18934774      -1.93521536       0.53287410
H        2.51325082      -0.14180972       0.29824472
H        1.20358840       0.36330619       1.42213630
H        1.33695516       0.86636601      -1.69224340
H        0.53641923       1.89621548      -0.51000121
16
Frame=5 idx=005040 GeodesicLength=0.778501412308771 rxn_smarts="[C:1]1([H:7])([H:8])[C:2]([H:9])([H:10])[C:3]12[C:4]([H:11])([H:12])[C:5]([H:13])([H:14])[C:6]2([H:15])[H:16]>>[C:1]([C:5]1([H:13])[C:4]([H:11])([H:12])[C:3](=[C:2]([H:9])[H:10])[C:6]1([H:15])[H:16])([H:7])([H:8])[H:14]"
C       -0.72525910       0.60148362       1.92616597
C       -1.66062467      -0.11233962      -0.97649032
C       -0.33953479      -0.16122468      -0.74520651
C        0.59219889      -1.21754626      -0.18053455
C        1.42213868      -0.02020204       0.35643363
C        0.78128933       0.86161000      -0.74926815
H       -1.24135033      -0.32574076       2.21379163
H       -1.37764865       1.38391755       1.51807389
H       -2.08395286       0.73862933      -1.49884362
H       -2.24511116      -1.02569414      -0.98335178
H        1.09423725      -1.78325097      -0.96824959
H        0.19534128      -1.94496868       0.52804131
H        2.50445337      -0.14114076       0.31483538
H        1.20245708       0.38698384       1.44949736
H        1.33450058       0.85949248      -1.69069132
H        0.54686513       1.89999108      -0.51420334
16
Frame=6 idx=005040 GeodesicLength=0.9343724262882315 rxn_smarts="[C:1]1([H:7])([H:8])[C:2]([H:9])([H:10])[C:3]12[C:4]([H:11])([H:12])[C:5]([H:13])([H:14])[C:6]2([H:15])[H:16]>>[C:1]([C:5]1([H:13])[C:4]([H:11])([H:12])[C:3](=[C:2]([H:9])[H:10])[C:6]1([H:15])[H:16])([H:7])([H:8])[H:14]"
C       -0.71946949       0.57255352       1.84875822
C       -1.67179871      -0.10398865      -0.94774646
C       -0.34358604      -0.15734457      -0.73295276
C        0.59191657      -1.21772757      -0.17987888
C        1.41198679      -0.01790756       0.36927181
C        0.78236483       0.86102625      -0.74647151
H       -1.22206304      -0.33761228       2.20115785
H       -1.36078715       1.38621006       1.49253836
H       -2.09076756       0.74078519      -1.48379887
H       -2.25038028      -1.02093351      -0.97273969
H        1.09205793      -1.77775090      -0.97258398
H        0.20026762      -1.95452800       0.52196966
H        2.49439135      -0.13990598       0.33377178
H        1.19644935       0.41131140       1.47640341
H        1.33333845       0.85290961      -1.68893550
H        0.55607940       1.90290298      -0.51876343
16
Frame=7 idx=005040 GeodesicLength=1.0903084500441054 rxn_smarts="[C:1]1([H:7])([H:8])[C:2]([H:9])([H:10])[C:3]12[C:4]([H:11])([H:12])[C:5]([H:13])([H:14])[C:6]2([H:15])[H:16]>>[C:1]([C:5]1([H:13])[C:4]([H:11])([H:12])[C:3](=[C:2]([H:9])[H:10])[C:6]1([H:15])[H:16])([H:7])([H:8])[H:14]"
C       -0.71409800       0.54455959       1.77498511
C       -1.68242323      -0.09649909      -0.92119911
C       -0.34720391      -0.15438635      -0.72340347
C        0.59156996      -1.21824170      -0.18014444
C        1.40075161      -0.01578631       0.38200571
C        0.78330636       0.86009722      -0.74425683
H       -1.19936395      -0.34698379       2.18908510
H       -1.34062912       1.38709440       1.46847119
H       -2.09805594       0.74327901      -1.46787775
H       -2.25587213      -1.01621824      -0.96264348
H        1.09099867      -1.77271435      -0.97691835
H        0.20430872      -1.96383746       0.51492580
H        2.48327835      -0.13824403       0.35459714
H        1.18591960       0.43615544       1.50282950
H        1.33325725       0.84666223      -1.68701045
H        0.56425575       1.90506344      -0.52344569
16
Frame=8 idx=005040 GeodesicLength=1.2462977574181455 rxn_smarts="[C:1]1([H:7])([H:8])[C:2]([H:9])([H:10])[C:3]12[C:4]([H:11])([H:12])[C:5]([H:13])([H:14])[C:6]2([H:15])[H:16]>>[C:1]([C:5]1([H:13])[C:4]([H:11])([H:12])[C:3](=[C:2]([H:9])[H:10])[C:6]1([H:15])[H:16])([H:7])([H:8])[H:14]"
C       -0.70881517       0.51750283       1.70472159
C       -1.69254682      -0.08972684      -0.89649612
C       -0.35046146      -0.15220090      -0.71615566
C        0.59119421      -1.21903974      -0.18120268
C        1.38870535      -0.01388382       0.39449509
C        0.78416132       0.85888836      -0.74250573
H       -1.17384529      -0.35381698       2.17722006
H       -1.31782842       1.38627278       1.44568465
H       -2.10564732       0.74603766      -1.45142799
H       -2.26160431      -1.01152910      -0.95281146
H        1.09084459      -1.76812532      -0.98128440
H        0.20762709      -1.97285376       0.50714455
H        2.47133136      -0.13628275       0.37687770
H        1.17124619       0.46138325       1.52875539
H        1.33406192       0.84079455      -1.68496328
H        0.57157676       1.90657978      -0.52805169
16
Frame=9 idx=005040 GeodesicLength=1.4023342941449664 rxn_smarts="[C:1]1([H:7])([H:8])[C:2]([H:9])([H:10])[C:3]12[C:4]([H:11])([H:12])[C:5]([H:13])([H:14])[C:6]2([H:15])[H:16]>>[C:1]([C:5]1([H:13])[C:4]([H:11])([H:12])[C:3](=[C:2]([H:9])[H:10])[C:6]1([H:15])[H:16])([H:7])([H:8])[H:14]"
C       -0.70332617       0.49138528       1.63784071
C       -1.70219336      -0.08353336      -0.87331061
C       -0.35340823      -0.15066224      -0.71082900
C        0.59081962      -1.22008112      -0.18294209
C        1.37610298      -0.01223328       0.40661426
C        0.78497734       0.85745285      -0.74110955
H       -1.14608247      -0.35815139       2.16517026
H       -1.29305782       1.38355141       1.42402692
H       -2.11337072       0.74900316      -1.43474515
H       -2.26756595      -1.00684359      -0.94294173
H        1.09138725      -1.76397562      -0.98571156
H        0.21036724      -1.98154470       0.49881881
H        2.45874704      -0.13413322       0.40021416
H        1.15281426       0.48689411       1.55414138
H        1.33557312       0.83532640      -1.68282544
H        0.57821585       1.90754533      -0.53241137
16
Frame=10 idx=005040 GeodesicLength=1.558416197308545 rxn_smarts="[C:1]1([H:7])([H:8])[C:2]([H:9])([H:10])[C:3]12[C:4]([H:11])([H:12])[C:5]([H:13])([H:14])[C:6]2([H:15])[H:16]>>[C:1]([C:5]1([H:13])[C:4]([H:11])([H:12])[C:3](=[C:2]([H:9])[H:10])[C:6]1([H:15])[H:16])([H:7])([H:8])[H:14]"
C       -0.69737418       0.46620348       1.57420730
C       -1.71136165      -0.07778495      -0.85134638
C       -0.35606322      -0.14963452      -0.70709422
C        0.59049312      -1.22132232      -0.18526717
C        1.36318868      -0.01087346       0.41825432
C        0.78580465       0.85584685      -0.73999162
H       -1.11678335      -0.36008268       2.15262619
H       -1.26687518       1.37883085       1.40332568
H       -2.12111081       0.75205954      -1.41801360
H       -2.27372695      -1.00211255      -0.93272583
H        1.09246451      -1.76023464      -0.99023234
H        0.21267828      -1.98988303       0.49011588
H        2.44571674      -0.13191026       0.42424090
H        1.13098648       0.51255765       1.57895801
H        1.33763383       0.83029137      -1.68064868
H        0.58432903       1.90804867      -0.53640842
16
Frame=11 idx=005040 GeodesicLength=1.7145323911946182 rxn_smarts="[C:1]1([H:7])([H:8])[C:2]([H:9])([H:10])[C:3]12[C:4]([H:11])([H:12])[C:5]([H:13])([H:14])[C:6]2([H:15])[H:16]>>[C:1]([C:5]1([H:13])[C:4]([H:11])([H:12])[C:3](=[C:2]([H:9])[H:10])[C:6]1([H:15])[H:16])([H:7])([H:8])[H:14]"
C       -0.69075227       0.44196505       1.51368628
C       -1.72004851      -0.07235899      -0.83032672
C       -0.35843605      -0.14901128      -0.70465548
C        0.59025198      -1.22273256      -0.18809862
C        1.35018503      -0.00982543       0.42932717
C        0.78669758       0.85411363      -0.73908775
H       -1.08656445      -0.35981057       2.13928064
H       -1.23984075       1.37212217       1.38344119
H       -2.12876212       0.75513706      -1.40138143
H       -2.28004998      -0.99730578      -0.92185722
H        1.09392617      -1.75689029      -0.99487883
H        0.21468178      -1.99785716       0.48116815
H        2.43241968      -0.12970421       0.44864485
H        1.10610324       0.53829721       1.60316890
H        1.34011998       0.82569325      -1.67847525
H        0.59006868       1.90816790      -0.53995589
16
Frame=12 idx=005040 GeodesicLength=1.8706769225792703 rxn_smarts="[C:1]1([H:7])([H:8])[C:2]([H:9])([H:10])[C:3]12[C:4]([H:11])([H:12])[C:5]([H:13])([H:14])[C:6]2([H:15])[H:16]>>[C:1]([C:5]1([H:13])[C:4]([H:11])([H:12])[C:3](=[C:2]([H:9])[H:10])[C:6]1([H:15])[H:16])([H:7])([H:8])[H:14]"
C       -0.68329061       0.41868450       1.45613517
C       -1.72823873      -0.06714742      -0.80999871
C       -0.36052764      -0.14869397      -0.70326208
C        0.59013266      -1.22427850      -0.19137054
C        1.33728975      -0.00910537       0.43976752
C        0.78770469       0.85229035      -0.73835298
H       -1.05604506      -0.35760270       2.12489223
H       -1.21240769       1.36352606       1.36422287
H       -2.13624183       0.75815151      -1.38493339
H       -2.28648789      -0.99239500      -0.91005564
H        1.09564922      -1.75391605      -0.99968519
H        0.21648751      -2.00545367       0.47208361
H        2.41901833      -0.12759369       0.47315840
H        1.07846405       0.56403342       1.62675490
H        1.34292466       0.82153303      -1.67635502
H        0.59556857       1.90796749      -0.54300114
16
Frame=13 idx=005040 GeodesicLength=2.026838176070211 rxn_smarts="[C:1]1([H:7])([H:8])[C:2]([H:9])([H:10])[C:3]12[C:4]([H:11])([H:12])[C:5]([H:13])([H:14])[C:6]2([H:15])[H:16]>>[C:1]([C:5]1([H:13])[C:4]([H:11])([H:12])[C:3](=[C:2]([H:9])[H:10])[C:6]1([H:15])[H:16])([H:7])([H:8])[H:14]"
C       -0.67487493       0.39638505       1.40139721
C       -1.73591401      -0.06204954      -0.79013528
C       -0.36233076      -0.14859945      -0.70270284
C        0.59016486      -1.22593690      -0.19502964
C        1.32467132      -0.00872016       0.44952602
C        0.78887724       0.85040633      -0.73775721
H       -1.02573058      -0.35380034       2.10928438
H       -1.18500179       1.35321668       1.34554289
H       -2.14348905       0.76104752      -1.36872117
H       -2.29298046      -0.98735468      -0.89707032
H        1.09753056      -1.75130092      -1.00467965
H        0.21818170      -2.01267143       0.46294575
H        2.40565414      -0.12564434       0.49756340
H        1.04831137       0.58972345       1.64968941
H        1.34597429       0.81779311      -1.67433204
H        0.60095610       1.90750562      -0.54552092
16
Frame=14 idx=005040 GeodesicLength=2.1830054576180196 rxn_smarts="[C:1]1([H:7])([H:8])[C:2]([H:9])([H:10])[C:3]12[C:4]([H:11])([H:12])[C:5]([H:13])([H:14])[C:6]2([H:15])[H:16]>>[C:1]([C:5]1([H:13])[C:4]([H:11])([H:12])[C:3](=[C:2]([H:9])[H:10])[C:6]1([H:15])[H:16])([H:7])([H:8])[H:14]"
C       -0.66542442       0.37509098       1.34930965
C       -1.74305207      -0.05698394      -0.77053807
C       -0.36383775      -0.14865382      -0.70280744
C        0.59037500      -1.22768260      -0.19903328
C        1.31247322      -0.00867125       0.45857303
C        0.79025993       0.84848830      -0.73728384
H       -0.99609544      -0.34876315       2.09234518
H       -1.15793421       1.34142113       1.32726842
H       -2.15046565       0.76376101      -1.35276233
H       -2.29946912      -0.98216922      -0.88268339
H        1.09949029      -1.74902166      -1.00989054
H        0.21983813      -2.01950740       0.45381964
H        2.39245305      -0.12390794       0.52168337
H        1.01583724       0.61530722       1.67196948
H        1.34921014       0.81446008      -1.67245434
H        0.60634165       1.90683227      -0.54751553
16
Frame=15 idx=005040 GeodesicLength=2.3391694197763253 rxn_smarts="[C:1]1([H:7])([H:8])[C:2]([H:9])([H:10])[C:3]12[C:4]([H:11])([H:12])[C:5]([H:13])([H:14])[C:6]2([H:15])[H:16]>>[C:1]([C:5]1([H:13])[C:4]([H:11])([H:12])[C:3](=[C:2]([H:9])[H:10])[C:6]1([H:15])[H:16])([H:7])([H:8])[H:14]"
C       -0.65490295       0.35482942       1.29969714
C       -1.74962808      -0.05187972      -0.75103963
C       -0.36503861      -0.14879390      -0.70344079
C        0.59077992      -1.22949570      -0.20334881
C        1.30080745      -0.00895417       0.46689102
C        0.79189530       0.84655639      -0.73692562
H       -0.96748070      -0.34286250       2.07403454
H       -1.13147540       1.32839215       1.30928972
H       -2.15714844       0.76624609      -1.33705444
H       -2.30588262      -0.97682533      -0.86672300
H        1.10146158      -1.74706378      -1.01534000
H        0.22150761      -2.02596272       0.44475168
H        2.37951437      -0.12242688       0.54538389
H        0.98116787       0.64074265       1.69358870
H        1.35259632       0.81150859      -1.67076215
H        0.61182637       1.90598940      -0.54900224
16
Frame=16 idx=005040 GeodesicLength=2.4953239510614096 rxn_smarts="[C:1]1([H:7])([H:8])[C:2]([H:9])([H:10])[C:3]12[C:4]([H:11])([H:12])[C:5]([H:13])([H:14])[C:6]2([H:15])[H:16]>>[C:1]([C:5]1([H:13])[C:4]([H:11])([H:12])[C:3](=[C:2]([H:9])[H:10])[C:6]1([H:15])[H:16])([H:7])([H:8])[H:14]"
C       -0.64330353       0.33562611       1.25238007
C       -1.75561517      -0.04668054      -0.73150324
C       -0.36592408      -0.14896419      -0.70449908
C        0.59138941      -1.23135739      -0.20795177
C        1.28976062      -0.00956066       0.47447363
C        0.79382098       0.84462806      -0.73668221
H       -0.94013865      -0.33644280       2.05436929
H       -1.10583010       1.31438807       1.29150924
H       -2.16352849       0.76845884      -1.32158081
H       -2.31214594      -0.97131501      -0.84905450
H        1.10339025      -1.74541179      -1.02104697
H        0.22322441      -2.03203771       0.43577418
H        2.36691721      -0.12123520       0.56856253
H        0.94437306       0.66597801       1.71455009
H        1.35611079       0.80891328      -1.66929167
H        0.61749922       1.90501291      -0.55000879
