13
Frame=0 idx=003631 GeodesicLength=0.0 rxn_smarts="[O:1]([N:2]=[C:3]1[C:4]([H:8])([H:9])[C:5]([H:10])([H:11])[C:6]1([H:12])[H:13])[H:7]>>[O:1]([N:2]1[C@@:3]2([C:4]([H:8])([H:9])[H:11])[C@:5]1([H:10])[C:6]2([H:12])[H:13])[H:7]"
O        2.29204621      -0.71363868      -0.45047770
N        1.60350067       0.46406961      -0.17264888
C        0.40002299       0.22897866       0.13159793
C       -0.29695322      -1.09939621       0.13404970
C       -1.85531847       0.45140754      -0.05289870
C       -0.63632692       1.26448246       0.40106988
H        3.16998244      -0.40101034      -0.67658797
H       -0.08715578      -1.72713133      -0.72858486
H       -0.15601603      -1.66175740       1.05990781
H       -1.78799743       0.37968474      -1.15260084
H       -1.46565139      -0.88761677       0.22939341
H       -0.48290057       2.17402921      -0.18202878
H       -0.69723250       1.52789857       1.45980895
13
Frame=1 idx=003631 GeodesicLength=0.12578276617512874 rxn_smarts="[O:1]([N:2]=[C:3]1[C:4]([H:8])([H:9])[C:5]([H:10])([H:11])[C:6]1([H:12])[H:13])[H:7]>>[O:1]([N:2]1[C@@:3]2([C:4]([H:8])([H:9])[H:11])[C@:5]1([H:10])[C:6]2([H:12])[H:13])[H:7]"
O        2.31237642      -0.70999150      -0.39379060
N        1.61428439       0.45401083      -0.08181880
C        0.38047519       0.21910039       0.09118717
C       -0.30245692      -1.11235291       0.08181149
C       -1.83924702       0.43802613       0.03532995
C       -0.61439425       1.28801480       0.36935261
H        3.19074900      -0.38547464      -0.60067903
H       -0.11527294      -1.70575798      -0.81015335
H       -0.12247263      -1.71860007       0.97235854
H       -1.90057435       0.37962089      -1.06420644
H       -1.47935791      -0.92567420       0.26057167
H       -0.49627173       2.16283563      -0.27138016
H       -0.62783726       1.61624263       1.41141695
13
Frame=2 idx=003631 GeodesicLength=0.25043195302349214 rxn_smarts="[O:1]([N:2]=[C:3]1[C:4]([H:8])([H:9])[C:5]([H:10])([H:11])[C:6]1([H:12])[H:13])[H:7]>>[O:1]([N:2]1[C@@:3]2([C:4]([H:8])([H:9])[H:11])[C@:5]1([H:10])[C:6]2([H:12])[H:13])[H:7]"
O        2.33064178      -0.70718065      -0.33141885
N        1.61738315       0.43761867       0.01776253
C        0.36563367       0.20928579       0.05935041
C       -0.30773838      -1.12363625       0.02703009
C       -1.81212781       0.42429904       0.12695389
C       -0.59139178       1.31059987       0.33290923
H        3.20505929      -0.36583749      -0.52792444
H       -0.14404002      -1.67658639      -0.89535318
H       -0.09298652      -1.77785408       0.87476208
H       -2.00933942       0.38007819      -0.95596201
H       -1.48728603      -0.96371673       0.28943123
H       -0.51224660       2.14292960      -0.36693304
H       -0.56156132       1.71000042       1.34939205
13
Frame=3 idx=003631 GeodesicLength=0.37414565770990954 rxn_smarts="[O:1]([N:2]=[C:3]1[C:4]([H:8])([H:9])[C:5]([H:10])([H:11])[C:6]1([H:12])[H:13])[H:7]>>[O:1]([N:2]1[C@@:3]2([C:4]([H:8])([H:9])[H:11])[C@:5]1([H:10])[C:6]2([H:12])[H:13])[H:7]"
O        2.34632868      -0.70500488      -0.26681033
N        1.61247387       0.41626997       0.11679424
C        0.35501312       0.19964437       0.03384070
C       -0.31327114      -1.13234418      -0.03253647
C       -1.77313125       0.41009024       0.22518856
C       -0.56826583       1.33151659       0.29061482
H        3.21778570      -0.34491543      -0.44203231
H       -0.17566930      -1.63728034      -0.98649834
H       -0.06614855      -1.83805430       0.76334288
H       -2.11584988       0.38096205      -0.82030903
H       -1.48900832      -1.00108781       0.31673431
H       -0.53384853       2.11189617      -0.46933505
H       -0.49640857       1.80830756       1.27100600
13
Frame=4 idx=003631 GeodesicLength=0.496307178587793 rxn_smarts="[O:1]([N:2]=[C:3]1[C:4]([H:8])([H:9])[C:5]([H:10])([H:11])[C:6]1([H:12])[H:13])[H:7]>>[O:1]([N:2]1[C@@:3]2([C:4]([H:8])([H:9])[H:11])[C@:5]1([H:10])[C:6]2([H:12])[H:13])[H:7]"
O        2.35929910      -0.70528633      -0.19151806
N        1.60053056       0.39293083       0.21282604
C        0.34842383       0.19095703       0.01073126
C       -0.31904422      -1.13736298      -0.09484149
C       -1.72121471       0.39597195       0.32307111
C       -0.54646413       1.34942425       0.24372337
H        3.22445565      -0.32514560      -0.35502600
H       -0.20848972      -1.58997731      -1.07829427
H       -0.04270790      -1.89353814       0.64279434
H       -2.20980569       0.38341617      -0.66196559
H       -1.48493526      -1.03613366       0.34067612
H       -0.56379827       2.07190971      -0.57121450
H       -0.43624923       1.90283411       1.17903769
13
Frame=5 idx=003631 GeodesicLength=0.6184414487313779 rxn_smarts="[O:1]([N:2]=[C:3]1[C:4]([H:8])([H:9])[C:5]([H:10])([H:11])[C:6]1([H:12])[H:13])[H:7]>>[O:1]([N:2]1[C@@:3]2([C:4]([H:8])([H:9])[H:11])[C@:5]1([H:10])[C:6]2([H:12])[H:13])[H:7]"
O        2.36791039      -0.70855830      -0.10948070
N        1.58219851       0.37197498       0.29499896
C        0.34521931       0.18516913      -0.02014015
C       -0.32527921      -1.13772731      -0.16056701
C       -1.65663757       0.38191401       0.41834680
C       -0.52766017       1.36415088       0.19272956
H        3.22972375      -0.31266289      -0.25266129
H       -0.24572872      -1.53782569      -1.16974340
H       -0.02034266      -1.93941583       0.51487724
H       -2.28760413       0.38540051      -0.48114886
H       -1.47432799      -1.06786254       0.36312104
H       -0.60749685       2.02709079      -0.66710886
H       -0.37997466       1.98835225       1.07677667
13
Frame=6 idx=003631 GeodesicLength=0.7424881317941162 rxn_smarts="[O:1]([N:2]=[C:3]1[C:4]([H:8])([H:9])[C:5]([H:10])([H:11])[C:6]1([H:12])[H:13])[H:7]>>[O:1]([N:2]1[C@@:3]2([C:4]([H:8])([H:9])[H:11])[C@:5]1([H:10])[C:6]2([H:12])[H:13])[H:7]"
O        2.37043249      -0.71476690      -0.02196584
N        1.55812833       0.35476285       0.36236375
C        0.34531592       0.18277770      -0.06085823
C       -0.33169101      -1.13354857      -0.22836819
C       -1.57949778       0.36764925       0.50647680
C       -0.51307073       1.37538637       0.13873410
H        3.23162879      -0.30821940      -0.13636518
H       -0.28717848      -1.48395955      -1.25814469
H        0.00073921      -1.97392508       0.38389669
H       -2.34306382       0.38776812      -0.28214980
H       -1.45720679      -1.09606514       0.38252911
H       -0.66574428       1.97955733      -0.75330167
H       -0.32879184       2.06258303       0.96715314
13
Frame=7 idx=003631 GeodesicLength=0.8683190917489285 rxn_smarts="[O:1]([N:2]=[C:3]1[C:4]([H:8])([H:9])[C:5]([H:10])([H:11])[C:6]1([H:12])[H:13])[H:7]>>[O:1]([N:2]1[C@@:3]2([C:4]([H:8])([H:9])[H:11])[C@:5]1([H:10])[C:6]2([H:12])[H:13])[H:7]"
O        2.36406669      -0.72440951       0.07137328
N        1.53073339       0.34502872       0.41233136
C        0.34817241       0.18409519      -0.10844314
C       -0.33788627      -1.12545061      -0.29391806
C       -1.49422638       0.35440225       0.57899648
C       -0.50284843       1.38438209       0.08523527
H        3.22638240      -0.31408967      -0.01851071
H       -0.33204640      -1.43126592      -1.33898065
H        0.02093185      -1.99656229       0.25690874
H       -2.36825746       0.38616365      -0.08298463
H       -1.43366094      -1.12035686       0.40216726
H       -0.73386758       1.93497717      -0.82389147
H       -0.28749328       2.12308579       0.85971627
13
Frame=8 idx=003631 GeodesicLength=0.996389520810068 rxn_smarts="[O:1]([N:2]=[C:3]1[C:4]([H:8])([H:9])[C:5]([H:10])([H:11])[C:6]1([H:12])[H:13])[H:7]>>[O:1]([N:2]1[C@@:3]2([C:4]([H:8])([H:9])[H:11])[C@:5]1([H:10])[C:6]2([H:12])[H:13])[H:7]"
O        2.34953100      -0.73503463       0.16556934
N        1.50183932       0.34059365       0.45041663
C        0.35296652       0.18720219      -0.15678080
C       -0.34342810      -1.11561014      -0.35500600
C       -1.40571514       0.34141832       0.63483244
C       -0.49670852       1.39059625       0.03424517
H        3.21332211      -0.32454335       0.09299692
H       -0.37597822      -1.38263515      -1.41040790
H        0.03923088      -2.00957461       0.13961225
H       -2.36658888       0.38594721       0.11012660
H       -1.40832233      -1.14217070       0.41705176
H       -0.80485316       1.89209531      -0.87988668
H       -0.25529547       2.17171565       0.75723027
13
Frame=9 idx=003631 GeodesicLength=1.126335283871986 rxn_smarts="[O:1]([N:2]=[C:3]1[C:4]([H:8])([H:9])[C:5]([H:10])([H:11])[C:6]1([H:12])[H:13])[H:7]>>[O:1]([N:2]1[C@@:3]2([C:4]([H:8])([H:9])[H:11])[C@:5]1([H:10])[C:6]2([H:12])[H:13])[H:7]"
O        2.32690368      -0.74602526       0.25923511
N        1.47398051       0.34226479       0.47687366
C        0.35877342       0.19181752      -0.20374559
C       -0.34840057      -1.10471552      -0.41104355
C       -1.31824831       0.32950493       0.67483803
C       -0.49408375       1.39534641      -0.01340918
H        3.19403925      -0.34082745       0.19729069
H       -0.41916203      -1.33765385      -1.47290845
H        0.05692067      -2.01523609       0.03192287
H       -2.34179532       0.38428162       0.29112959
H       -1.38143137      -1.16219637       0.43037647
H       -0.87574069       1.85239552      -0.92267156
H       -0.23175549       2.21104375       0.66211192
13
Frame=10 idx=003631 GeodesicLength=1.2579074124851601 rxn_smarts="[O:1]([N:2]=[C:3]1[C:4]([H:8])([H:9])[C:5]([H:10])([H:11])[C:6]1([H:12])[H:13])[H:7]>>[O:1]([N:2]1[C@@:3]2([C:4]([H:8])([H:9])[H:11])[C@:5]1([H:10])[C:6]2([H:12])[H:13])[H:7]"
O        2.29674345      -0.75623273       0.35078424
N        1.44815345       0.34878406       0.49409393
C        0.36488537       0.19737994      -0.24820553
C       -0.35290326      -1.09329471      -0.46218293
C       -1.23411474       0.31874664       0.70148434
C       -0.49423721       1.39892385      -0.05756908
H        3.16922448      -0.36179217       0.29453789
H       -0.46116828      -1.29598072      -1.52737654
H        0.07454608      -2.01516454      -0.06687294
H       -2.29805081       0.38133337       0.45836530
H       -1.35339567      -1.18109530       0.44303233
H       -0.94443625       1.81531863      -0.95455209
H       -0.21524662       2.24307370       0.57446106
13
Frame=11 idx=003631 GeodesicLength=1.3907208581183523 rxn_smarts="[O:1]([N:2]=[C:3]1[C:4]([H:8])([H:9])[C:5]([H:10])([H:11])[C:6]1([H:12])[H:13])[H:7]>>[O:1]([N:2]1[C@@:3]2([C:4]([H:8])([H:9])[H:11])[C@:5]1([H:10])[C:6]2([H:12])[H:13])[H:7]"
O        2.26024331      -0.76469731       0.43885817
N        1.42472235       0.35864662       0.50446346
C        0.37083121       0.20331387      -0.28971322
C       -0.35706363      -1.08197213      -0.50881051
C       -1.15476185       0.30898788       0.71715180
C       -0.49647818       1.40150175      -0.09825136
H        3.13972743      -0.38573959       0.38509766
H       -0.50145718      -1.25770968      -1.57480267
H        0.09228600      -2.01076938      -0.15733331
H       -2.23925127       0.37796279       0.61199205
H       -1.32515494      -1.19943186       0.45496885
H       -1.00945136       1.78057399      -0.97758547
H       -0.20419189       2.26933305       0.49396454
13
Frame=12 idx=003631 GeodesicLength=1.5245624570102618 rxn_smarts="[O:1]([N:2]=[C:3]1[C:4]([H:8])([H:9])[C:5]([H:10])([H:11])[C:6]1([H:12])[H:13])[H:7]>>[O:1]([N:2]1[C@@:3]2([C:4]([H:8])([H:9])[H:11])[C@:5]1([H:10])[C:6]2([H:12])[H:13])[H:7]"
O        2.21858581      -0.77091031       0.52238255
N        1.40349900       0.37041507       0.51001157
C        0.37632383       0.20923405      -0.32834755
C       -0.36110086      -1.07109928      -0.55149661
C       -1.08078579       0.30011277       0.72402599
C       -0.50022113       1.40324159      -0.13573882
H        3.10622108      -0.41119716       0.47026111
H       -0.54008595      -1.22263394      -1.61625661
H        0.11021026      -2.00310352      -0.24056376
H       -2.16816701       0.37458080       0.75292819
H       -1.29709280      -1.21756628       0.46649591
H       -1.07023261       1.74790678      -0.99356507
H       -0.19715384       2.29101944       0.41986309
13
Frame=13 idx=003631 GeodesicLength=1.6592560384418928 rxn_smarts="[O:1]([N:2]=[C:3]1[C:4]([H:8])([H:9])[C:5]([H:10])([H:11])[C:6]1([H:12])[H:13])[H:7]>>[O:1]([N:2]1[C@@:3]2([C:4]([H:8])([H:9])[H:11])[C@:5]1([H:10])[C:6]2([H:12])[H:13])[H:7]"
O        2.17301582      -0.77478439       0.60054988
N        1.38393573       0.38278964       0.51275311
C        0.38120656       0.21486450      -0.36411684
C       -0.36522861      -1.06086830      -0.59067608
C       -1.01251926       0.29207612       0.72390457
C       -0.50496157       1.40431711      -0.17030479
H        3.06927465      -0.43677394       0.55074076
H       -0.57714859      -1.19045907      -1.65258497
H        0.12820476      -1.99293335      -0.31751194
H       -2.08694499       0.37128173       0.88176521
H       -1.26941499      -1.23571971       0.47799363
H       -1.12647540       1.71716782      -1.00397157
H       -0.19294412       2.30904185       0.35145902
13
Frame=14 idx=003631 GeodesicLength=1.7947009967047372 rxn_smarts="[O:1]([N:2]=[C:3]1[C:4]([H:8])([H:9])[C:5]([H:10])([H:11])[C:6]1([H:12])[H:13])[H:7]>>[O:1]([N:2]1[C@@:3]2([C:4]([H:8])([H:9])[H:11])[C@:5]1([H:10])[C:6]2([H:12])[H:13])[H:7]"
O        2.12468795      -0.77649504       0.67305843
N        1.36544080       0.39492636       0.51424558
C        0.38541757       0.22002396      -0.39705568
C       -0.36953069      -1.05139487      -0.62677095
C       -0.95005713       0.28469902       0.71826627
C       -0.51038076       1.40482093      -0.20221679
H        3.02945689      -0.46141274       0.62695540
H       -0.61249924      -1.16092353      -1.68458238
H        0.14607563      -1.98084080      -0.38886679
H       -1.99711431       0.36836017       0.99948564
H       -1.24255346      -1.25402181       0.48939165
H       -1.17819264       1.68820381      -1.01000756
H       -0.19075061       2.32405455       0.28809718
13
Frame=15 idx=003631 GeodesicLength=1.9308180618753323 rxn_smarts="[O:1]([N:2]=[C:3]1[C:4]([H:8])([H:9])[C:5]([H:10])([H:11])[C:6]1([H:12])[H:13])[H:7]>>[O:1]([N:2]1[C@@:3]2([C:4]([H:8])([H:9])[H:11])[C@:5]1([H:10])[C:6]2([H:12])[H:13])[H:7]"
O        2.07454070      -0.77636231       0.74005874
N        1.34744756       0.40636498       0.51570257
C        0.38894317       0.22464433      -0.42716467
C       -0.37401287      -1.04269597      -0.66012388
C       -0.89337908       0.27782400       0.70835147
C       -0.51629231       1.40484909      -0.23170240
H        2.98730223      -0.48451599       0.69893426
H       -0.64593908      -1.13372693      -1.71293113
H        0.16363148      -1.96725395      -0.45514570
H       -1.89975812       0.36592367       1.10681966
H       -1.21687474      -1.27253146       0.50064067
H       -1.22555500       1.66089418      -1.01266432
H       -0.19005393       2.33658635       0.22922474
13
Frame=16 idx=003631 GeodesicLength=2.0675399438898308 rxn_smarts="[O:1]([N:2]=[C:3]1[C:4]([H:8])([H:9])[C:5]([H:10])([H:11])[C:6]1([H:12])[H:13])[H:7]>>[O:1]([N:2]1[C@@:3]2([C:4]([H:8])([H:9])[H:11])[C@:5]1([H:10])[C:6]2([H:12])[H:13])[H:7]"
O        2.02327135      -0.77476450       0.80193100
N        1.32952491       0.41694238       0.51792809
C        0.39178489       0.22876132      -0.45445858
C       -0.37867520      -1.03469461      -0.69097008
C       -0.84230875       0.27140255       0.69528274
C       -0.52258339       1.40454080      -0.25893869
H        2.94330476      -0.50592278       0.76664176
H       -0.67744218      -1.10852836      -1.73813607
H        0.18071547      -1.95245873      -0.51680257
H       -1.79584942       0.36371223       1.20390936
H       -1.19242017      -1.29127431       0.51197207
H       -1.26883889       1.63516645      -1.01272462
H       -0.19048338       2.34711755       0.17436560
