13
Frame=0 idx=007933 GeodesicLength=0.0 rxn_smarts="[C:1]1([H:8])([H:9])[C:2]([H:10])([H:11])[c:3]2[n:4][c:5]([H:12])[c:6]([H:13])[n:7]21>>[C:1]1([H:8])([H:9])[C:2]([H:11])=[C:3]2[N:4]([H:10])[C:5]([H:12])=[C:6]([H:13])[N:7]12"
C       -1.43585487      -0.62639081       0.08080794
C       -1.37608286       0.90380582       0.20831197
C       -0.00567295       0.65011178       0.62181672
N        1.07245654       1.28982193       0.11547840
C        1.84740932       0.21822924      -0.34740163
C        1.22571651      -0.97008968      -0.15062696
N        0.03205496      -0.69574940       0.54497616
H       -1.49415258      -1.01167495      -0.93459205
H       -2.09607923      -1.18216000       0.74742739
H       -0.05899648       1.52583710      -0.52616501
H       -2.10179759       1.48483991       0.76172516
H        2.82983893       0.38581204      -0.76200545
H        1.56116035      -1.97239295      -0.35975266
13
Frame=1 idx=007933 GeodesicLength=0.062139284782852376 rxn_smarts="[C:1]1([H:8])([H:9])[C:2]([H:10])([H:11])[c:3]2[n:4][c:5]([H:12])[c:6]([H:13])[n:7]21>>[C:1]1([H:8])([H:9])[C:2]([H:11])=[C:3]2[N:4]([H:10])[C:5]([H:12])=[C:6]([H:13])[N:7]12"
C       -1.43685187      -0.62889707       0.08328231
C       -1.37417104       0.90222570       0.20873133
C       -0.00415429       0.64931171       0.62277220
N        1.07051563       1.28874972       0.10854041
C        1.85232082       0.21658902      -0.34170048
C        1.22917346      -0.97206186      -0.14955400
N        0.03144743      -0.69661012       0.53553688
H       -1.50606829      -1.01255011      -0.93220196
H       -2.09286964      -1.18357563       0.75493853
H       -0.07041961       1.54164382      -0.53977904
H       -2.09870175       1.48398285       0.76297364
H        2.83932763       0.38474352      -0.74486537
H        1.56045152      -1.97355154      -0.36867443
13
Frame=2 idx=007933 GeodesicLength=0.1242745563484901 rxn_smarts="[C:1]1([H:8])([H:9])[C:2]([H:10])([H:11])[c:3]2[n:4][c:5]([H:12])[c:6]([H:13])[n:7]21>>[C:1]1([H:8])([H:9])[C:2]([H:11])=[C:3]2[N:4]([H:10])[C:5]([H:12])=[C:6]([H:13])[N:7]12"
C       -1.43779345      -0.63138327       0.08574598
C       -1.37205918       0.90066604       0.20908723
C       -0.00253247       0.64836515       0.62399094
N        1.06844257       1.28751056       0.10138035
C        1.85731486       0.21486685      -0.33561716
C        1.23274565      -0.97414269      -0.14820377
N        0.03084398      -0.69753161       0.52600560
H       -1.51799903      -1.01338006      -0.92970679
H       -2.08957586      -1.18492600       0.76243752
H       -0.08218317       1.55767499      -0.55350982
H       -2.09547894       1.48316785       0.76404077
H        2.84855558       0.38373067      -0.72775469
H        1.55971944      -1.97461849      -0.37789616
13
Frame=3 idx=007933 GeodesicLength=0.18640639035224474 rxn_smarts="[C:1]1([H:8])([H:9])[C:2]([H:10])([H:11])[c:3]2[n:4][c:5]([H:12])[c:6]([H:13])[n:7]21>>[C:1]1([H:8])([H:9])[C:2]([H:11])=[C:3]2[N:4]([H:10])[C:5]([H:12])=[C:6]([H:13])[N:7]12"
C       -1.43868072      -0.63384914       0.08820483
C       -1.36974110       0.89912733       0.20937679
C       -0.00080182       0.64726540       0.62547376
N        1.06622863       1.28608713       0.09397449
C        1.86238301       0.21306011      -0.32915476
C        1.23643255      -0.97633874      -0.14657262
N        0.03024697      -0.69851347       0.51637273
H       -1.52995404      -1.01416598      -0.92709702
H       -2.08619325      -1.18620786       0.76993737
H       -0.09431116       1.57393971      -0.56737035
H       -2.09212120       1.48239642       0.76492606
H        2.85755047       0.38277165      -0.71062690
H        1.55896166      -1.97557257      -0.38744440
13
Frame=4 idx=007933 GeodesicLength=0.24852854796847104 rxn_smarts="[C:1]1([H:8])([H:9])[C:2]([H:10])([H:11])[c:3]2[n:4][c:5]([H:12])[c:6]([H:13])[n:7]21>>[C:1]1([H:8])([H:9])[C:2]([H:11])=[C:3]2[N:4]([H:10])[C:5]([H:12])=[C:6]([H:13])[N:7]12"
C       -1.43950742      -0.63627525       0.09058269
C       -1.36719268       0.89762137       0.20960863
C        0.00103473       0.64597860       0.62729595
N        1.06389742       1.28443675       0.08645810
C        1.86753422       0.21114711      -0.32219533
C        1.24024443      -0.97867615      -0.14456281
N        0.02963328      -0.69957719       0.50665539
H       -1.54186272      -1.01483228      -0.92447342
H       -2.08277037      -1.18742749       0.77728861
H       -0.10675882       1.59048813      -0.58125008
H       -2.08862920       1.48165889       0.76562939
H        2.86608501       0.38189467      -0.69401530
H        1.55829212      -1.97643716      -0.39702181
13
Frame=5 idx=007933 GeodesicLength=0.3106417370104973 rxn_smarts="[C:1]1([H:8])([H:9])[C:2]([H:10])([H:11])[c:3]2[n:4][c:5]([H:12])[c:6]([H:13])[n:7]21>>[C:1]1([H:8])([H:9])[C:2]([H:11])=[C:3]2[N:4]([H:10])[C:5]([H:12])=[C:6]([H:13])[N:7]12"
C       -1.44027644      -0.63865898       0.09287407
C       -1.36440714       0.89615014       0.20978328
C        0.00298061       0.64449260       0.62946463
N        1.06144192       1.28253955       0.07882534
C        1.87275518       0.20912608      -0.31474194
C        1.24417728      -0.98116179      -0.14217082
N        0.02900320      -0.70072453       0.49684037
H       -1.55373187      -1.01536741      -0.92184351
H       -2.07930985      -1.18858529       0.78448528
H       -0.11954542       1.60734271      -0.59514223
H       -2.08499555       1.48095327       0.76615758
H        2.87417443       0.38109734      -0.67793906
H        1.55773364      -1.97720369      -0.40659298
13
Frame=6 idx=007933 GeodesicLength=0.37274397517946395 rxn_smarts="[C:1]1([H:8])([H:9])[C:2]([H:10])([H:11])[c:3]2[n:4][c:5]([H:12])[c:6]([H:13])[n:7]21>>[C:1]1([H:8])([H:9])[C:2]([H:11])=[C:3]2[N:4]([H:10])[C:5]([H:12])=[C:6]([H:13])[N:7]12"
C       -1.44099019      -0.64099942       0.09507948
C       -1.36137866       0.89471485       0.20989823
C        0.00504050       0.64279747       0.63198085
N        1.05885422       1.28037558       0.07106166
C        1.87803010       0.20699749      -0.30681056
C        1.24822606      -0.98380057      -0.13939979
N        0.02836002      -0.70195494       0.48691226
H       -1.56557346      -1.01576685      -0.91920587
H       -2.07580903      -1.18968073       0.79153381
H       -0.13269511       1.62452403      -0.60904497
H       -2.08121208       1.48027850       0.76651436
H        2.88184753       0.38037245      -0.66237354
H        1.55730008      -1.97785786      -0.41614591
13
Frame=7 idx=007933 GeodesicLength=0.43483539239242475 rxn_smarts="[C:1]1([H:8])([H:9])[C:2]([H:10])([H:11])[c:3]2[n:4][c:5]([H:12])[c:6]([H:13])[n:7]21>>[C:1]1([H:8])([H:9])[C:2]([H:11])=[C:3]2[N:4]([H:10])[C:5]([H:12])=[C:6]([H:13])[N:7]12"
C       -1.44164627      -0.64327821       0.09712614
C       -1.35808588       0.89332589       0.20996718
C        0.00720946       0.64085590       0.63490882
N        1.05614957       1.27790988       0.06328798
C        1.88334817       0.20474863      -0.29833588
C        1.25239078      -0.98661155      -0.13618215
N        0.02768505      -0.70328637       0.47687551
H       -1.57733124      -1.01595312      -0.91666038
H       -2.07231360      -1.19072447       0.79829670
H       -0.14617524       1.64209782      -0.62284886
H       -2.07727687       1.47962039       0.76671554
H        2.88892870       0.37973841      -0.64779126
H        1.55711737      -1.97844321      -0.42535935
13
Frame=8 idx=007933 GeodesicLength=0.4969141117511384 rxn_smarts="[C:1]1([H:8])([H:9])[C:2]([H:10])([H:11])[c:3]2[n:4][c:5]([H:12])[c:6]([H:13])[n:7]21>>[C:1]1([H:8])([H:9])[C:2]([H:11])=[C:3]2[N:4]([H:10])[C:5]([H:12])=[C:6]([H:13])[N:7]12"
C       -1.44224508      -0.64549048       0.09899242
C       -1.35452009       0.89198723       0.20999014
C        0.00948757       0.63865076       0.63826652
N        1.05332731       1.27512201       0.05553542
C        1.88869392       0.20238059      -0.28931697
C        1.25666807      -0.98959964      -0.13249865
N        0.02697835      -0.70472044       0.46672030
H       -1.58899752      -1.01590214      -0.91423689
H       -2.06883420      -1.19172175       0.80473906
H       -0.15999454       1.66010320      -0.63651409
H       -2.07318594       1.47897291       0.76676651
H        2.89539138       0.37918897      -0.63431723
H        1.55723076      -1.97897123      -0.43412653
13
Frame=9 idx=007933 GeodesicLength=0.5589809639795155 rxn_smarts="[C:1]1([H:8])([H:9])[C:2]([H:10])([H:11])[c:3]2[n:4][c:5]([H:12])[c:6]([H:13])[n:7]21>>[C:1]1([H:8])([H:9])[C:2]([H:11])=[C:3]2[N:4]([H:10])[C:5]([H:12])=[C:6]([H:13])[N:7]12"
C       -1.44278816      -0.64763246       0.10066503
C       -1.35067372       0.89070141       0.20996942
C        0.01187714       0.63616533       0.64205734
N        1.05038186       1.27199672       0.04781197
C        1.89403883       0.19989917      -0.27980401
C        1.26104820      -0.99276599      -0.12835817
N        0.02624324      -0.70625658       0.45642612
H       -1.60057829      -1.01559343      -0.91195395
H       -2.06537281      -1.19267759       0.81084450
H       -0.17417421       1.67858274      -0.65001195
H       -2.06892967       1.47832892       0.76668348
H        2.90124229       0.37871195      -0.62197875
H        1.55768531      -1.97946020      -0.44235103
13
Frame=10 idx=007933 GeodesicLength=0.6210359512916518 rxn_smarts="[C:1]1([H:8])([H:9])[C:2]([H:10])([H:11])[c:3]2[n:4][c:5]([H:12])[c:6]([H:13])[n:7]21>>[C:1]1([H:8])([H:9])[C:2]([H:11])=[C:3]2[N:4]([H:10])[C:5]([H:12])=[C:6]([H:13])[N:7]12"
C       -1.44327582      -0.64969964       0.10212790
C       -1.34653894       0.88947162       0.20990852
C        0.01438095       0.63338201       0.64628218
N        1.04730898       1.26852133       0.04012964
C        1.89934955       0.19731226      -0.26986887
C        1.26552084      -0.99611036      -0.12377210
N        0.02548413      -0.70789308       0.44597104
H       -1.61207766      -1.01500333      -0.90983335
H       -2.06193060      -1.19359840       0.81659184
H       -0.18873761       1.69758338      -0.66330667
H       -2.06449755       1.47767968       0.76648708
H        2.90648313       0.37829356      -0.61080051
H        1.55853060      -1.97993902      -0.44991670
13
Frame=11 idx=007933 GeodesicLength=0.6830797840159996 rxn_smarts="[C:1]1([H:8])([H:9])[C:2]([H:10])([H:11])[c:3]2[n:4][c:5]([H:12])[c:6]([H:13])[n:7]21>>[C:1]1([H:8])([H:9])[C:2]([H:11])=[C:3]2[N:4]([H:10])[C:5]([H:12])=[C:6]([H:13])[N:7]12"
C       -1.44370793      -0.65168975       0.10337613
C       -1.34210976       0.88829983       0.20980979
C        0.01700450       0.63028664       0.65092712
N        1.04410154       1.26468985       0.03248063
C        1.90458394       0.19463151      -0.25963117
C        1.27007250      -0.99962908      -0.11877183
N        0.02470983      -0.70962463       0.43532768
H       -1.62351052      -1.01411779      -0.90788069
H       -2.05849876      -1.19448941       0.82198198
H       -0.20372115       1.71714814      -0.67637608
H       -2.05987573       1.47701739       0.76620112
H        2.91115036       0.37791594      -0.60070375
H        1.55980118      -1.98043864      -0.45674094
13
Frame=12 idx=007933 GeodesicLength=0.7451130644431002 rxn_smarts="[C:1]1([H:8])([H:9])[C:2]([H:10])([H:11])[c:3]2[n:4][c:5]([H:12])[c:6]([H:13])[n:7]21>>[C:1]1([H:8])([H:9])[C:2]([H:11])=[C:3]2[N:4]([H:10])[C:5]([H:12])=[C:6]([H:13])[N:7]12"
C       -1.44408326      -0.65360015       0.10440235
C       -1.33738029       0.88718836       0.20967512
C        0.01975300       0.62686461       0.65597663
N        1.04075514       1.26050095       0.02486688
C        1.90969819       0.19186977      -0.24922560
C        1.27468931      -1.00331770      -0.11338890
N        0.02392926      -0.71144522       0.42446960
H       -1.63488897      -1.01292117      -0.90610399
H       -2.05506870      -1.19535638       0.82701115
H       -0.21916141       1.73732160      -0.68919136
H       -2.05505079       1.47633357       0.76585023
H        2.91527559       0.37756361      -0.59161596
H        1.56153294      -1.98100186      -0.46272615
13
Frame=13 idx=007933 GeodesicLength=0.8071397996831784 rxn_smarts="[C:1]1([H:8])([H:9])[C:2]([H:10])([H:11])[c:3]2[n:4][c:5]([H:12])[c:6]([H:13])[n:7]21>>[C:1]1([H:8])([H:9])[C:2]([H:11])=[C:3]2[N:4]([H:10])[C:5]([H:12])=[C:6]([H:13])[N:7]12"
C       -1.44439463      -0.65542803       0.10519299
C       -1.33234050       0.88613921       0.20950281
C        0.02262848       0.62310101       0.66142557
N        1.03727140       1.25595866       0.01732376
C        1.91465599       0.18903449      -0.23876622
C        1.27936166      -1.00717217      -0.10762622
N        0.02315112      -0.71334821       0.41338641
H       -1.64620431      -1.01139612      -0.90451986
H       -2.05163630      -1.19620658       0.83165917
H       -0.23508594       1.75813899      -0.70171854
H       -2.05001155       1.47561779       0.76544680
H        2.91885978       0.37722332      -0.58353688
H        1.56374481      -1.98166235      -0.46776980
13
Frame=14 idx=007933 GeodesicLength=0.869158189295187 rxn_smarts="[C:1]1([H:8])([H:9])[C:2]([H:10])([H:11])[c:3]2[n:4][c:5]([H:12])[c:6]([H:13])[n:7]21>>[C:1]1([H:8])([H:9])[C:2]([H:11])=[C:3]2[N:4]([H:10])[C:5]([H:12])=[C:6]([H:13])[N:7]12"
C       -1.44464455      -0.65717430       0.10576154
C       -1.32699172       0.88515287       0.20929192
C        0.02564214       0.61898721       0.66722171
N        1.03364211       1.25107574       0.00980951
C        1.91940997       0.18614615      -0.22845131
C        1.28406629      -1.01118050      -0.10156828
N        0.02238922      -0.71532127       0.40203004
H       -1.65750676      -1.00954236      -0.90310227
H       -2.04817410      -1.19704200       0.83596666
H       -0.25156261       1.77963435      -0.71395304
H       -2.04473789       1.47486440       0.76502579
H        2.92201272       0.37688128      -0.57620174
H        1.56645520      -1.98248157      -0.47183052
13
Frame=15 idx=007933 GeodesicLength=0.9311770927291464 rxn_smarts="[C:1]1([H:8])([H:9])[C:2]([H:10])([H:11])[c:3]2[n:4][c:5]([H:12])[c:6]([H:13])[n:7]21>>[C:1]1([H:8])([H:9])[C:2]([H:11])=[C:3]2[N:4]([H:10])[C:5]([H:12])=[C:6]([H:13])[N:7]12"
C       -1.44483149      -0.65885084       0.10615442
C       -1.32133175       0.88422245       0.20901473
C        0.02880044       0.61452135       0.67330660
N        1.02986335       1.24587064       0.00228940
C        1.92393402       0.18321535      -0.21842332
C        1.28878029      -1.01533040      -0.09529893
N        0.02166154      -0.71735045       0.39037110
H       -1.66885071      -1.00740655      -0.90177579
H       -2.04463983      -1.19785165       0.84003343
H       -0.26865553       1.80179718      -0.72594125
H       -2.03920911       1.47408293       0.76456614
H        2.92488102       0.37653299      -0.56924702
H        1.56959776      -1.98345300      -0.47504950
13
Frame=16 idx=007933 GeodesicLength=0.993198358597619 rxn_smarts="[C:1]1([H:8])([H:9])[C:2]([H:10])([H:11])[c:3]2[n:4][c:5]([H:12])[c:6]([H:13])[n:7]21>>[C:1]1([H:8])([H:9])[C:2]([H:11])=[C:3]2[N:4]([H:10])[C:5]([H:12])=[C:6]([H:13])[N:7]12"
C       -1.44494604      -0.66045384       0.10635022
C       -1.31535246       0.88335172       0.20865899
C        0.03209740       0.60968988       0.67968266
N        1.02595705       1.24036281      -0.00513834
C        1.92821711       0.18024673      -0.20873118
C        1.29349176      -1.01961456      -0.08881009
N        0.02097316      -0.71942744       0.37841686
H       -1.68021151      -1.00497437      -0.90056322
H       -2.04103719      -1.19863970       0.84382246
H       -0.28638014       1.82463940      -0.73764257
H       -2.03342340       1.47326580       0.76406105
H        2.92742861       0.37617734      -0.56278966
H        1.57318565      -1.98462377      -0.47731719
