8
Frame=0 idx=005123 GeodesicLength=0.0 rxn_smarts="[O:1]=[C:2]([C:3]#[C:4][C:5](=[O:6])[H:8])[H:7]>>[O:1]=[C:2]=[C:3]=[C:4]=[C:5]([O:6][H:7])[H:8]"
O       -2.54358878      -0.62707481       0.62039944
C       -1.49933045      -0.17403326       0.33357615
C       -0.85632176       0.85076630      -0.39750744
C        0.34387843       1.06994236      -0.74690610
C        1.33699528       0.19953602      -0.21179538
O        1.01481971      -0.98074549       0.06095554
H       -0.14359923      -0.86629376       0.31332443
H        2.34714680       0.52790265       0.02795335
8
Frame=1 idx=005123 GeodesicLength=0.09766633612182682 rxn_smarts="[O:1]=[C:2]([C:3]#[C:4][C:5](=[O:6])[H:8])[H:7]>>[O:1]=[C:2]=[C:3]=[C:4]=[C:5]([O:6][H:7])[H:8]"
O       -2.57462745      -0.61244877       0.59517731
C       -1.51610317      -0.18066629       0.32604631
C       -0.86178653       0.84791374      -0.38573637
C        0.34214254       1.07127785      -0.71578464
C        1.34799028       0.20544865      -0.20287812
O        1.04001128      -0.97760235       0.08244989
H       -0.14822169      -0.89016692       0.32841569
H        2.37059473       0.53624409      -0.02769007
8
Frame=2 idx=005123 GeodesicLength=0.1951863879975373 rxn_smarts="[O:1]=[C:2]([C:3]#[C:4][C:5](=[O:6])[H:8])[H:7]>>[O:1]=[C:2]=[C:3]=[C:4]=[C:5]([O:6][H:7])[H:8]"
O       -2.60449248      -0.59546229       0.57286304
C       -1.53260271      -0.18773585       0.31696312
C       -0.86693457       0.84442253      -0.37504424
C        0.34091857       1.07233911      -0.68342783
C        1.35965395       0.21168373      -0.19326105
O        1.06636901      -0.97357464       0.10615918
H       -0.15345701      -0.91665184       0.33906885
H        2.39054524       0.54497924      -0.08332106
8
Frame=3 idx=005123 GeodesicLength=0.2926986052712874 rxn_smarts="[O:1]=[C:2]([C:3]#[C:4][C:5](=[O:6])[H:8])[H:7]>>[O:1]=[C:2]=[C:3]=[C:4]=[C:5]([O:6][H:7])[H:8]"
O       -2.63380892      -0.57673359       0.55216635
C       -1.54940714      -0.19616483       0.30465361
C       -0.87186911       0.84054945      -0.36480633
C        0.34018257       1.07400972      -0.64784285
C        1.37195618       0.21917661      -0.18084620
O        1.09389294      -0.96766562       0.13440064
H       -0.15917493      -0.94541770       0.34607623
H        2.40822840       0.55224597      -0.14380145
8
Frame=4 idx=005123 GeodesicLength=0.39008462971408053 rxn_smarts="[O:1]=[C:2]([C:3]#[C:4][C:5](=[O:6])[H:8])[H:7]>>[O:1]=[C:2]=[C:3]=[C:4]=[C:5]([O:6][H:7])[H:8]"
O       -2.66222198      -0.55572858       0.53422848
C       -1.56652098      -0.20693149       0.28695410
C       -0.87649668       0.83618216      -0.35531031
C        0.33992104       1.07682629      -0.60796327
C        1.38505384       0.22803628      -0.16602989
O        1.12249114      -0.95944516       0.16742570
H       -0.16477547      -0.97609328       0.34984608
H        2.42254908       0.55715378      -0.20915090
8
Frame=5 idx=005123 GeodesicLength=0.4874104532750023 rxn_smarts="[O:1]=[C:2]([C:3]#[C:4][C:5](=[O:6])[H:8])[H:7]>>[O:1]=[C:2]=[C:3]=[C:4]=[C:5]([O:6][H:7])[H:8]"
O       -2.68891294      -0.53249011       0.51974704
C       -1.58402625      -0.22076425       0.26125019
C       -0.88047965       0.83233677      -0.34496530
C        0.34007249       1.08096702      -0.56317459
C        1.39911907       0.23741332      -0.15118847
O        1.15201096      -0.94813529       0.20769286
H       -0.16995625      -1.00853735       0.34992045
H        2.43217257       0.55920991      -0.27928218
8
Frame=6 idx=005123 GeodesicLength=0.5848529131131863 rxn_smarts="[O:1]=[C:2]([C:3]#[C:4][C:5](=[O:6])[H:8])[H:7]>>[O:1]=[C:2]=[C:3]=[C:4]=[C:5]([O:6][H:7])[H:8]"
O       -2.71282663      -0.50879780       0.50639391
C       -1.60142445      -0.23628610       0.22871289
C       -0.88376024       0.82957602      -0.33287459
C        0.34049435       1.08701854      -0.51249852
C        1.41402191       0.24588559      -0.13996984
O        1.18180727      -0.93321436       0.25636175
H       -0.17439187      -1.04182001       0.34756921
H        2.43607965       0.55763812      -0.35369481
8
Frame=7 idx=005123 GeodesicLength=0.6815027932174432 rxn_smarts="[O:1]=[C:2]([C:3]#[C:4][C:5](=[O:6])[H:8])[H:7]>>[O:1]=[C:2]=[C:3]=[C:4]=[C:5]([O:6][H:7])[H:8]"
O       -2.73297165      -0.48659995       0.49118672
C       -1.61765711      -0.25036131       0.19363506
C       -0.88597224       0.82859427      -0.31853273
C        0.34116416       1.09119307      -0.46248240
C        1.42857638       0.25511290      -0.12734535
O        1.21129544      -0.91762247       0.30152466
H       -0.17742378      -1.07339114       0.34983357
H        2.43298880       0.55307463      -0.42781953
8
Frame=8 idx=005123 GeodesicLength=0.77836298752187 rxn_smarts="[O:1]=[C:2]([C:3]#[C:4][C:5](=[O:6])[H:8])[H:7]>>[O:1]=[C:2]=[C:3]=[C:4]=[C:5]([O:6][H:7])[H:8]"
O       -2.75198474      -0.46471206       0.47316015
C       -1.63156191      -0.25862477       0.16930253
C       -0.88765022       0.82627637      -0.30719617
C        0.34150754       1.09064190      -0.42051753
C        1.44338411       0.26476494      -0.11413637
O        1.24118784      -0.90577349       0.33494119
H       -0.18004877      -1.10460469       0.35530626
H        2.42516616       0.55203181      -0.49086007
8
Frame=9 idx=005123 GeodesicLength=0.8752180452259244 rxn_smarts="[O:1]=[C:2]([C:3]#[C:4][C:5](=[O:6])[H:8])[H:7]>>[O:1]=[C:2]=[C:3]=[C:4]=[C:5]([O:6][H:7])[H:8]"
O       -2.77078024      -0.44276776       0.45381249
C       -1.64451116      -0.26383695       0.15116186
C       -0.88916891       0.82440812      -0.29424338
C        0.34166973       1.08571003      -0.38787303
C        1.45856637       0.27495643      -0.10125450
O        1.27195819      -0.89559458       0.36143042
H       -0.18267457      -1.13625906       0.36177214
H        2.41494059       0.55338377      -0.54480599
8
Frame=10 idx=005123 GeodesicLength=0.9722517834751788 rxn_smarts="[O:1]=[C:2]([C:3]#[C:4][C:5](=[O:6])[H:8])[H:7]>>[O:1]=[C:2]=[C:3]=[C:4]=[C:5]([O:6][H:7])[H:8]"
O       -2.78985092      -0.41958640       0.43395644
C       -1.65735757      -0.26716178       0.13683960
C       -0.89064578       0.82147141      -0.28262658
C        0.34173517       1.07772533      -0.35983507
C        1.47405432       0.28441686      -0.09092927
O        1.30401318      -0.88827076       0.37978203
H       -0.18594849      -1.16774132       0.37298949
H        2.40400010       0.55914666      -0.59017665
8
Frame=11 idx=005123 GeodesicLength=1.0693321458436578 rxn_smarts="[O:1]=[C:2]([C:3]#[C:4][C:5](=[O:6])[H:8])[H:7]>>[O:1]=[C:2]=[C:3]=[C:4]=[C:5]([O:6][H:7])[H:8]"
O       -2.80882469      -0.39525760       0.41482089
C       -1.67019118      -0.26916164       0.12564151
C       -0.89224808       0.81817433      -0.27083215
C        0.34163012       1.06721120      -0.33661100
C        1.48979096       0.29426670      -0.08141720
O        1.33716726      -0.88064525       0.39671033
H       -0.18974579      -1.20101865       0.38208973
H        2.39242140       0.56643091      -0.63040212
8
Frame=12 idx=005123 GeodesicLength=1.1665465958929553 rxn_smarts="[O:1]=[C:2]([C:3]#[C:4][C:5](=[O:6])[H:8])[H:7]>>[O:1]=[C:2]=[C:3]=[C:4]=[C:5]([O:6][H:7])[H:8]"
O       -2.82808324      -0.36928526       0.39543823
C       -1.68343928      -0.27035534       0.11618928
C       -0.89380622       0.81333366      -0.26133716
C        0.34150765       1.05497698      -0.31413309
C        1.50582984       0.30370766      -0.07368329
O        1.37192848      -0.87471532       0.40842275
H       -0.19458085      -1.23472829       0.39514753
H        2.38064361       0.57706592      -0.66604425
8
Frame=13 idx=005123 GeodesicLength=1.26384462744333 rxn_smarts="[O:1]=[C:2]([C:3]#[C:4][C:5](=[O:6])[H:8])[H:7]>>[O:1]=[C:2]=[C:3]=[C:4]=[C:5]([O:6][H:7])[H:8]"
O       -2.84740272      -0.34172787       0.37696116
C       -1.69707707      -0.27066261       0.10930474
C       -0.89551434       0.80766617      -0.25249283
C        0.34121926       1.04053987      -0.29495317
C        1.52206070       0.31360963      -0.06659369
O        1.40806236      -0.86810029       0.41957745
H       -0.20023747      -1.27056207       0.40610898
H        2.36888928       0.58923716      -0.69791263
8
Frame=14 idx=005123 GeodesicLength=1.3612729584857388 rxn_smarts="[O:1]=[C:2]([C:3]#[C:4][C:5](=[O:6])[H:8])[H:7]>>[O:1]=[C:2]=[C:3]=[C:4]=[C:5]([O:6][H:7])[H:8]"
O       -2.86715567      -0.31215745       0.35844245
C       -1.71142031      -0.27028104       0.10462348
C       -0.89723799       0.80025834      -0.24607228
C        0.34084682       1.02399610      -0.27696579
C        1.53851815       0.32337861      -0.06075982
O        1.44603537      -0.86263784       0.42645742
H       -0.20730185      -1.30755293       0.41986971
H        2.35771547       0.60499620      -0.72559516
8
Frame=15 idx=005123 GeodesicLength=1.4588178196607509 rxn_smarts="[O:1]=[C:2]([C:3]#[C:4][C:5](=[O:6])[H:8])[H:7]>>[O:1]=[C:2]=[C:3]=[C:4]=[C:5]([O:6][H:7])[H:8]"
O       -2.88727392      -0.28156578       0.33803818
C       -1.72635582      -0.26927725       0.10141874
C       -0.89886480       0.79238147      -0.23887683
C        0.34058660       1.00564853      -0.25968046
C        1.55534024       0.33331342      -0.05609824
O        1.48608027      -0.85694616       0.43161370
H       -0.21568362      -1.34584723       0.43555625
H        2.34617104       0.62229301      -0.75197134
8
Frame=16 idx=005123 GeodesicLength=1.5564408026149201 rxn_smarts="[O:1]=[C:2]([C:3]#[C:4][C:5](=[O:6])[H:8])[H:7]>>[O:1]=[C:2]=[C:3]=[C:4]=[C:5]([O:6][H:7])[H:8]"
O       -2.90764389      -0.24992955       0.31589324
C       -1.74194476      -0.26755392       0.09986748
C       -0.90042827       0.78410483      -0.23062490
C        0.34044805       0.98525959      -0.24350940
C        1.57248430       0.34354882      -0.05251952
O        1.52833695      -0.85051348       0.43582427
H       -0.22557005      -1.38583751       0.45223294
H        2.33431767       0.64092122      -0.77716412
