14
Frame=0 idx=009309 GeodesicLength=0.0 rxn_smarts="[C:1]([C:2]([C@@:3]1([C:6]#[N:7])[C:4]([H:13])([H:14])[O:5]1)([H:11])[H:12])([H:8])([H:9])[H:10]>>[C:1]1([H:9])([H:10])[C:6]([C@:3]2([C:2]([H:8])([H:11])[H:12])[C:4]([H:13])([H:14])[O:5]2)=[N:7]1"
C       -2.70845440       1.00370435       0.01136147
C       -0.29333381      -0.95901888       0.54138051
C        0.85618979      -0.25143726      -0.12260867
C        2.04756892       0.18172380       0.61296136
O        2.07832906      -0.95559284      -0.23008967
C        0.49044046       0.50346125      -1.31677623
N        0.14966146       1.09508243      -2.23862272
H       -1.05731175      -0.23481638       0.85492445
H       -3.28790100       0.19907718      -0.48610719
H       -2.30247642       1.57018173      -0.84984264
H        0.06069145      -1.48659356       1.42622268
H       -0.73951132      -1.68124092      -0.14334483
H        2.61371410       1.03843232       0.26205712
H        2.09239345      -0.02296327       1.67848430
14
Frame=1 idx=009309 GeodesicLength=0.15305364539463465 rxn_smarts="[C:1]([C:2]([C@@:3]1([C:6]#[N:7])[C:4]([H:13])([H:14])[O:5]1)([H:11])[H:12])([H:8])([H:9])[H:10]>>[C:1]1([H:9])([H:10])[C:6]([C@:3]2([C:2]([H:8])([H:11])[H:12])[C:4]([H:13])([H:14])[O:5]2)=[N:7]1"
C       -2.60979314       0.96478184      -0.02740346
C       -0.30329084      -0.96364671       0.55383323
C        0.83780400      -0.24775032      -0.11615757
C        2.03687740       0.18298181       0.60783626
O        2.06174483      -0.94250593      -0.25116235
C        0.44552952       0.52793041      -1.28830766
N        0.10424879       1.08430058      -2.23467810
H       -1.06678084      -0.23296439       0.91068761
H       -3.23420283       0.19424380      -0.52095181
H       -2.28645559       1.61255581      -0.86308607
H        0.06677439      -1.49954962       1.42738534
H       -0.74373626      -1.69175255      -0.12872409
H        2.59340875       1.04762897       0.26097662
H        2.09787183      -0.03625370       1.66975204
14
Frame=2 idx=009309 GeodesicLength=0.3061278772595168 rxn_smarts="[C:1]([C:2]([C@@:3]1([C:6]#[N:7])[C:4]([H:13])([H:14])[O:5]1)([H:11])[H:12])([H:8])([H:9])[H:10]>>[C:1]1([H:9])([H:10])[C:6]([C@:3]2([C:2]([H:8])([H:11])[H:12])[C:4]([H:13])([H:14])[O:5]2)=[N:7]1"
C       -2.51718417       0.92718506      -0.06610668
C       -0.31380532      -0.96696622       0.56303353
C        0.82100658      -0.24519767      -0.11186042
C        2.02571284       0.18482400       0.60276553
O        2.04644210      -0.93120525      -0.26862121
C        0.40664924       0.54694229      -1.26539670
N        0.06284628       1.07472228      -2.23017712
H       -1.07765773      -0.22868150       0.95709440
H       -3.18317905       0.18894720      -0.55115496
H       -2.26741765       1.64939319      -0.86237207
H        0.06903683      -1.50730803       1.42862418
H       -0.74617222      -1.70301826      -0.11657656
H        2.57397337       1.05607792       0.25920275
H        2.09974889      -0.04571501       1.66154531
14
Frame=3 idx=009309 GeodesicLength=0.45922588180812995 rxn_smarts="[C:1]([C:2]([C@@:3]1([C:6]#[N:7])[C:4]([H:13])([H:14])[O:5]1)([H:11])[H:12])([H:8])([H:9])[H:10]>>[C:1]1([H:9])([H:10])[C:6]([C@:3]2([C:2]([H:8])([H:11])[H:12])[C:4]([H:13])([H:14])[O:5]2)=[N:7]1"
C       -2.43067126       0.89054473      -0.10427549
C       -0.32479902      -0.96899850       0.56957455
C        0.80563973      -0.24359378      -0.10938417
C        2.01436987       0.18697739       0.59770529
O        2.03234261      -0.92168775      -0.28312005
C        0.37302023       0.56138460      -1.24745998
N        0.02487147       1.06722186      -2.22545750
H       -1.09007932      -0.22159303       0.99531367
H       -3.13461765       0.18293780      -0.57780701
H       -2.24519612       1.68031301      -0.84968327
H        0.06796993      -1.51041147       1.43030699
H       -0.74727775      -1.71460275      -0.10629185
H        2.55559451       1.06364667       0.25669402
H        2.09883277      -0.05213877       1.65388480
14
Frame=4 idx=009309 GeodesicLength=0.6123323946045497 rxn_smarts="[C:1]([C:2]([C@@:3]1([C:6]#[N:7])[C:4]([H:13])([H:14])[O:5]1)([H:11])[H:12])([H:8])([H:9])[H:10]>>[C:1]1([H:9])([H:10])[C:6]([C@:3]2([C:2]([H:8])([H:11])[H:12])[C:4]([H:13])([H:14])[O:5]2)=[N:7]1"
C       -2.34981394       0.85506114      -0.14161684
C       -0.33616799      -0.96977447       0.57382529
C        0.79161569      -0.24261274      -0.10838973
C        2.00315947       0.18916556       0.59279133
O        2.01936570      -0.91372336      -0.29534117
C        0.34401439       0.57264159      -1.23357667
N       -0.01019287       1.06181329      -2.22093761
H       -1.10403214      -0.21153821       1.02642314
H       -3.08842965       0.17603987      -0.60061458
H       -2.22052782       1.70479088      -0.82800221
H        0.06400997      -1.50958040       1.43239487
H       -0.74742739      -1.72598378      -0.09768203
H        2.53854081       1.07027136       0.25387212
H        2.09588576      -0.05657074       1.64685410
14
Frame=5 idx=009309 GeodesicLength=0.7655022189975895 rxn_smarts="[C:1]([C:2]([C@@:3]1([C:6]#[N:7])[C:4]([H:13])([H:14])[O:5]1)([H:11])[H:12])([H:8])([H:9])[H:10]>>[C:1]1([H:9])([H:10])[C:6]([C@:3]2([C:2]([H:8])([H:11])[H:12])[C:4]([H:13])([H:14])[O:5]2)=[N:7]1"
C       -2.27392590       0.82126655      -0.17800057
C       -0.34779882      -0.96915108       0.57599914
C        0.77891585      -0.24186498      -0.10855393
C        1.99242454       0.19093039       0.58819483
O        2.00737264      -0.90709392      -0.30598747
C        0.31919905       0.58225557      -1.22260375
N       -0.04247448       1.05867367      -2.21651264
H       -1.11936504      -0.19822861       1.05127817
H       -3.04440184       0.16783638      -0.61793707
H       -2.19535499       1.72193484      -0.80153587
H        0.05746270      -1.50536034       1.43460465
H       -0.74688829      -1.73646431      -0.09074196
H        2.52320925       1.07562779       0.25136708
H        2.09162535      -0.06036193       1.64042939
14
Frame=6 idx=009309 GeodesicLength=0.9187041768089559 rxn_smarts="[C:1]([C:2]([C@@:3]1([C:6]#[N:7])[C:4]([H:13])([H:14])[O:5]1)([H:11])[H:12])([H:8])([H:9])[H:10]>>[C:1]1([H:9])([H:10])[C:6]([C@:3]2([C:2]([H:8])([H:11])[H:12])[C:4]([H:13])([H:14])[O:5]2)=[N:7]1"
C       -2.20287611       0.78844054      -0.21310016
C       -0.35957944      -0.96768083       0.57661330
C        0.76721959      -0.24151049      -0.10972830
C        1.98193847       0.19265457       0.58368516
O        1.99629038      -0.90157064      -0.31519664
C        0.29761300       0.58989864      -1.21445901
N       -0.07283749       1.05719595      -2.21248665
H       -1.13615348      -0.18233541       1.07082534
H       -3.00193833       0.15901165      -0.63318546
H       -2.16794743       1.73343947      -0.76853890
H        0.04893945      -1.49832093       1.43726274
H       -0.74582085      -1.74657060      -0.08478618
H        2.50897012       1.08029000       0.24861675
H        2.08618211      -0.06294192       1.63447802
14
Frame=7 idx=009309 GeodesicLength=1.071974968965154 rxn_smarts="[C:1]([C:2]([C@@:3]1([C:6]#[N:7])[C:4]([H:13])([H:14])[O:5]1)([H:11])[H:12])([H:8])([H:9])[H:10]>>[C:1]1([H:9])([H:10])[C:6]([C@:3]2([C:2]([H:8])([H:11])[H:12])[C:4]([H:13])([H:14])[O:5]2)=[N:7]1"
C       -2.13611495       0.75678528      -0.24685108
C       -0.37142054      -0.96541382       0.57590455
C        0.75644371      -0.24139497      -0.11170888
C        1.97183675       0.19416214       0.57928788
O        1.98599040      -0.89700587      -0.32335927
C        0.27881206       0.59626766      -1.20848712
N       -0.10150409       1.05744973      -2.20865736
H       -1.15426724      -0.16388779       1.08571580
H       -2.96074394       0.14947926      -0.64617545
H       -2.13924371       1.73921628      -0.73102623
H        0.03873204      -1.48884999       1.44026523
H       -0.74440347      -1.75608725      -0.07964280
H        2.49591003       1.08418055       0.24581141
H        2.07997295      -0.06490121       1.62892331
14
Frame=8 idx=009309 GeodesicLength=1.2253456868916646 rxn_smarts="[C:1]([C:2]([C@@:3]1([C:6]#[N:7])[C:4]([H:13])([H:14])[O:5]1)([H:11])[H:12])([H:8])([H:9])[H:10]>>[C:1]1([H:9])([H:10])[C:6]([C@:3]2([C:2]([H:8])([H:11])[H:12])[C:4]([H:13])([H:14])[O:5]2)=[N:7]1"
C       -2.07316646       0.72632052      -0.27900347
C       -0.38323049      -0.96266613       0.57405974
C        0.74643960      -0.24156394      -0.11438986
C        1.96197310       0.19563470       0.57496948
O        1.97646438      -0.89318356      -0.33056632
C        0.26228686       0.60134064      -1.20448736
N       -0.12891890       1.05897681      -2.20508311
H       -1.17364664      -0.14333579       1.09653281
H       -2.92055409       0.13975522      -0.65771744
H       -2.10873780       1.73977508      -0.68925849
H        0.02719886      -1.47745680       1.44350442
H       -0.74275824      -1.76515090      -0.07516581
H        2.48363458       1.08762308       0.24287374
H        2.07301523      -0.06606893       1.62373166
14
Frame=9 idx=009309 GeodesicLength=1.378806939368863 rxn_smarts="[C:1]([C:2]([C@@:3]1([C:6]#[N:7])[C:4]([H:13])([H:14])[O:5]1)([H:11])[H:12])([H:8])([H:9])[H:10]>>[C:1]1([H:9])([H:10])[C:6]([C@:3]2([C:2]([H:8])([H:11])[H:12])[C:4]([H:13])([H:14])[O:5]2)=[N:7]1"
C       -2.01362308       0.69748850      -0.30927856
C       -0.39495749      -0.95917696       0.57133416
C        0.73719143      -0.24169289      -0.11751873
C        1.95273223       0.19654039       0.57078580
O        1.96740248      -0.89007353      -0.33744803
C        0.24778078       0.60634649      -1.20144679
N       -0.15505340       1.06235742      -2.20115252
H       -1.19396941      -0.12028832       1.10391080
H       -2.88075414       0.12900055      -0.66688877
H       -2.07892773       1.73466528      -0.64692077
H        0.01447611      -1.46427047       1.44689082
H       -0.74105732      -1.77327098      -0.07122314
H        2.47272114       1.09009564       0.24021306
H        2.06603839      -0.06772112       1.61874267
14
Frame=10 idx=009309 GeodesicLength=1.532393215522037 rxn_smarts="[C:1]([C:2]([C@@:3]1([C:6]#[N:7])[C:4]([H:13])([H:14])[O:5]1)([H:11])[H:12])([H:8])([H:9])[H:10]>>[C:1]1([H:9])([H:10])[C:6]([C@:3]2([C:2]([H:8])([H:11])[H:12])[C:4]([H:13])([H:14])[O:5]2)=[N:7]1"
C       -1.95700806       0.67018747      -0.33739154
C       -0.40648464      -0.95553993       0.56776790
C        0.72857241      -0.24203904      -0.12110571
C        1.94372711       0.19740862       0.56672771
O        1.95903003      -0.88739572      -0.34371951
C        0.23485622       0.61055451      -1.19965960
N       -0.18050526       1.06650760      -2.19724816
H       -1.21522235      -0.09563651       1.10826884
H       -2.84147987       0.11841354      -0.67475583
H       -2.04807853       1.72506188      -0.60290477
H        0.00096684      -1.45000889       1.45022052
H       -0.73935155      -1.78089859      -0.06787937
H        2.46235444       1.09232474       0.23761679
H        2.05862322      -0.06893968       1.61406272
14
Frame=11 idx=009309 GeodesicLength=1.6860813652993285 rxn_smarts="[C:1]([C:2]([C@@:3]1([C:6]#[N:7])[C:4]([H:13])([H:14])[O:5]1)([H:11])[H:12])([H:8])([H:9])[H:10]>>[C:1]1([H:9])([H:10])[C:6]([C@:3]2([C:2]([H:8])([H:11])[H:12])[C:4]([H:13])([H:14])[O:5]2)=[N:7]1"
C       -1.90304990       0.64457523      -0.36307518
C       -0.41774026      -0.95171988       0.56357369
C        0.72055215      -0.24246299      -0.12498033
C        1.93514718       0.19800550       0.56281231
O        1.95118900      -0.88509509      -0.34971972
C        0.22324863       0.61456205      -1.19852300
N       -0.20543509       1.07153275      -2.19300494
H       -1.23715859      -0.06933306       1.11013989
H       -2.80238842       0.10766315      -0.68126868
H       -2.01747412       1.71124865      -0.55922822
H       -0.01312499      -1.43488402       1.45345544
H       -0.73772346      -1.78787075      -0.06503454
H        2.45276217       1.09411267       0.23525981
H        2.05119570      -0.07033421       1.60959347
14
Frame=12 idx=009309 GeodesicLength=1.8398731449808627 rxn_smarts="[C:1]([C:2]([C@@:3]1([C:6]#[N:7])[C:4]([H:13])([H:14])[O:5]1)([H:11])[H:12])([H:8])([H:9])[H:10]>>[C:1]1([H:9])([H:10])[C:6]([C@:3]2([C:2]([H:8])([H:11])[H:12])[C:4]([H:13])([H:14])[O:5]2)=[N:7]1"
C       -1.85142069       0.62071193      -0.38606039
C       -0.42863309      -0.94793328       0.55883093
C        0.71309432      -0.24299507      -0.12906844
C        1.92693103       0.19842026       0.55907411
O        1.94392127      -0.88301676      -0.35548942
C        0.21270473       0.61838190      -1.19784741
N       -0.23014899       1.07691732      -2.18841227
H       -1.25962339      -0.04173226       1.10995652
H       -2.76343861       0.09706877      -0.68657053
H       -1.98714264       1.69398945      -0.51664622
H       -0.02754667      -1.41932720       1.45644327
H       -0.73619766      -1.79426937      -0.06276925
H        2.44373068       1.09564860       0.23320968
H        2.04376969      -0.07186429       1.60534942
14
Frame=13 idx=009309 GeodesicLength=1.9937226822862304 rxn_smarts="[C:1]([C:2]([C@@:3]1([C:6]#[N:7])[C:4]([H:13])([H:14])[O:5]1)([H:11])[H:12])([H:8])([H:9])[H:10]>>[C:1]1([H:9])([H:10])[C:6]([C@:3]2([C:2]([H:8])([H:11])[H:12])[C:4]([H:13])([H:14])[O:5]2)=[N:7]1"
C       -1.80192571       0.59862624      -0.40613110
C       -0.43908317      -0.94420253       0.55369259
C        0.70618995      -0.24354347      -0.13324072
C        1.91920493       0.19851152       0.55554189
O        1.93714911      -0.88107554      -0.36126543
C        0.20302211       0.62243090      -1.19716469
N       -0.25483648       1.08244489      -2.18325875
H       -1.28239833      -0.01287469       1.10816442
H       -2.72447954       0.08644613      -0.69073662
H       -1.95800977       1.67395311      -0.47657698
H       -0.04209388      -1.40356413       1.45914350
H       -0.73476560      -1.80003525      -0.06106201
H        2.43538066       1.09683862       0.23162943
H        2.03664573      -0.07395580       1.60126448
14
Frame=14 idx=009309 GeodesicLength=2.1476369803997963 rxn_smarts="[C:1]([C:2]([C@@:3]1([C:6]#[N:7])[C:4]([H:13])([H:14])[O:5]1)([H:11])[H:12])([H:8])([H:9])[H:10]>>[C:1]1([H:9])([H:10])[C:6]([C@:3]2([C:2]([H:8])([H:11])[H:12])[C:4]([H:13])([H:14])[O:5]2)=[N:7]1"
C       -1.75428705       0.57822997      -0.42328493
C       -0.44901313      -0.94078080       0.54815837
C        0.69983005      -0.24420573      -0.13748369
C        1.91184671       0.19845910       0.55225417
O        1.93099475      -0.87914469      -0.36694411
C        0.19403975       0.62647759      -1.19650955
N       -0.27973126       1.08752414      -2.17767427
H       -1.30543060       0.01684977       1.10499734
H       -2.68572605       0.07624420      -0.69382208
H       -1.92965079       1.65205490      -0.43898743
H       -0.05657553      -1.38798499       1.46142545
H       -0.73340103      -1.80535102      -0.06005994
H        2.42742137       1.09794906       0.23052191
H        2.02968282      -0.07632149       1.59740875
14
Frame=15 idx=009309 GeodesicLength=2.301579734040402 rxn_smarts="[C:1]([C:2]([C@@:3]1([C:6]#[N:7])[C:4]([H:13])([H:14])[O:5]1)([H:11])[H:12])([H:8])([H:9])[H:10]>>[C:1]1([H:9])([H:10])[C:6]([C@:3]2([C:2]([H:8])([H:11])[H:12])[C:4]([H:13])([H:14])[O:5]2)=[N:7]1"
C       -1.70835273       0.55943021      -0.43754106
C       -0.45836521      -0.93772227       0.54230657
C        0.69401741      -0.24495181      -0.14172930
C        1.90490824       0.19821864       0.54923513
O        1.92544670      -0.87715877      -0.37262771
C        0.18562842       0.63069453      -1.19564130
N       -0.30495192       1.09188903      -2.17158652
H       -1.32861222       0.04738053       1.10070030
H       -2.64721641       0.06641437      -0.69585867
H       -1.90248506       1.62898202      -0.40447345
H       -0.07085456      -1.37276490       1.46326781
H       -0.73205868      -1.81024720      -0.05978867
H        2.41987456       1.09897321       0.22997610
H        2.02302146      -0.07913758       1.59376078
14
Frame=16 idx=009309 GeodesicLength=2.45553380423393 rxn_smarts="[C:1]([C:2]([C@@:3]1([C:6]#[N:7])[C:4]([H:13])([H:14])[O:5]1)([H:11])[H:12])([H:8])([H:9])[H:10]>>[C:1]1([H:9])([H:10])[C:6]([C@:3]2([C:2]([H:8])([H:11])[H:12])[C:4]([H:13])([H:14])[O:5]2)=[N:7]1"
C       -1.66395588       0.54211619      -0.44899259
C       -0.46709458      -0.93513271       0.53615329
C        0.68875498      -0.24580464      -0.14595264
C        1.89836206       0.19783824       0.54651115
O        1.92055087      -0.87504356      -0.37831277
C        0.17768734       0.63505382      -1.19448885
N       -0.33059941       1.09518716      -2.16503016
H       -1.35190050       0.07858528       1.09541785
H       -2.60907853       0.05708554      -0.69680003
H       -1.87650362       1.60539992      -0.37315808
H       -0.08482417      -1.35810881       1.46461455
H       -0.73069335      -1.81480953      -0.06033606
H        2.41263954       1.10000382       0.23003615
H        2.01665524      -0.08237071       1.59033820
