17
Frame=0 idx=008384 GeodesicLength=0.0 rxn_smarts="[C:1]([C:2]12[C:3]([H:11])([H:12])[C:4]([H:13])([C:5]1([H:14])[H:15])[C:6]([H:16])=[C:7]2[H:17])([H:8])([H:9])[H:10]>>[C:1]([C:2]1([C:3]([H:11])([H:12])[H:13])[C:5]([H:14])([H:15])[C-:4]=[C:6]([H:16])[C+:7]1[H:17])([H:8])([H:9])[H:10]"
C        1.91056827      -0.06742755      -0.01731116
C        0.39940126       0.01137837      -0.02445589
C       -0.35320524      -0.81697755       1.03748917
C       -1.74748064      -0.26255730      -0.40291895
C       -0.44587782      -0.56335068      -1.17815698
C       -1.53737528       1.20304456      -0.08576251
C       -0.23616754       1.39327711       0.10672299
H        2.33392266       0.52879151      -0.82858685
H        2.31838370       0.30596059       0.92615444
H        2.24876915      -1.09761417      -0.14634707
H       -0.44337525      -0.39329335       2.03792051
H       -0.10040975      -1.87981964       1.04887395
H       -1.63740554      -0.94312180       0.63503435
H       -0.38882304      -0.01199492      -2.11649532
H       -0.27529807      -1.62816596      -1.35546372
H       -2.34033372       1.92344698      -0.01316130
H        0.29470682       2.29842388       0.37646434
17
Frame=1 idx=008384 GeodesicLength=0.06247343438287327 rxn_smarts="[C:1]([C:2]12[C:3]([H:11])([H:12])[C:4]([H:13])([C:5]1([H:14])[H:15])[C:6]([H:16])=[C:7]2[H:17])([H:8])([H:9])[H:10]>>[C:1]([C:2]1([C:3]([H:11])([H:12])[H:13])[C:5]([H:14])([H:15])[C-:4]=[C:6]([H:16])[C+:7]1[H:17])([H:8])([H:9])[H:10]"
C        1.90891644      -0.06582132      -0.01963614
C        0.39791837       0.01117968      -0.02239653
C       -0.35459901      -0.81848703       1.03916735
C       -1.74668481      -0.25718402      -0.40803775
C       -0.44549928      -0.56285344      -1.17885982
C       -1.53726360       1.20781057      -0.09516338
C       -0.23626150       1.39305821       0.10814772
H        2.32919961       0.53027666      -0.83260796
H        2.31832324       0.30761635       0.92305836
H        2.24763522      -1.09580644      -0.14894793
H       -0.43181009      -0.39537676       2.04100839
H       -0.09290953      -1.87920346       1.05027035
H       -1.64880869      -0.95204675       0.64426737
H       -0.37825005      -0.01806695      -2.12040639
H       -0.28270161      -1.62959080      -1.35247742
H       -2.33859951       1.93016699      -0.02411840
H        0.29139481       2.29432852       0.39673220
17
Frame=2 idx=008384 GeodesicLength=0.12494488623363065 rxn_smarts="[C:1]([C:2]12[C:3]([H:11])([H:12])[C:4]([H:13])([C:5]1([H:14])[H:15])[C:6]([H:16])=[C:7]2[H:17])([H:8])([H:9])[H:10]>>[C:1]([C:2]1([C:3]([H:11])([H:12])[H:13])[C:5]([H:14])([H:15])[C-:4]=[C:6]([H:16])[C+:7]1[H:17])([H:8])([H:9])[H:10]"
C        1.90725084      -0.06418753      -0.02192411
C        0.39642999       0.01098960      -0.02033910
C       -0.35602373      -0.81999974       1.04083145
C       -1.74586346      -0.25170862      -0.41323615
C       -0.44510623      -0.56232605      -1.17958528
C       -1.53702468       1.21266448      -0.10466986
C       -0.23634573       1.39285727       0.10960812
H        2.32447620       0.53179612      -0.83656514
H        2.31822305       0.30930607       0.92000492
H        2.24649634      -1.09396781      -0.15151208
H       -0.42013669      -0.39760446       2.04399126
H       -0.08545707      -1.87852532       1.05160146
H       -1.66028972      -0.96111358       0.65373850
H       -0.36760381      -0.02424805      -2.12425016
H       -0.29015411      -1.63092422      -1.34951178
H       -2.33674983       1.93692382      -0.03489505
H        0.28787865       2.29006802       0.41671300
17
Frame=3 idx=008384 GeodesicLength=0.18741344974487276 rxn_smarts="[C:1]([C:2]12[C:3]([H:11])([H:12])[C:4]([H:13])([C:5]1([H:14])[H:15])[C:6]([H:16])=[C:7]2[H:17])([H:8])([H:9])[H:10]>>[C:1]([C:2]1([C:3]([H:11])([H:12])[H:13])[C:5]([H:14])([H:15])[C-:4]=[C:6]([H:16])[C+:7]1[H:17])([H:8])([H:9])[H:10]"
C        1.90557077      -0.06252577      -0.02417329
C        0.39493549       0.01080841      -0.01828396
C       -0.35748001      -0.82151621       1.04247986
C       -1.74501476      -0.24612734      -0.41852067
C       -0.44469718      -0.56176748      -1.18033443
C       -1.53665519       1.21760798      -0.11428144
C       -0.23642159       1.39267347       0.11110491
H        2.31975283       0.53334903      -0.84045715
H        2.31808092       0.31103195       0.91699559
H        2.24535221      -1.09209793      -0.15403578
H       -0.40836062      -0.39998101       2.04686365
H       -0.07805611      -1.87778676       1.05286280
H       -1.67184785      -0.97033663       0.66346443
H       -0.35688371      -0.03053947      -2.12802490
H       -0.29765577      -1.63216426      -1.34656798
H       -2.33478578       1.94371568      -0.04548163
H        0.28416634       2.28565635       0.43638999
17
Frame=4 idx=008384 GeodesicLength=0.24987302535830574 rxn_smarts="[C:1]([C:2]12[C:3]([H:11])([H:12])[C:4]([H:13])([C:5]1([H:14])[H:15])[C:6]([H:16])=[C:7]2[H:17])([H:8])([H:9])[H:10]>>[C:1]([C:2]1([C:3]([H:11])([H:12])[H:13])[C:5]([H:14])([H:15])[C-:4]=[C:6]([H:16])[C+:7]1[H:17])([H:8])([H:9])[H:10]"
C        1.90387906      -0.06084114      -0.02636659
C        0.39343682       0.01063799      -0.01623923
C       -0.35898299      -0.82302363       1.04410064
C       -1.74413194      -0.24043177      -0.42393090
C       -0.44425640      -0.56117910      -1.18112397
C       -1.53614764       1.22264849      -0.12403203
C       -0.23648646       1.39250991       0.11261194
H        2.31504784       0.53491273      -0.84427225
H        2.31788555       0.31280451       0.91404820
H        2.24420206      -1.09020657      -0.15647512
H       -0.39652575      -0.40248910       2.04960582
H       -0.07072707      -1.87697666       1.05405177
H       -1.68349003      -0.97972549       0.67343156
H       -0.34606423      -0.03694838      -2.13174586
H       -0.30519053      -1.63331230      -1.34365578
H       -2.33273948       1.95048237      -0.05563035
H        0.28029121       2.28113813       0.45562216
17
Frame=5 idx=008384 GeodesicLength=0.31233028246072475 rxn_smarts="[C:1]([C:2]12[C:3]([H:11])([H:12])[C:4]([H:13])([C:5]1([H:14])[H:15])[C:6]([H:16])=[C:7]2[H:17])([H:8])([H:9])[H:10]>>[C:1]([C:2]1([C:3]([H:11])([H:12])[H:13])[C:5]([H:14])([H:15])[C-:4]=[C:6]([H:16])[C+:7]1[H:17])([H:8])([H:9])[H:10]"
C        1.90217316      -0.05912823      -0.02851980
C        0.39193136       0.01047716      -0.01420035
C       -0.36052075      -0.82453251       1.04570100
C       -1.74321821      -0.23462121      -0.42944568
C       -0.44379581      -0.56055904      -1.18194293
C       -1.53550250       1.22778384      -0.13389233
C       -0.23654436       1.39236280       0.11414991
H        2.31034531       0.53650018      -0.84802801
H        2.31764680       0.31462555       0.91114280
H        2.24304636      -1.08828583      -0.15885679
H       -0.38460984      -0.40514815       2.05222461
H       -0.06345542      -1.87610536       1.05516528
H       -1.69520772      -0.98930221       0.68368572
H       -0.33516506      -0.04347490      -2.13539928
H       -0.31277557      -1.63436504      -1.34076920
H       -2.33058507       1.95727576      -0.06555065
H        0.27623732       2.27649722       0.47453570
17
Frame=6 idx=008384 GeodesicLength=0.374791192646631 rxn_smarts="[C:1]([C:2]12[C:3]([H:11])([H:12])[C:4]([H:13])([C:5]1([H:14])[H:15])[C:6]([H:16])=[C:7]2[H:17])([H:8])([H:9])[H:10]>>[C:1]([C:2]1([C:3]([H:11])([H:12])[H:13])[C:5]([H:14])([H:15])[C-:4]=[C:6]([H:16])[C+:7]1[H:17])([H:8])([H:9])[H:10]"
C        1.90045052      -0.05737950      -0.03064751
C        0.39041556       0.01032403      -0.01215836
C       -0.36207931      -0.82605910       1.04729094
C       -1.74227983      -0.22869612      -0.43503572
C       -0.44333066      -0.55990360      -1.18277639
C       -1.53472319       1.23301045      -0.14382158
C       -0.23660196       1.39222669       0.11575289
H        2.30562601       0.53813640      -0.85173487
H        2.31737429       0.31648845       0.90826527
H        2.24188669      -1.08632353      -0.16122148
H       -0.37258057      -0.40798785       2.05473188
H       -0.05622521      -1.87518858       1.05619611
H       -1.70699116      -0.99909343       0.69428078
H       -0.32421145      -0.05011240      -2.13896527
H       -0.32043060      -1.63531678      -1.33790272
H       -2.32828920       1.96416089      -0.07549756
H        0.27199007       2.27171397       0.49324360
17
Frame=7 idx=008384 GeodesicLength=0.4372614266318028 rxn_smarts="[C:1]([C:2]12[C:3]([H:11])([H:12])[C:4]([H:13])([C:5]1([H:14])[H:15])[C:6]([H:16])=[C:7]2[H:17])([H:8])([H:9])[H:10]>>[C:1]([C:2]1([C:3]([H:11])([H:12])[H:13])[C:5]([H:14])([H:15])[C-:4]=[C:6]([H:16])[C+:7]1[H:17])([H:8])([H:9])[H:10]"
C        1.89870915      -0.05558955      -0.03276558
C        0.38888769       0.01017873      -0.01011233
C       -0.36364797      -0.82760707       1.04887720
C       -1.74131857      -0.22265419      -0.44068525
C       -0.44287076      -0.55921394      -1.18361611
C       -1.53380708       1.23832893      -0.15380570
C       -0.23666111       1.39210054       0.11743151
H        2.30087557       0.53983998      -0.85540550
H        2.31707529       0.31838783       0.90539972
H        2.24072305      -1.08431115      -0.16360303
H       -0.36041540      -0.41101561       2.05712879
H       -0.04902426      -1.87423005       1.05714321
H       -1.71883028      -1.00911695       0.70526503
H       -0.31321940      -0.05686907      -2.14243651
H       -0.32817367      -1.63616822      -1.33504622
H       -2.32582178       1.97118460      -0.08565422
H        0.26751950       2.26675519       0.51188502
17
Frame=8 idx=008384 GeodesicLength=0.49975097595006507 rxn_smarts="[C:1]([C:2]12[C:3]([H:11])([H:12])[C:4]([H:13])([C:5]1([H:14])[H:15])[C:6]([H:16])=[C:7]2[H:17])([H:8])([H:9])[H:10]>>[C:1]([C:2]1([C:3]([H:11])([H:12])[H:13])[C:5]([H:14])([H:15])[C-:4]=[C:6]([H:16])[C+:7]1[H:17])([H:8])([H:9])[H:10]"
C        1.89694695      -0.05374936      -0.03489240
C        0.38734526       0.01003941      -0.00805930
C       -0.36521439      -0.82918694       1.05046571
C       -1.74033958      -0.21649476      -0.44637498
C       -0.44242884      -0.55849114      -1.18445185
C       -1.53275443       1.24373728      -0.16382028
C       -0.23672548       1.39198129       0.11920322
H        2.29607402       0.54162707      -0.85906171
H        2.31676017       0.32033256       0.90252187
H        2.23955719      -1.08223719      -0.16602605
H       -0.34808483      -0.41424868       2.05941972
H       -0.04184173      -1.87324052       1.05799836
H       -1.73071501      -1.01938950       0.71669922
H       -0.30220654      -0.06374645      -2.14579860
H       -0.33602372      -1.63691934      -1.33219217
H       -2.32314343       1.97841054      -0.09624651
H        0.26279437       2.26157573       0.53061575
17
Frame=9 idx=008384 GeodesicLength=0.5622600149391302 rxn_smarts="[C:1]([C:2]12[C:3]([H:11])([H:12])[C:4]([H:13])([C:5]1([H:14])[H:15])[C:6]([H:16])=[C:7]2[H:17])([H:8])([H:9])[H:10]>>[C:1]([C:2]1([C:3]([H:11])([H:12])[H:13])[C:5]([H:14])([H:15])[C-:4]=[C:6]([H:16])[C+:7]1[H:17])([H:8])([H:9])[H:10]"
C        1.89516323      -0.05185863      -0.03702184
C        0.38578763       0.00990711      -0.00599925
C       -0.36678142      -0.83079905       1.05205417
C       -1.73934103      -0.21021133      -0.45211553
C       -0.44200226      -0.55773256      -1.18528723
C       -1.53156063       1.24924009      -0.17386859
C       -0.23679622       1.39186963       0.12107103
H        2.29122452       0.54349904      -0.86269505
H        2.31642414       0.32232188       0.89964094
H        2.23838867      -1.08010154      -0.16848701
H       -0.33560327      -0.41769149       2.06159634
H       -0.03468180      -1.87222153       1.05875600
H       -1.74264007      -1.02993678       0.72860557
H       -0.29116985      -0.07074640      -2.14905426
H       -0.34398082      -1.63756634      -1.32934395
H       -2.32024852       1.98583740      -0.10723566
H        0.25781768       2.25619050       0.54938433
17
Frame=10 idx=008384 GeodesicLength=0.6247908817027026 rxn_smarts="[C:1]([C:2]12[C:3]([H:11])([H:12])[C:4]([H:13])([C:5]1([H:14])[H:15])[C:6]([H:16])=[C:7]2[H:17])([H:8])([H:9])[H:10]>>[C:1]([C:2]1([C:3]([H:11])([H:12])[H:13])[C:5]([H:14])([H:15])[C-:4]=[C:6]([H:16])[C+:7]1[H:17])([H:8])([H:9])[H:10]"
C        1.89335661      -0.04991671      -0.03914963
C        0.38421369       0.00978295      -0.00393324
C       -0.36835178      -0.83244247       1.05363876
C       -1.73832088      -0.20379650      -0.45791671
C       -0.44158869      -0.55693556      -1.18612463
C       -1.53022118       1.25484168      -0.18395275
C       -0.23687521       1.39176532       0.12303545
H        2.28632866       0.54545762      -0.86629798
H        2.31606192       0.32435433       0.89676289
H        2.23721662      -1.07790241      -0.17098447
H       -0.32298366      -0.42134424       2.06364849
H       -0.02754777      -1.87117172       1.05941020
H       -1.75459878      -1.04078732       0.74101077
H       -0.28010730      -0.07787119      -2.15220402
H       -0.35204582      -1.63810492      -1.32650284
H       -2.31713040       1.99346495      -0.11859803
H        0.25259396       2.25060617       0.56815774
17
Frame=11 idx=008384 GeodesicLength=0.6873308990897338 rxn_smarts="[C:1]([C:2]12[C:3]([H:11])([H:12])[C:4]([H:13])([C:5]1([H:14])[H:15])[C:6]([H:16])=[C:7]2[H:17])([H:8])([H:9])[H:10]>>[C:1]([C:2]1([C:3]([H:11])([H:12])[H:13])[C:5]([H:14])([H:15])[C-:4]=[C:6]([H:16])[C+:7]1[H:17])([H:8])([H:9])[H:10]"
C        1.89152877      -0.04792848      -0.04125938
C        0.38262473       0.00966963      -0.00186898
C       -0.36993880      -0.83410609       1.05520837
C       -1.73727233      -0.19724323      -0.46381554
C       -0.44117434      -0.55610014      -1.18697999
C       -1.52872827       1.26054871      -0.19410301
C       -0.23696030       1.39167258       0.12507189
H        2.28140579       0.54748548      -0.86985547
H        2.31566166       0.32643459       0.89390722
H        2.23604009      -1.07564806      -0.17348454
H       -0.31026847      -0.42519138       2.06555889
H       -0.02046360      -1.87008405       1.05995606
H       -1.76658975      -1.05195961       0.75391983
H       -0.26899867      -0.08512579      -2.15526017
H       -0.36020363      -1.63853379      -1.32368023
H       -2.31381521       2.00124242      -0.13011772
H        0.24715234       2.24486720       0.58680276
17
Frame=12 idx=008384 GeodesicLength=0.7498749723379086 rxn_smarts="[C:1]([C:2]12[C:3]([H:11])([H:12])[C:4]([H:13])([C:5]1([H:14])[H:15])[C:6]([H:16])=[C:7]2[H:17])([H:8])([H:9])[H:10]>>[C:1]([C:2]1([C:3]([H:11])([H:12])[H:13])[C:5]([H:14])([H:15])[C-:4]=[C:6]([H:16])[C+:7]1[H:17])([H:8])([H:9])[H:10]"
C        1.88968100      -0.04589995      -0.04333556
C        0.38102163       0.00957024       0.00018571
C       -0.37155588      -0.83577791       1.05675102
C       -1.73618781      -0.19054213      -0.46984771
C       -0.44074572      -0.55522474      -1.18786836
C       -1.52707440       1.26636906      -0.20434514
C       -0.23704978       1.39159527       0.12715572
H        2.27647460       0.54956452      -0.87335229
H        2.31521194       0.32856350       0.89109247
H        2.23485746      -1.07334739      -0.17595586
H       -0.29750069      -0.42921324       2.06730890
H       -0.01345104      -1.86894945       1.06038994
H       -1.77860937      -1.06348156       0.76734070
H       -0.25782594      -0.09251355      -2.15823464
H       -0.36843958      -1.63884986      -1.32088632
H       -2.31033309       2.00911791      -0.14159333
H        0.24152666       2.23901929       0.60519476
17
Frame=13 idx=008384 GeodesicLength=0.8124156905805889 rxn_smarts="[C:1]([C:2]12[C:3]([H:11])([H:12])[C:4]([H:13])([C:5]1([H:14])[H:15])[C:6]([H:16])=[C:7]2[H:17])([H:8])([H:9])[H:10]>>[C:1]([C:2]1([C:3]([H:11])([H:12])[H:13])[C:5]([H:14])([H:15])[C-:4]=[C:6]([H:16])[C+:7]1[H:17])([H:8])([H:9])[H:10]"
C        1.88781457      -0.04383721      -0.04536551
C        0.37940508       0.00948792       0.00222270
C       -0.37321489      -0.83744599       1.05825560
C       -1.73505997      -0.18368480      -0.47604684
C       -0.44029079      -0.55430820      -1.18880400
C       -1.52525262       1.27230998      -0.21470298
C       -0.23714204       1.39153745       0.12926227
H        2.27155240       0.55167820      -0.87677592
H        2.31470298       0.33073999       0.88833446
H        2.23366685      -1.07100929      -0.17837206
H       -0.28472129      -0.43339009       2.06888197
H       -0.00653013      -1.86775934       1.06070894
H       -1.79065094      -1.07538144       0.78128777
H       -0.24657306      -0.10003749      -2.16113762
H       -0.37674095      -1.63905036      -1.31813102
H       -2.30671444       2.01704483      -0.15285107
H        0.23574923       2.23310583       0.62323329
17
Frame=14 idx=008384 GeodesicLength=0.874948445140409 rxn_smarts="[C:1]([C:2]12[C:3]([H:11])([H:12])[C:4]([H:13])([C:5]1([H:14])[H:15])[C:6]([H:16])=[C:7]2[H:17])([H:8])([H:9])[H:10]>>[C:1]([C:2]1([C:3]([H:11])([H:12])[H:13])[C:5]([H:14])([H:15])[C-:4]=[C:6]([H:16])[C+:7]1[H:17])([H:8])([H:9])[H:10]"
C        1.88593139      -0.04174675      -0.04733647
C        0.37777603       0.00942605       0.00423408
C       -0.37492890      -0.83909918       1.05970983
C       -1.73388079      -0.17666003      -0.48244628
C       -0.43979732      -0.55334732      -1.18980115
C       -1.52325520       1.27838131      -0.22519675
C       -0.23723398       1.39150449       0.13136776
H        2.26665601       0.55380427      -0.88011833
H        2.31412690       0.33296785       0.88564620
H        2.23246727      -1.06864440      -0.18069878
H       -0.27197228      -0.43770032       2.07026177
H        0.00028132      -1.86650517       1.06091066
H       -1.80270688      -1.08769635       0.79577423
H       -0.23522794      -0.10769959      -2.16397994
H       -0.38509704      -1.63913076      -1.31542580
H       -2.30299422       2.02497626      -0.16372390
H        0.22985562       2.22716962       0.64082287
17
Frame=15 idx=008384 GeodesicLength=0.9374805679624868 rxn_smarts="[C:1]([C:2]12[C:3]([H:11])([H:12])[C:4]([H:13])([C:5]1([H:14])[H:15])[C:6]([H:16])=[C:7]2[H:17])([H:8])([H:9])[H:10]>>[C:1]([C:2]1([C:3]([H:11])([H:12])[H:13])[C:5]([H:14])([H:15])[C-:4]=[C:6]([H:16])[C+:7]1[H:17])([H:8])([H:9])[H:10]"
C        1.88402822      -0.03962124      -0.04926409
C        0.37613054       0.00938393       0.00622367
C       -0.37668798      -0.84074819       1.06111998
C       -1.73265434      -0.16946618      -0.48902852
C       -0.43927807      -0.55234077      -1.19085127
C       -1.52108155       1.28458247      -0.23580233
C       -0.23733064       1.39149344       0.13349476
H        2.26176921       0.55597012      -0.88338816
H        2.31349012       0.33523820       0.88301503
H        2.23125742      -1.06624113      -0.18297888
H       -0.25923192      -0.44216450       2.07145504
H        0.00699388      -1.86519848       1.06098660
H       -1.81475590      -1.10046113       0.81088157
H       -0.22380700      -0.11549871      -2.16674847
H       -0.39352774      -1.63908734      -1.31276622
H       -2.29912934       2.03297885      -0.17444188
H        0.22381509       2.22118066       0.65809319
17
Frame=16 idx=008384 GeodesicLength=1.0000026453391975 rxn_smarts="[C:1]([C:2]12[C:3]([H:11])([H:12])[C:4]([H:13])([C:5]1([H:14])[H:15])[C:6]([H:16])=[C:7]2[H:17])([H:8])([H:9])[H:10]>>[C:1]([C:2]1([C:3]([H:11])([H:12])[H:13])[C:5]([H:14])([H:15])[C-:4]=[C:6]([H:16])[C+:7]1[H:17])([H:8])([H:9])[H:10]"
C        1.88210306      -0.03746599      -0.05113780
C        0.37446755       0.00936416       0.00818606
C       -0.37849957      -0.84238567       1.06247554
C       -1.73137391      -0.16209241      -0.49581795
C       -0.43872672      -0.55128245      -1.19196422
C       -1.51872642       1.29091919      -0.24652814
C       -0.23743187       1.39150505       0.13562844
H        2.25689967       0.55816535      -0.88657230
H        2.31278389       0.33754582       0.88045403
H        2.23003335      -1.06380503      -0.18519175
H       -0.24653798      -0.44676471       2.07244754
H        0.01359618      -1.86383217       1.06093245
H       -1.82677590      -1.11372530       0.82663711
H       -0.21230622      -0.12343054      -2.16944761
H       -0.40202930      -1.63891054      -1.31016138
H       -2.29513822       2.04102470      -0.18490751
H        0.21766240       2.21517054       0.67496749
