14
Frame=0 idx=007290 GeodesicLength=0.0 rxn_smarts="[O:1]([C@@:2]1([H:9])[C:3]([H:10])([H:11])[N:4]([H:12])[C:5]([H:13])([H:14])[C:6]1=[O:7])[H:8]>>[O:1]([O:7][C:6]1=[C:2]([H:9])[C:3]([H:10])([H:11])[N:4]([H:12])[C:5]1([H:13])[H:14])[H:8]"
O        2.05103334      -1.28044443      -0.08482524
C        0.51994273       0.40813918       0.87600089
C       -0.17068072       1.46840934       0.12035942
N       -1.37945603       0.81651645      -0.38426885
C       -1.16283581      -0.63017578      -0.42127373
C       -0.06651845      -0.82756799       0.60515677
O        0.45918337      -1.90932289       0.92803423
H        2.81886176      -1.75579719      -0.44379616
H        1.36982019       0.54449856       1.52655005
H       -0.40471945       2.33044493       0.75645417
H        0.50758836       1.83439297      -0.66749407
H       -1.67598694       1.18996535      -1.27127905
H       -0.79726254      -1.01166390      -1.38456456
H       -2.06896987      -1.17739456      -0.15505387
14
Frame=1 idx=007290 GeodesicLength=0.06768080408634798 rxn_smarts="[O:1]([C@@:2]1([H:9])[C:3]([H:10])([H:11])[N:4]([H:12])[C:5]([H:13])([H:14])[C:6]1=[O:7])[H:8]>>[O:1]([O:7][C:6]1=[C:2]([H:9])[C:3]([H:10])([H:11])[N:4]([H:12])[C:5]1([H:13])[H:14])[H:8]"
O        2.05889962      -1.22575991      -0.10665471
C        0.53702656       0.39189060       0.85361073
C       -0.15895702       1.46062197       0.11165136
N       -1.38080765       0.82034907      -0.37633195
C       -1.18012158      -0.62809304      -0.41614713
C       -0.06514820      -0.83827537       0.58630483
O        0.47712738      -1.92567387       0.86841933
H        2.83936152      -1.74823378      -0.35326275
H        1.35465961       0.53166534       1.54361504
H       -0.37922507       2.32211607       0.75302061
H        0.50741476       1.82475166      -0.68666784
H       -1.68107449       1.19474489      -1.26178852
H       -0.84424400      -1.01372002      -1.38840597
H       -2.08491144      -1.16638361      -0.12736303
14
Frame=2 idx=007290 GeodesicLength=0.1354611523743715 rxn_smarts="[O:1]([C@@:2]1([H:9])[C:3]([H:10])([H:11])[N:4]([H:12])[C:5]([H:13])([H:14])[C:6]1=[O:7])[H:8]>>[O:1]([O:7][C:6]1=[C:2]([H:9])[C:3]([H:10])([H:11])[N:4]([H:12])[C:5]1([H:13])[H:14])[H:8]"
O        2.06544618      -1.17959914      -0.12823156
C        0.55447862       0.37364060       0.83037716
C       -0.14563543       1.45151595       0.10210681
N       -1.38153580       0.82443074      -0.36753228
C       -1.19840645      -0.62577985      -0.41042766
C       -0.06354732      -0.85044781       0.56509633
O        0.49256422      -1.94334118       0.80535770
H        2.86024683      -1.72194548      -0.25426915
H        1.34043237       0.51498080       1.55617048
H       -0.35026994       2.31287923       0.74846476
H        0.50838482       1.81285295      -0.70715528
H       -1.68628758       1.20029403      -1.25093883
H       -0.89474606      -1.01518254      -1.39158460
H       -2.10112446      -1.15429830      -0.09743388
14
Frame=3 idx=007290 GeodesicLength=0.20351300834352226 rxn_smarts="[O:1]([C@@:2]1([H:9])[C:3]([H:10])([H:11])[N:4]([H:12])[C:5]([H:13])([H:14])[C:6]1=[O:7])[H:8]>>[O:1]([O:7][C:6]1=[C:2]([H:9])[C:3]([H:10])([H:11])[N:4]([H:12])[C:5]1([H:13])[H:14])[H:8]"
O        2.07996653      -1.13832311      -0.13691063
C        0.57400410       0.35759688       0.80451071
C       -0.13404773       1.44392760       0.09281758
N       -1.38244682       0.82778819      -0.35808101
C       -1.21356660      -0.62350292      -0.40573166
C       -0.05793512      -0.86107400       0.54067390
O        0.50851473      -1.95864323       0.74291203
H        2.86718857      -1.70401062      -0.16235000
H        1.32522867       0.50092556       1.56620846
H       -0.32464040       2.30334114       0.74568475
H        0.50542658       1.80590953      -0.72722770
H       -1.69348340       1.20546191      -1.23861871
H       -0.94222693      -1.01469991      -1.39544605
H       -2.11198219      -1.14469701      -0.06844167
14
Frame=4 idx=007290 GeodesicLength=0.2715096548216461 rxn_smarts="[O:1]([C@@:2]1([H:9])[C:3]([H:10])([H:11])[N:4]([H:12])[C:5]([H:13])([H:14])[C:6]1=[O:7])[H:8]>>[O:1]([O:7][C:6]1=[C:2]([H:9])[C:3]([H:10])([H:11])[N:4]([H:12])[C:5]1([H:13])[H:14])[H:8]"
O        2.09125739      -1.10221104      -0.14711563
C        0.59225993       0.34004000       0.78041745
C       -0.12098770       1.43500941       0.08324297
N       -1.38203613       0.83106464      -0.34868324
C       -1.22888458      -0.62132122      -0.40018032
C       -0.05331347      -0.87286240       0.51627250
O        0.52275392      -1.97444695       0.67810567
H        2.87234644      -1.67033376      -0.06770711
H        1.31030882       0.48388489       1.57383511
H       -0.29660349       2.29335888       0.74133217
H        0.50490538       1.79595538      -0.74719642
H       -1.69865117       1.21055834      -1.22653449
H       -0.99079311      -1.01432553      -1.39754826
H       -2.12256223      -1.13437062      -0.03824040
14
Frame=5 idx=007290 GeodesicLength=0.33966565453213665 rxn_smarts="[O:1]([C@@:2]1([H:9])[C:3]([H:10])([H:11])[N:4]([H:12])[C:5]([H:13])([H:14])[C:6]1=[O:7])[H:8]>>[O:1]([O:7][C:6]1=[C:2]([H:9])[C:3]([H:10])([H:11])[N:4]([H:12])[C:5]1([H:13])[H:14])[H:8]"
O        2.10637306      -1.06882288      -0.14977902
C        0.61085567       0.32399244       0.75605984
C       -0.10881181       1.42692082       0.07376967
N       -1.38141908       0.83383372      -0.33909386
C       -1.24218444      -0.61930113      -0.39478352
C       -0.04669960      -0.88367730       0.49039257
O        0.53759433      -1.98831489       0.61277024
H        2.86886603      -1.64105275       0.02135777
H        1.29428558       0.46826102       1.58000384
H       -0.27045760       2.28366041       0.73718251
H        0.50278937       1.78813872      -0.76667292
H       -1.70427686       1.21510783      -1.21398717
H       -1.03738362      -1.01310524      -1.39904633
H       -2.12953104      -1.12564075      -0.00817361
14
Frame=6 idx=007290 GeodesicLength=0.4079897549271941 rxn_smarts="[O:1]([C@@:2]1([H:9])[C:3]([H:10])([H:11])[N:4]([H:12])[C:5]([H:13])([H:14])[C:6]1=[O:7])[H:8]>>[O:1]([O:7][C:6]1=[C:2]([H:9])[C:3]([H:10])([H:11])[N:4]([H:12])[C:5]1([H:13])[H:14])[H:8]"
O        2.12357052      -1.03757592      -0.14696960
C        0.62930323       0.30918627       0.73216771
C       -0.09723352       1.41942047       0.06439679
N       -1.38045473       0.83615996      -0.32945790
C       -1.25380809      -0.61748291      -0.38927880
C       -0.03880804      -0.89369726       0.46370277
O        0.55304512      -2.00028198       0.54647094
H        2.85855299      -1.61465749       0.10572802
H        1.27728737       0.45355719       1.58494233
H       -0.24574021       2.27437318       0.73285429
H        0.49983638       1.78154825      -0.78559026
H       -1.70982397       1.21904401      -1.20131142
H       -1.08225533      -1.01139708      -1.39955564
H       -2.13347172      -1.11819667       0.02190078
14
Frame=7 idx=007290 GeodesicLength=0.4762223583698874 rxn_smarts="[O:1]([C@@:2]1([H:9])[C:3]([H:10])([H:11])[N:4]([H:12])[C:5]([H:13])([H:14])[C:6]1=[O:7])[H:8]>>[O:1]([O:7][C:6]1=[C:2]([H:9])[C:3]([H:10])([H:11])[N:4]([H:12])[C:5]1([H:13])[H:14])[H:8]"
O        2.14006696      -1.00877373      -0.14218332
C        0.64707707       0.29487830       0.70957752
C       -0.08574330       1.41197984       0.05526201
N       -1.37878697       0.83807017      -0.32004802
C       -1.26413135      -0.61593217      -0.38347509
C       -0.03077026      -0.90341075       0.43734346
O        0.56858342      -2.01057914       0.47944790
H        2.84295795      -1.58654263       0.18690628
H        1.26016570       0.43894385       1.58856150
H       -0.22168566       2.26524687       0.72821034
H        0.49721989       1.77495870      -0.80365226
H       -1.71427201       1.22233561      -1.18904236
H       -1.12542288      -1.00964177      -1.39870317
H       -2.13525855      -1.11153316       0.05179522
14
Frame=8 idx=007290 GeodesicLength=0.5444806947356502 rxn_smarts="[O:1]([C@@:2]1([H:9])[C:3]([H:10])([H:11])[N:4]([H:12])[C:5]([H:13])([H:14])[C:6]1=[O:7])[H:8]>>[O:1]([O:7][C:6]1=[C:2]([H:9])[C:3]([H:10])([H:11])[N:4]([H:12])[C:5]1([H:13])[H:14])[H:8]"
O        2.15736776      -0.98140312      -0.13317067
C        0.66441848       0.28176743       0.68799829
C       -0.07476902       1.40507060       0.04626932
N       -1.37675948       0.83956499      -0.31079574
C       -1.27297433      -0.61464780      -0.37741552
C       -0.02195648      -0.91234236       0.41088255
O        0.58490760      -2.01857556       0.41138832
H        2.82184774      -1.56159523       0.26327115
H        1.24227822       0.42527570       1.59142195
H       -0.19897469       2.25670309       0.72323604
H        0.49419540       1.76912348      -0.82108565
H       -1.71831107       1.22487164      -1.17705108
H       -1.16683252      -1.00781610      -1.39661488
H       -2.13443762      -1.10599677       0.08166592
14
Frame=9 idx=007290 GeodesicLength=0.6127701255359617 rxn_smarts="[O:1]([C@@:2]1([H:9])[C:3]([H:10])([H:11])[N:4]([H:12])[C:5]([H:13])([H:14])[C:6]1=[O:7])[H:8]>>[O:1]([O:7][C:6]1=[C:2]([H:9])[C:3]([H:10])([H:11])[N:4]([H:12])[C:5]1([H:13])[H:14])[H:8]"
O        2.17515273      -0.95545120      -0.12022446
C        0.68140843       0.26986042       0.66732556
C       -0.06431700       1.39871090       0.03739362
N       -1.37443543       0.84066588      -0.30166786
C       -1.28041173      -0.61362918      -0.37106779
C       -0.01243247      -0.92045371       0.38438645
O        0.60209538      -2.02403437       0.34209965
H        2.79576193      -1.54012737       0.33530972
H        1.22372792       0.41257264       1.59349206
H       -0.17756769       2.24876587       0.71795027
H        0.49071627       1.76402946      -0.83797126
H       -1.72203931       1.22665018      -1.16529780
H       -1.20655873      -1.00600184      -1.39326202
H       -2.13110030      -1.10155769       0.11153387
14
Frame=10 idx=007290 GeodesicLength=0.6809638466122285 rxn_smarts="[O:1]([C@@:2]1([H:9])[C:3]([H:10])([H:11])[N:4]([H:12])[C:5]([H:13])([H:14])[C:6]1=[O:7])[H:8]>>[O:1]([O:7][C:6]1=[C:2]([H:9])[C:3]([H:10])([H:11])[N:4]([H:12])[C:5]1([H:13])[H:14])[H:8]"
O        2.19255387      -0.93099253      -0.10415915
C        0.69798732       0.25912310       0.64777511
C       -0.05437810       1.39288150       0.02875990
N       -1.37177887       0.84135611      -0.29282474
C       -1.28643432      -0.61292830      -0.36445325
C       -0.00251578      -0.92775172       0.35849162
O        0.62000297      -2.02673926       0.27228470
H        2.76506748      -1.52189991       0.40257953
H        1.20493385       0.40093483       1.59478790
H       -0.15755942       2.24142180       0.71249792
H        0.48696979       1.75960904      -0.85411036
H       -1.72518971       1.22757789      -1.15407515
H       -1.24417681      -1.00442881      -1.38861443
H       -2.12548227      -1.09816375       0.14106041
14
Frame=11 idx=007290 GeodesicLength=0.749040276674737 rxn_smarts="[O:1]([C@@:2]1([H:9])[C:3]([H:10])([H:11])[N:4]([H:12])[C:5]([H:13])([H:14])[C:6]1=[O:7])[H:8]>>[O:1]([O:7][C:6]1=[C:2]([H:9])[C:3]([H:10])([H:11])[N:4]([H:12])[C:5]1([H:13])[H:14])[H:8]"
O        2.20932177      -0.90800772      -0.08509780
C        0.71419607       0.24960276       0.62934594
C       -0.04498713       1.38762048       0.02038899
N       -1.36884676       0.84164802      -0.28431615
C       -1.29107923      -0.61255659      -0.35758268
C        0.00772530      -0.93419803       0.33342603
O        0.63862617      -2.02646339       0.20220645
H        2.73016759      -1.50736000       0.46486477
H        1.18605870       0.39050093       1.59537209
H       -0.13902709       2.23471373       0.70693340
H        0.48293686       1.75589099      -0.86950032
H       -1.72778095       1.22761262      -1.14348142
H       -1.27958415      -1.00322781      -1.38270602
H       -2.11772714      -1.09577599       0.17014672
14
Frame=12 idx=007290 GeodesicLength=0.8169879222969415 rxn_smarts="[O:1]([C@@:2]1([H:9])[C:3]([H:10])([H:11])[N:4]([H:12])[C:5]([H:13])([H:14])[C:6]1=[O:7])[H:8]>>[O:1]([O:7][C:6]1=[C:2]([H:9])[C:3]([H:10])([H:11])[N:4]([H:12])[C:5]1([H:13])[H:14])[H:8]"
O        2.22504257      -0.88662064      -0.06350867
C        0.73006419       0.24125384       0.61204766
C       -0.03613506       1.38291022       0.01233121
N       -1.36566544       0.84155261      -0.27619315
C       -1.29440194      -0.61252440      -0.35050327
C        0.01813914      -0.93982658       0.30950578
O        0.65783678      -2.02309794       0.13241829
H        2.69149834      -1.49635198       0.52203007
H        1.16737621       0.38133449       1.59526053
H       -0.12197370       2.22861495       0.70135835
H        0.47867471       1.75284264      -0.88409237
H       -1.72977278       1.22674968      -1.13361056
H       -1.31260501      -1.00251534      -1.37562565
H       -2.10807800      -1.09432154       0.19858178
14
Frame=13 idx=007290 GeodesicLength=0.8848979284351107 rxn_smarts="[O:1]([C@@:2]1([H:9])[C:3]([H:10])([H:11])[N:4]([H:12])[C:5]([H:13])([H:14])[C:6]1=[O:7])[H:8]>>[O:1]([O:7][C:6]1=[C:2]([H:9])[C:3]([H:10])([H:11])[N:4]([H:12])[C:5]1([H:13])[H:14])[H:8]"
O        2.23980269      -0.86672032      -0.03912520
C        0.74562248       0.23407150       0.59584833
C       -0.02779686       1.37873969       0.00450674
N       -1.36229504       0.84110534      -0.26843662
C       -1.29652452      -0.61281432      -0.34315265
C        0.02878165      -0.94465819       0.28663501
O        0.67775182      -2.01639760       0.06253825
H        2.64945653      -1.48919338       0.57421180
H        1.14876773       0.37342751       1.59462828
H       -0.10630684       2.22318641       0.69564546
H        0.47418128       1.75033919      -0.89805154
H       -1.73126663       1.22497817      -1.12445200
H       -1.34352621      -1.00235845      -1.36736272
H       -2.09664805      -1.09370555       0.22656686
14
Frame=14 idx=007290 GeodesicLength=0.952725655828471 rxn_smarts="[O:1]([C@@:2]1([H:9])[C:3]([H:10])([H:11])[N:4]([H:12])[C:5]([H:13])([H:14])[C:6]1=[O:7])[H:8]>>[O:1]([O:7][C:6]1=[C:2]([H:9])[C:3]([H:10])([H:11])[N:4]([H:12])[C:5]1([H:13])[H:14])[H:8]"
O        2.25294217      -0.84855286      -0.01294940
C        0.76086221       0.22793766       0.58082401
C       -0.01995532       1.37505431      -0.00293712
N       -1.35872587       0.84031032      -0.26115782
C       -1.29748968      -0.61343738      -0.33567663
C        0.03936680      -0.94878471       0.26534794
O        0.69801200      -2.00649822      -0.00603042
H        2.60456353      -1.48516724       0.62094827
H        1.13071874       0.36682046       1.59345575
H       -0.09207086       2.21831321       0.69004431
H        0.46959730       1.74836824      -0.91116818
H       -1.73209082       1.22232492      -1.11618470
H       -1.37189894      -1.00286492      -1.35813767
H       -2.08383126      -1.09382378       0.25362166
14
Frame=15 idx=007290 GeodesicLength=1.020512775771564 rxn_smarts="[O:1]([C@@:2]1([H:9])[C:3]([H:10])([H:11])[N:4]([H:12])[C:5]([H:13])([H:14])[C:6]1=[O:7])[H:8]>>[O:1]([O:7][C:6]1=[C:2]([H:9])[C:3]([H:10])([H:11])[N:4]([H:12])[C:5]1([H:13])[H:14])[H:8]"
O        2.26423775      -0.83215680       0.01449724
C        0.77578018       0.22274814       0.56698151
C       -0.01258039       1.37180032      -0.00995171
N       -1.35498178       0.83919911      -0.25440589
C       -1.29741359      -0.61437023      -0.32815625
C        0.04976501      -0.95229011       0.24581316
O        0.71840571      -1.99357885      -0.07251702
H        2.55740795      -1.48383745       0.66209376
H        1.11341452       0.36146804       1.59182769
H       -0.07922524       2.21392586       0.68465036
H        0.46500885       1.74686567      -0.92339387
H       -1.73220179       1.21884193      -1.10888313
H       -1.39766444      -1.00407412      -1.34813168
H       -2.06995274      -1.09454149       0.27957583
14
Frame=16 idx=007290 GeodesicLength=1.0883076740515065 rxn_smarts="[O:1]([C@@:2]1([H:9])[C:3]([H:10])([H:11])[N:4]([H:12])[C:5]([H:13])([H:14])[C:6]1=[O:7])[H:8]>>[O:1]([O:7][C:6]1=[C:2]([H:9])[C:3]([H:10])([H:11])[N:4]([H:12])[C:5]1([H:13])[H:14])[H:8]"
O        2.27350878      -0.81745526       0.04262146
C        0.79032887       0.21836541       0.55437771
C       -0.00562761       1.36890427      -0.01648123
N       -1.35107897       0.83781461      -0.24824847
C       -1.29644441      -0.61557841      -0.32066834
C        0.05982479      -0.95528289       0.22818201
O        0.73869154      -1.97795650      -0.13614274
H        2.50868689      -1.48464225       0.69748792
H        1.09698434       0.35726315       1.58989309
H       -0.06770873       2.20994674       0.67954911
H        0.46055181       1.74572525      -0.93466650
H       -1.73151529       1.21459371      -1.10265452
H       -1.42081772      -1.00600623      -1.33753332
H       -2.05538428      -1.09569158       0.30428381
