12
Frame=0 idx=006746 GeodesicLength=0.0 rxn_smarts="[O:1]=[C:2]([C:3](=[O:4])[N:5]1[C:6]([H:9])([H:10])[C:7]1([H:11])[H:12])[H:8]>>[O:1]=[C:2]([C:6]([C:7]([N:5]=[C:3]=[O:4])([H:11])[H:12])([H:9])[H:10])[H:8]"
O        1.67045436       1.28114804      -0.18357114
C        1.45065524       0.11512031      -0.27832396
C        0.58222773      -0.73323088       0.85658822
O        1.31963575      -1.62499311       1.20421052
N       -0.56130914      -0.28017906       1.34531701
C       -0.80616558      -0.15591624      -0.80806637
C       -1.15405915       0.61157277       0.38006483
H        2.05536526      -0.58531446      -0.87830308
H       -1.21110696      -1.15733581      -0.88106779
H       -0.34941602       0.25232032      -1.70366368
H       -0.76204671       1.63098185       0.39458729
H       -2.23423482       0.64582622       0.55222819
12
Frame=1 idx=006746 GeodesicLength=0.08643767543375051 rxn_smarts="[O:1]=[C:2]([C:3](=[O:4])[N:5]1[C:6]([H:9])([H:10])[C:7]1([H:11])[H:12])[H:8]>>[O:1]=[C:2]([C:6]([C:7]([N:5]=[C:3]=[O:4])([H:11])[H:12])([H:9])[H:10])[H:8]"
O        1.67614541       1.28330601      -0.17232302
C        1.45158548       0.11978147      -0.28998425
C        0.59350740      -0.73600524       0.88019827
O        1.31799113      -1.63973287       1.21800579
N       -0.56517420      -0.29051229       1.32838636
C       -0.80255034      -0.16288299      -0.80278934
C       -1.15489378       0.61702680       0.37835986
H        2.06946305      -0.57147947      -0.88785527
H       -1.22039962      -1.15875322      -0.88261269
H       -0.37160791       0.24981627      -1.70904095
H       -0.75974228       1.63449773       0.38864759
H       -2.23432433       0.65493781       0.55100766
12
Frame=2 idx=006746 GeodesicLength=0.17282059633827274 rxn_smarts="[O:1]=[C:2]([C:3](=[O:4])[N:5]1[C:6]([H:9])([H:10])[C:7]1([H:11])[H:12])[H:8]>>[O:1]=[C:2]([C:6]([C:7]([N:5]=[C:3]=[O:4])([H:11])[H:12])([H:9])[H:10])[H:8]"
O        1.68207977       1.28520398      -0.16103127
C        1.45261339       0.12463714      -0.30150522
C        0.60486311      -0.73816065       0.90476642
O        1.31490621      -1.65521951       1.23160704
N       -0.56793811      -0.30018710       1.31128868
C       -0.79868387      -0.16975609      -0.79771754
C       -1.15557796       0.62226468       0.37657335
H        2.08322323      -0.55716416      -0.89768933
H       -1.22935992      -1.15990275      -0.88439880
H       -0.39416664       0.24710455      -1.71419939
H       -0.75775719       1.63797652       0.38216052
H       -2.23420201       0.66320338       0.55014554
12
Frame=3 idx=006746 GeodesicLength=0.25916981550285634 rxn_smarts="[O:1]=[C:2]([C:3](=[O:4])[N:5]1[C:6]([H:9])([H:10])[C:7]1([H:11])[H:12])[H:8]>>[O:1]=[C:2]([C:6]([C:7]([N:5]=[C:3]=[O:4])([H:11])[H:12])([H:9])[H:10])[H:8]"
O        1.68825426       1.28676205      -0.14968417
C        1.45371904       0.12962034      -0.31293273
C        0.61616850      -0.73993148       0.93013771
O        1.31065344      -1.67106358       1.24546057
N       -0.56958307      -0.30934148       1.29395683
C       -0.79461972      -0.17646865      -0.79295363
C       -1.15609888       0.62724924       0.37470807
H        2.09661093      -0.54244701      -0.90785977
H       -1.23810567      -1.16068239      -0.88657150
H       -0.41710907       0.24430570      -1.71916883
H       -0.75604073       1.64136357       0.37521622
H       -2.23384902       0.67063368       0.54969122
12
Frame=4 idx=006746 GeodesicLength=0.3455157035477191 rxn_smarts="[O:1]=[C:2]([C:3](=[O:4])[N:5]1[C:6]([H:9])([H:10])[C:7]1([H:11])[H:12])[H:8]>>[O:1]=[C:2]([C:6]([C:7]([N:5]=[C:3]=[O:4])([H:11])[H:12])([H:9])[H:10])[H:8]"
O        1.69466979       1.28784404      -0.13828070
C        1.45487092       0.13462514      -0.32434477
C        0.62725298      -0.74162474       0.95609032
O        1.30568061      -1.68672633       1.26024700
N       -0.57013316      -0.31818807       1.27627682
C       -0.79043886      -0.18291631      -0.78863757
C       -1.15644918       0.63193096       0.37277590
H        2.10957678      -0.52745423      -0.91844839
H       -1.24678762      -1.16094262      -0.88935252
H       -0.44046949       0.24162487      -1.72399420
H       -0.75452393       1.64458343       0.36796787
H       -2.23324885       0.67724388       0.54970023
12
Frame=5 idx=006746 GeodesicLength=0.43187793069520247 rxn_smarts="[O:1]=[C:2]([C:3](=[O:4])[N:5]1[C:6]([H:9])([H:10])[C:7]1([H:11])[H:12])[H:8]>>[O:1]=[C:2]([C:6]([C:7]([N:5]=[C:3]=[O:4])([H:11])[H:12])([H:9])[H:10])[H:8]"
O        1.70132610       1.28830741      -0.12683555
C        1.45603985       0.13953864      -0.33583756
C        0.63794403      -0.74352318       0.98239635
O        1.30048964      -1.70168126       1.27670169
N       -0.56964578      -0.32696289       1.25811839
C       -0.78623075      -0.18898664      -0.78491946
C       -1.15662998       0.63625820       0.37079636
H        2.12207437      -0.51233995      -0.92953526
H       -1.25554039      -1.16052329      -0.89297774
H       -0.46429277       0.23930445      -1.72872369
H       -0.75314011       1.64755807       0.36059189
H       -2.23239421       0.68305044       0.55022459
12
Frame=6 idx=006746 GeodesicLength=0.5182920282684323 rxn_smarts="[O:1]=[C:2]([C:3](=[O:4])[N:5]1[C:6]([H:9])([H:10])[C:7]1([H:11])[H:12])[H:8]>>[O:1]=[C:2]([C:6]([C:7]([N:5]=[C:3]=[O:4])([H:11])[H:12])([H:9])[H:10])[H:8]"
O        1.70822639       1.28801549      -0.11537174
C        1.45720928       0.14426817      -0.34750301
C        0.64808070      -0.74585978       1.00887204
O        1.29548038      -1.71548055       1.29546531
N       -0.56818192      -0.33587166       1.23936164
C       -0.78206964      -0.19458192      -0.78193042
C       -1.15664165       0.64018261       0.36879044
H        2.13406867      -0.49722091      -0.94121616
H       -1.26444772      -1.15930110      -0.89763661
H       -0.48861540       0.23757171      -1.73339139
H       -0.75183288       1.65021879       0.35325297
H       -2.23127621       0.68805916       0.55130694
12
Frame=7 idx=006746 GeodesicLength=0.6047798391465024 rxn_smarts="[O:1]=[C:2]([C:3](=[O:4])[N:5]1[C:6]([H:9])([H:10])[C:7]1([H:11])[H:12])[H:8]>>[O:1]=[C:2]([C:6]([C:7]([N:5]=[C:3]=[O:4])([H:11])[H:12])([H:9])[H:10])[H:8]"
O        1.71536950       1.28689262      -0.10392296
C        1.45838046       0.14876959      -0.35941267
C        0.65755038      -0.74872461       1.03543215
O        1.29085994      -1.72791855       1.31690638
N       -0.56578522      -0.34503533       1.21992856
C       -0.77800028      -0.19964494      -0.77975969
C       -1.15648771       0.64367377       0.36677836
H        2.14555302      -0.48216705      -0.95355461
H       -1.27351256      -1.15721994      -0.90341962
H       -0.51345819       0.23658045      -1.73801152
H       -0.75057723       1.65252777       0.34605495
H       -2.22989212       0.69226623       0.55298067
12
Frame=8 idx=006746 GeodesicLength=0.6913707268049575 rxn_smarts="[O:1]=[C:2]([C:3](=[O:4])[N:5]1[C:6]([H:9])([H:10])[C:7]1([H:11])[H:12])[H:8]>>[O:1]=[C:2]([C:6]([C:7]([N:5]=[C:3]=[O:4])([H:11])[H:12])([H:9])[H:10])[H:8]"
O        1.72275934       1.28490263      -0.09252601
C        1.45957270       0.15304029      -0.37162004
C        0.66628045      -0.75212023       1.06206737
O        1.28663028      -1.73894820       1.34117835
N       -0.56247370      -0.35450257       1.19977725
C       -0.77404080      -0.20415385      -0.77845497
C       -1.15616581       0.64671114       0.36477472
H        2.15654523      -0.46717813      -0.96661490
H       -1.28268168      -1.15427978      -0.91032974
H       -0.53883010       0.23641086      -1.74257096
H       -0.74936676       1.65446553       0.33905632
H       -2.22822913       0.69565230       0.55526262
12
Frame=9 idx=006746 GeodesicLength=0.778086150582536 rxn_smarts="[O:1]=[C:2]([C:3](=[O:4])[N:5]1[C:6]([H:9])([H:10])[C:7]1([H:11])[H:12])[H:8]>>[O:1]=[C:2]([C:6]([C:7]([N:5]=[C:3]=[O:4])([H:11])[H:12])([H:9])[H:10])[H:8]"
O        1.73040130       1.28201773      -0.08116211
C        1.46081531       0.15709254      -0.38420149
C        0.67426624      -0.75600452       1.08883057
O        1.28255826      -1.74861071       1.36824037
N       -0.55831573      -0.36424381       1.17893972
C       -0.77017286      -0.20810620      -0.77797320
C       -1.15565593       0.64927803       0.36278593
H        2.16707262      -0.45214308      -0.98055978
H       -1.29181733      -1.15058008      -0.91825159
H       -0.56470642       0.23708201      -1.74704398
H       -0.74819025       1.65602339       0.33228724
H       -2.22625522       0.69819469       0.55810831
12
Frame=10 idx=006746 GeodesicLength=0.8649065232356249 rxn_smarts="[O:1]=[C:2]([C:3](=[O:4])[N:5]1[C:6]([H:9])([H:10])[C:7]1([H:11])[H:12])[H:8]>>[O:1]=[C:2]([C:6]([C:7]([N:5]=[C:3]=[O:4])([H:11])[H:12])([H:9])[H:10])[H:8]"
O        1.73829913       1.27830130      -0.06991178
C        1.46214120       0.16101471      -0.39714682
C        0.68144959      -0.76017966       1.11583500
O        1.27844157      -1.75720643       1.39786445
N       -0.55319436      -0.37419573       1.15740540
C       -0.76638373      -0.21153674      -0.77835252
C       -1.15496691       0.65139071       0.36082510
H        2.17719757      -0.43704072      -0.99530804
H       -1.30082080      -1.14618413      -0.92709134
H       -0.59108810       0.23853813      -1.75140043
H       -0.74709745       1.65723518       0.32568967
H       -2.22397771       0.69986338       0.56159132
12
Frame=11 idx=006746 GeodesicLength=0.9518031091200958 rxn_smarts="[O:1]=[C:2]([C:3](=[O:4])[N:5]1[C:6]([H:9])([H:10])[C:7]1([H:11])[H:12])[H:8]>>[O:1]=[C:2]([C:6]([C:7]([N:5]=[C:3]=[O:4])([H:11])[H:12])([H:9])[H:10])[H:8]"
O        1.74646192       1.27377769      -0.05879042
C        1.46357817       0.16486031      -0.41048914
C        0.68779063      -0.76452693       1.14316819
O        1.27403906      -1.76489738       1.42987082
N       -0.54706354      -0.38429551       1.13518648
C       -0.76265418      -0.21446725      -0.77958277
C       -1.15408975       0.65305073       0.35890304
H        2.18696731      -0.42180125      -1.01089270
H       -1.30958505      -1.14118504      -0.93673249
H       -0.61795963       0.24073990      -1.75561055
H       -0.74610846       1.65811612       0.31923990
H       -2.22137648       0.70062861       0.56572965
12
Frame=12 idx=006746 GeodesicLength=1.0387593223778466 rxn_smarts="[O:1]=[C:2]([C:3](=[O:4])[N:5]1[C:6]([H:9])([H:10])[C:7]1([H:11])[H:12])[H:8]>>[O:1]=[C:2]([C:6]([C:7]([N:5]=[C:3]=[O:4])([H:11])[H:12])([H:9])[H:10])[H:8]"
O        1.75490663       1.26845307      -0.04780107
C        1.46515391       0.16868629      -0.42427215
C        0.69323237      -0.76896036       1.17090052
O        1.26909811      -1.77180577       1.46411095
N       -0.53986806      -0.39447988       1.11229304
C       -0.75896202      -0.21691692      -0.78165019
C       -1.15300843       0.65425675       0.35702872
H        2.19642887      -0.40633144      -1.02736888
H       -1.31801496      -1.13567811      -0.94706099
H       -0.64530725       0.24364146      -1.75964523
H       -0.74523496       1.65867870       0.31291836
H       -2.21842422       0.70045620       0.57054693
12
Frame=13 idx=006746 GeodesicLength=1.1257438922884797 rxn_smarts="[O:1]=[C:2]([C:3](=[O:4])[N:5]1[C:6]([H:9])([H:10])[C:7]1([H:11])[H:12])[H:8]>>[O:1]=[C:2]([C:6]([C:7]([N:5]=[C:3]=[O:4])([H:11])[H:12])([H:9])[H:10])[H:8]"
O        1.76365552       1.26234164      -0.03694106
C        1.46689660       0.17255949      -0.43854100
C        0.69770849      -0.77338628       1.19910473
O        1.26336380      -1.77806509       1.50040932
N       -0.53153851      -0.40467188       1.08873967
C       -0.75528545      -0.21890591      -0.78453599
C       -1.15170560       0.65500928       0.35521161
H        2.20562839      -0.39054541      -1.04478118
H       -1.32602336      -1.12975984      -0.95796108
H       -0.67311929       0.24717868      -1.76347006
H       -0.74449406       1.65893711       0.30669913
H       -2.21508653       0.69930821       0.57606591
12
Frame=14 idx=006746 GeodesicLength=1.212746310119376 rxn_smarts="[O:1]=[C:2]([C:3](=[O:4])[N:5]1[C:6]([H:9])([H:10])[C:7]1([H:11])[H:12])[H:8]>>[O:1]=[C:2]([C:6]([C:7]([N:5]=[C:3]=[O:4])([H:11])[H:12])([H:9])[H:10])[H:8]"
O        1.77274443       1.25542348      -0.02620435
C        1.46883385       0.17654412      -0.45335469
C        0.70113578      -0.77776280       1.22781596
O        1.25656778      -1.78372765       1.53867851
N       -0.52199611      -0.41481602       1.06452664
C       -0.75160449      -0.22044701      -0.78822565
C       -1.15015497       0.65529976       0.35346428
H        2.21461047      -0.37432176      -1.06321064
H       -1.33354260      -1.12351880      -0.96933374
H       -0.70138872       0.25129384      -1.76704959
H       -0.74388611       1.65889310       0.30057590
H       -2.21131931       0.69713974       0.58231739
12
Frame=15 idx=006746 GeodesicLength=1.2997414110458154 rxn_smarts="[O:1]=[C:2]([C:3](=[O:4])[N:5]1[C:6]([H:9])([H:10])[C:7]1([H:11])[H:12])[H:8]>>[O:1]=[C:2]([C:6]([C:7]([N:5]=[C:3]=[O:4])([H:11])[H:12])([H:9])[H:10])[H:8]"
O        1.78221419       1.24768452      -0.01557340
C        1.47099487       0.18071923      -0.46877379
C        0.70341475      -0.78203441       1.25707847
O        1.24842741      -1.78887833       1.57877165
N       -0.51115103      -0.42483015       1.03967012
C       -0.74789185      -0.22156210      -0.79269177
C       -1.14832794       0.65512618       0.35179740
H        2.22341905      -0.35753250      -1.08273297
H       -1.34050313      -1.11705552      -0.98106032
H       -0.73010514       0.25589929      -1.77034176
H       -0.74341716       1.65855657       0.29452505
H       -2.20707403       0.69390722       0.58933134
12
Frame=16 idx=006746 GeodesicLength=1.3867151671307238 rxn_smarts="[O:1]=[C:2]([C:3](=[O:4])[N:5]1[C:6]([H:9])([H:10])[C:7]1([H:11])[H:12])[H:8]>>[O:1]=[C:2]([C:6]([C:7]([N:5]=[C:3]=[O:4])([H:11])[H:12])([H:9])[H:10])[H:8]"
O        1.79211878       1.23909485      -0.00502394
C        1.47341275       0.18517985      -0.48486878
C        0.70442686      -0.78616202       1.28692258
O        1.23863031      -1.79358781       1.62055025
N       -0.49889946      -0.43462499       1.01419065
C       -0.74411659      -0.22227593      -0.79789932
C       -1.14618927       0.65448480       0.35022239
H        2.23209920      -0.34002218      -1.10344551
H       -1.34683880      -1.11047498      -0.99301067
H       -0.75926094       0.26088948      -1.77329789
H       -0.74308873       1.65793501       0.28852247
H       -2.20229412       0.68956391       0.59713777
