14
Frame=0 idx=010529 GeodesicLength=0.0 rxn_smarts="[O:1]([C:2]1([C:3]([C:4]#[N:5])([H:9])[H:10])[C:6]([H:11])([H:12])[C:7]1([H:13])[H:14])[H:8]>>[C:3](=[C:4]=[N:5][H:12])([H:9])[H:10].[O:1]([C:2]1=[C:6]([H:11])[C:7]1([H:13])[H:14])[H:8]"
O       -0.82284066       1.57840196      -1.04595806
C       -0.68345340       0.57079719      -0.19106695
C        1.76158784       0.03510589      -0.64294815
C        1.39822320      -1.23312435      -0.43877115
N        0.76589559      -2.21704793      -0.20569692
C       -1.29194924      -0.59171009       0.09761588
C       -0.83708416       0.31934446       1.24699512
H       -0.29788764       2.32465487      -0.74449853
H        1.87558391       0.38925145      -1.65889104
H        2.26819317       0.57038397       0.14938615
H       -2.26540556      -0.96809889      -0.17840089
H       -0.31136005      -1.68678693      -0.02584006
H        0.01103025      -0.00361871       1.84455488
H       -1.57053320       0.91244710       1.79351966
14
Frame=1 idx=010529 GeodesicLength=0.1196518013898789 rxn_smarts="[O:1]([C:2]1([C:3]([C:4]#[N:5])([H:9])[H:10])[C:6]([H:11])([H:12])[C:7]1([H:13])[H:14])[H:8]>>[C:3](=[C:4]=[N:5][H:12])([H:9])[H:10].[O:1]([C:2]1=[C:6]([H:11])[C:7]1([H:13])[H:14])[H:8]"
O       -0.80121988       1.60227417      -1.01606514
C       -0.67589016       0.56772108      -0.18904119
C        1.74507299       0.04734001      -0.67077979
C        1.43137002      -1.22554871      -0.40310922
N        0.81239562      -2.21117092      -0.14505478
C       -1.30945790      -0.58812445       0.08234135
C       -0.85787608       0.30425713       1.24533006
H       -0.24633660       2.32168047      -0.70152242
H        1.83575009       0.34840891      -1.70636497
H        2.28334903       0.61753152       0.07516492
H       -2.28525692      -0.94338261      -0.21190473
H       -0.30861108      -1.69438144      -0.00892032
H       -0.03796291      -0.05413886       1.86168491
H       -1.58532622       0.90753369       1.78824133
14
Frame=2 idx=010529 GeodesicLength=0.23896232200819906 rxn_smarts="[O:1]([C:2]1([C:3]([C:4]#[N:5])([H:9])[H:10])[C:6]([H:11])([H:12])[C:7]1([H:13])[H:14])[H:8]>>[C:3](=[C:4]=[N:5][H:12])([H:9])[H:10].[O:1]([C:2]1=[C:6]([H:11])[C:7]1([H:13])[H:14])[H:8]"
O       -0.77881232       1.62615338      -0.98431293
C       -0.66824367       0.56517954      -0.18643984
C        1.72829301       0.05795697      -0.69862921
C        1.46571201      -1.21453138      -0.36599947
N        0.86009190      -2.20130822      -0.08364302
C       -1.32612208      -0.58399281       0.06615405
C       -0.87892819       0.28891074       1.24337292
H       -0.19581371       2.31772691      -0.65682614
H        1.79456355       0.30332874      -1.75101368
H        2.29779938       0.66253462      -0.00448754
H       -2.30382509      -0.91721212      -0.24625822
H       -0.30500441      -1.70143618       0.00750279
H       -0.08919963      -0.10475976       1.87731848
H       -1.60051076       0.90144958       1.78326181
14
Frame=3 idx=010529 GeodesicLength=0.3579509244737978 rxn_smarts="[O:1]([C:2]1([C:3]([C:4]#[N:5])([H:9])[H:10])[C:6]([H:11])([H:12])[C:7]1([H:13])[H:14])[H:8]>>[C:3](=[C:4]=[N:5][H:12])([H:9])[H:10].[O:1]([C:2]1=[C:6]([H:11])[C:7]1([H:13])[H:14])[H:8]"
O       -0.75560467       1.64996095      -0.95071856
C       -0.66064367       0.56315990      -0.18331983
C        1.71117295       0.06708701      -0.72628304
C        1.50108392      -1.19972483      -0.32779950
N        0.90903382      -2.18722751      -0.02155231
C       -1.34199470      -0.57933440       0.04909488
C       -0.90011344       0.27326420       1.24104381
H       -0.14595676       2.31260176      -0.61058536
H        1.75208517       0.25424234      -1.79225176
H        2.31096697       0.70494874      -0.08948000
H       -2.32115841      -0.88959151      -0.28129103
H       -0.30051378      -1.70797479       0.02346433
H       -0.14246437      -0.15560462       1.89106387
H       -1.61589303       0.89419277       1.77861450
14
Frame=4 idx=010529 GeodesicLength=0.47642170077334145 rxn_smarts="[O:1]([C:2]1([C:3]([C:4]#[N:5])([H:9])[H:10])[C:6]([H:11])([H:12])[C:7]1([H:13])[H:14])[H:8]>>[C:3](=[C:4]=[N:5][H:12])([H:9])[H:10].[O:1]([C:2]1=[C:6]([H:11])[C:7]1([H:13])[H:14])[H:8]"
O       -0.73170019       1.67341618      -0.91557250
C       -0.65332095       0.56154695      -0.17992767
C        1.69361407       0.07489772      -0.75331813
C        1.53712451      -1.18092680      -0.28923335
N        0.95912176      -2.16872771       0.04092687
C       -1.35721191      -0.57417935       0.03127200
C       -0.92109557       0.25731666       1.23818789
H       -0.09664944       2.30593280      -0.56329119
H        1.70878316       0.20193377      -1.82920764
H        2.32199923       0.74406085      -0.17887916
H       -2.33746999      -0.86053207      -0.31650319
H       -0.29521912      -1.71405946       0.03887579
H       -0.19705497      -0.20653324       1.90232979
H       -1.63092057       0.88585370       1.77434048
14
Frame=5 idx=010529 GeodesicLength=0.5945721974632866 rxn_smarts="[O:1]([C:2]1([C:3]([C:4]#[N:5])([H:9])[H:10])[C:6]([H:11])([H:12])[C:7]1([H:13])[H:14])[H:8]>>[C:3](=[C:4]=[N:5][H:12])([H:9])[H:10].[O:1]([C:2]1=[C:6]([H:11])[C:7]1([H:13])[H:14])[H:8]"
O       -0.70706544       1.69646306      -0.87891536
C       -0.64640241       0.56030921      -0.17640683
C        1.67563272       0.08153722      -0.77957855
C        1.57370523      -1.15797655      -0.25062389
N        1.01035504      -2.14563115       0.10376536
C       -1.37191662      -0.56854977       0.01272225
C       -0.94172585       0.24103004       1.23471176
H       -0.04765132       2.29755509      -0.51508317
H        1.66490274       0.14664617      -1.86149141
H        2.33029000       0.77958509      -0.27229507
H       -2.35295288      -0.83001461      -0.35171270
H       -0.28917350      -1.71976307       0.05368167
H       -0.25265598      -0.25764802       1.91073805
H       -1.64534173       0.87645730       1.77048789
14
Frame=6 idx=010529 GeodesicLength=0.7123544059266005 rxn_smarts="[O:1]([C:2]1([C:3]([C:4]#[N:5])([H:9])[H:10])[C:6]([H:11])([H:12])[C:7]1([H:13])[H:14])[H:8]>>[C:3](=[C:4]=[N:5][H:12])([H:9])[H:10].[O:1]([C:2]1=[C:6]([H:11])[C:7]1([H:13])[H:14])[H:8]"
O       -0.68178636       1.71880897      -0.84108638
C       -0.64009436       0.55930584      -0.17308051
C        1.65722630       0.08719021      -0.80471216
C        1.61050922      -1.13089251      -0.21257316
N        1.06253255      -2.11779299       0.16674435
C       -1.38634115      -0.56247373      -0.00644562
C       -0.96167059       0.22439373       1.23045825
H        0.00103519       2.28712467      -0.46647803
H        1.62107493       0.08920477      -1.88851027
H        2.33510782       0.81105205      -0.36849909
H       -2.36797205      -0.79801626      -0.38637086
H       -0.28255005      -1.72518693       0.06766835
H       -0.30852136      -0.30882949       1.91577167
H       -1.65855007       0.86611167       1.76711346
14
Frame=7 idx=010529 GeodesicLength=0.8299845062134621 rxn_smarts="[O:1]([C:2]1([C:3]([C:4]#[N:5])([H:9])[H:10])[C:6]([H:11])([H:12])[C:7]1([H:13])[H:14])[H:8]>>[C:3](=[C:4]=[N:5][H:12])([H:9])[H:10].[O:1]([C:2]1=[C:6]([H:11])[C:7]1([H:13])[H:14])[H:8]"
O       -0.65586074       1.74035496      -0.80218030
C       -0.63451401       0.55848837      -0.17015506
C        1.63845803       0.09197028      -0.82863406
C        1.64740566      -1.09965948      -0.17531777
N        1.11554545      -2.08502737       0.22986628
C       -1.40070183      -0.55593462      -0.02619921
C       -0.98076902       0.20735060       1.22534017
H        0.04952053       2.27443858      -0.41770900
H        1.57774629       0.02990617      -1.91007283
H        2.33593505       0.83831063      -0.46678996
H       -2.38283319      -0.76443940      -0.42022750
H       -0.27546577      -1.73041283       0.08066078
H       -0.36423557      -0.36014629       1.91712411
H       -1.67023088       0.85480041       1.76429435
14
Frame=8 idx=010529 GeodesicLength=0.9472593333373309 rxn_smarts="[O:1]([C:2]1([C:3]([C:4]#[N:5])([H:9])[H:10])[C:6]([H:11])([H:12])[C:7]1([H:13])[H:14])[H:8]>>[C:3](=[C:4]=[N:5][H:12])([H:9])[H:10].[O:1]([C:2]1=[C:6]([H:11])[C:7]1([H:13])[H:14])[H:8]"
O       -0.62940064       1.76068130      -0.76267092
C       -0.62985699       0.55765359      -0.16806298
C        1.61932707       0.09602435      -0.85102542
C        1.68394007      -1.06449711      -0.13941382
N        1.16896995      -2.04731196       0.29283787
C       -1.41531022      -0.54895483      -0.04644944
C       -0.99865978       0.18991749       1.21920254
H        0.09760148       2.25912389      -0.36935195
H        1.53579818      -0.03025323      -1.92584196
H        2.33219130       0.86108735      -0.56540157
H       -2.39800314      -0.72930911      -0.45267506
H       -0.26817483      -1.73564183       0.09231521
H       -0.41876948      -0.41119677       1.91442321
H       -1.67965299       0.84267688       1.76211429
14
Frame=9 idx=010529 GeodesicLength=1.0645719427330531 rxn_smarts="[O:1]([C:2]1([C:3]([C:4]#[N:5])([H:9])[H:10])[C:6]([H:11])([H:12])[C:7]1([H:13])[H:14])[H:8]>>[C:3](=[C:4]=[N:5][H:12])([H:9])[H:10].[O:1]([C:2]1=[C:6]([H:11])[C:7]1([H:13])[H:14])[H:8]"
O       -0.60236218       1.77965762      -0.72261210
C       -0.62614751       0.55679033      -0.16692092
C        1.59999353       0.09942155      -0.87190506
C        1.72013803      -1.02542045      -0.10483482
N        1.22262820      -2.00438246       0.35573722
C       -1.43041704      -0.54146663      -0.06714833
C       -1.01523518       0.17200199       1.21196887
H        0.14537715       2.24104073      -0.32167468
H        1.49547123      -0.09123532      -1.93587091
H        2.32374729       0.87955486      -0.66375146
H       -2.41381881      -0.69243659      -0.48348554
H       -0.26086878      -1.74086488       0.10242284
H       -0.47194999      -0.46225923       1.90745971
H       -1.68655593       0.82959847       1.76061519
14
Frame=10 idx=010529 GeodesicLength=1.1819748101362557 rxn_smarts="[O:1]([C:2]1([C:3]([C:4]#[N:5])([H:9])[H:10])[C:6]([H:11])([H:12])[C:7]1([H:13])[H:14])[H:8]>>[C:3](=[C:4]=[N:5][H:12])([H:9])[H:10].[O:1]([C:2]1=[C:6]([H:11])[C:7]1([H:13])[H:14])[H:8]"
O       -0.57491055       1.79699456      -0.68249413
C       -0.62354225       0.55577798      -0.16710333
C        1.58056499       0.10218373      -0.89112563
C        1.75568830      -0.98277286      -0.07183777
N        1.27614294      -1.95638007       0.41833146
C       -1.44639509      -0.53341819      -0.08820547
C       -1.03028322       0.15361052       1.20358170
H        0.19250445       2.22005139      -0.27518056
H        1.45775229      -0.15235062      -1.94021674
H        2.31043765       0.89377731      -0.76035585
H       -2.43079666      -0.65374145      -0.51213681
H       -0.25378044      -1.74634469       0.11061870
H       -0.52298515      -0.51307670       1.89614640
H       -1.69039726       0.81568909       1.75997802
14
Frame=11 idx=010529 GeodesicLength=1.299631915411915 rxn_smarts="[O:1]([C:2]1([C:3]([C:4]#[N:5])([H:9])[H:10])[C:6]([H:11])([H:12])[C:7]1([H:13])[H:14])[H:8]>>[C:3](=[C:4]=[N:5][H:12])([H:9])[H:10].[O:1]([C:2]1=[C:6]([H:11])[C:7]1([H:13])[H:14])[H:8]"
O       -0.54709365       1.81243851      -0.64257039
C       -0.62207016       0.55455648      -0.16879767
C        1.56113999       0.10430202      -0.90865367
C        1.79041792      -0.93669978      -0.04042059
N        1.32917015      -1.90318389       0.48061584
C       -1.46353175      -0.52470638      -0.10956967
C       -1.04367946       0.13468153       1.19397036
H        0.23883259       2.19604227      -0.23020652
H        1.42312084      -0.21334800      -1.93902435
H        2.29236133       0.90396696      -0.85431124
H       -2.44928610      -0.61306354      -0.53829720
H       -0.24714791      -1.75219023       0.11658170
H       -0.57144778      -0.56363790       1.88040883
H       -1.69078602       0.80084195       1.76027458
14
Frame=12 idx=010529 GeodesicLength=1.4177267558996944 rxn_smarts="[O:1]([C:2]1([C:3]([C:4]#[N:5])([H:9])[H:10])[C:6]([H:11])([H:12])[C:7]1([H:13])[H:14])[H:8]>>[C:3](=[C:4]=[N:5][H:12])([H:9])[H:10].[O:1]([C:2]1=[C:6]([H:11])[C:7]1([H:13])[H:14])[H:8]"
O       -0.51900782       1.82575018      -0.60317003
C       -0.62175590       0.55307425      -0.17217911
C        1.54184819       0.10573854      -0.92444543
C        1.82415109      -0.88740662      -0.01056491
N        1.38135002      -1.84475211       0.54258442
C       -1.48212893      -0.51520520      -0.13116449
C       -1.05534052       0.11515853       1.18308666
H        0.28412683       2.16899475      -0.18711555
H        1.39207730      -0.27394437      -1.93248980
H        2.26981163       0.91035724      -0.94475552
H       -2.46962811      -0.57023686      -0.56159522
H       -0.24122475      -1.75856892       0.11996914
H       -0.61691400      -0.61390268       1.86024683
H       -1.68736502       0.78494325       1.76159300
14
Frame=13 idx=010529 GeodesicLength=1.5364444106192245 rxn_smarts="[O:1]([C:2]1([C:3]([C:4]#[N:5])([H:9])[H:10])[C:6]([H:11])([H:12])[C:7]1([H:13])[H:14])[H:8]>>[C:3](=[C:4]=[N:5][H:12])([H:9])[H:10].[O:1]([C:2]1=[C:6]([H:11])[C:7]1([H:13])[H:14])[H:8]"
O       -0.49077288       1.83670460      -0.56465675
C       -0.62260281       0.55128763      -0.17738681
C        1.52281797       0.10642705      -0.93844721
C        1.85670606      -0.83512002       0.01779165
N        1.43232564      -1.78105406       0.60426815
C       -1.50247061      -0.50475518      -0.15289569
C       -1.06522644       0.09497933       1.17088691
H        0.32809512       2.13896715      -0.14621491
H        1.36505540      -0.33387354      -1.92083479
H        2.24322887       0.91316197      -1.03097796
H       -2.49209459      -0.52507719      -0.58166868
H       -0.23626559      -1.76566733       0.12042769
H       -0.65898821      -0.66382495       1.83571120
H       -1.67980792       0.76784453       1.76399719
14
Frame=14 idx=010529 GeodesicLength=1.6560506649798183 rxn_smarts="[O:1]([C:2]1([C:3]([C:4]#[N:5])([H:9])[H:10])[C:6]([H:11])([H:12])[C:7]1([H:13])[H:14])[H:8]>>[C:3](=[C:4]=[N:5][H:12])([H:9])[H:10].[O:1]([C:2]1=[C:6]([H:11])[C:7]1([H:13])[H:14])[H:8]"
O       -0.46253881       1.84512590      -0.52737193
C       -0.62458289       0.54916952      -0.18451221
C        1.50417735       0.10627221      -0.95059046
C        1.88793629      -0.78000160       0.04480955
N        1.48177115      -1.71200900       0.66575672
C       -1.52481620      -0.49315582      -0.17465691
C       -1.07330336       0.07406183       1.15731691
H        0.37046762       2.10608734      -0.10779238
H        1.34238149      -0.39301667      -1.90422459
H        2.21310823       0.91260689      -1.11249855
H       -2.51689310      -0.47732857      -0.59814289
H       -0.23253833      -1.77367020       0.11755954
H       -0.69738259      -0.71345379       1.80683797
H       -1.66778686       0.74931196       1.76750923
14
Frame=15 idx=010529 GeodesicLength=1.7768274371261599 rxn_smarts="[O:1]([C:2]1([C:3]([C:4]#[N:5])([H:9])[H:10])[C:6]([H:11])([H:12])[C:7]1([H:13])[H:14])[H:8]>>[C:3](=[C:4]=[N:5][H:12])([H:9])[H:10].[O:1]([C:2]1=[C:6]([H:11])[C:7]1([H:13])[H:14])[H:8]"
O       -0.43449657       1.85085865      -0.49172210
C       -0.62766479       0.54668289      -0.19363715
C        1.48605993       0.10516498      -0.96076472
C        1.91768608      -0.72222140       0.07068102
N        1.52936181      -1.63752034       0.72717419
C       -1.54941921      -0.48017718      -0.19629770
C       -1.07955633       0.05231265       1.14230779
H        0.41091164       2.07056173      -0.07208461
H        1.32435607      -0.45123811      -1.88279288
H        2.18002024       0.90883481      -1.18895664
H       -2.54416855      -0.42671161      -0.61059209
H       -0.23033473      -1.78278430       0.11091423
H       -0.73182298      -0.76284449       1.77365603
H       -1.65093261       0.72908173       1.77211463
14
Frame=16 idx=010529 GeodesicLength=1.8991271082071821 rxn_smarts="[O:1]([C:2]1([C:3]([C:4]#[N:5])([H:9])[H:10])[C:6]([H:11])([H:12])[C:7]1([H:13])[H:14])[H:8]>>[C:3](=[C:4]=[N:5][H:12])([H:9])[H:10].[O:1]([C:2]1=[C:6]([H:11])[C:7]1([H:13])[H:14])[H:8]"
O       -0.40684509       1.85381239      -0.45807227
C       -0.63179346       0.54379847      -0.20481630
C        1.46858161       0.10297935      -0.96885385
C        1.94581474      -0.66188978       0.09562006
N        1.57479362      -1.55736230       0.78872518
C       -1.57648535      -0.46554995      -0.21764274
C       -1.08397403       0.02962024       1.12576316
H        0.44914443       2.03264299      -0.03927315
H        1.31113892      -0.50853265      -1.85657062
H        2.14452992       0.90191326      -1.26015757
H       -2.57395879      -0.37289385      -0.61853857
H       -0.22996497      -1.79321277       0.09997904
H       -0.76207672      -0.81210414       1.73612607
H       -1.62890483       0.70677874       1.77771156
