17
Frame=0 idx=011291 GeodesicLength=0.0 rxn_smarts="[C:1]([C:2]1([O:3][H:11])[C:4]([H:12])([H:13])[C:5]([H:14])=[C:6]([H:15])[C:7]1([H:16])[H:17])([H:8])([H:9])[H:10]>>[C:1]1([H:8])([H:9])[C:2](=[O:3])[C:4]([H:12])([H:13])[C:5]([H:14])=[C:6]([H:15])[C:7]1([H:16])[H:17].[H:10][H:11]"
C       -1.29967857      -0.73748581      -0.35119665
C       -0.41505743       0.01109299       0.50214910
O       -0.66170143      -0.13234075       1.76739300
C        0.07547842       1.38597935       0.01636856
C        1.47623704       1.18104274      -0.46713849
C        1.84044796      -0.09066686      -0.51188658
C        0.79136950      -1.07311425      -0.10975500
H       -1.58495460      -1.72954383      -0.02802140
H       -1.42172460      -0.50987401      -1.40766552
H       -2.65220463      -0.18342991       0.77466129
H       -2.11693852      -0.11780558       1.45702949
H       -0.56960922       1.79580856      -0.76874364
H        0.02300346       2.06612585       0.86728258
H        2.12433948       2.00416442      -0.74262163
H        2.81459898      -0.44161756      -0.83283946
H        1.00593926      -1.67369309       0.77131246
H        0.57045497      -1.75464234      -0.93632807
17
Frame=1 idx=011291 GeodesicLength=0.10022351350986364 rxn_smarts="[C:1]([C:2]1([O:3][H:11])[C:4]([H:12])([H:13])[C:5]([H:14])=[C:6]([H:15])[C:7]1([H:16])[H:17])([H:8])([H:9])[H:10]>>[C:1]1([H:8])([H:9])[C:2](=[O:3])[C:4]([H:12])([H:13])[C:5]([H:14])=[C:6]([H:15])[C:7]1([H:16])[H:17].[H:10][H:11]"
C       -1.29875845      -0.73647272      -0.34981910
C       -0.41922126       0.02581174       0.50077900
O       -0.66641323      -0.10164485       1.76779956
C        0.07833979       1.39409361       0.00730947
C        1.48125589       1.17907742      -0.46695394
C        1.84053812      -0.09432948      -0.50915512
C        0.78240017      -1.07405079      -0.12123834
H       -1.58401159      -1.73002918      -0.03106626
H       -1.42047541      -0.50683238      -1.40608387
H       -2.66263665      -0.22246776       0.78895875
H       -2.12156164      -0.13710205       1.49581633
H       -0.56005392       1.80131507      -0.78449502
H        0.02315062       2.08317743       0.85095967
H        2.13791810       1.99962607      -0.72962683
H        2.81963465      -0.44546473      -0.81445617
H        0.99564385      -1.68253509       0.75525718
H        0.57425097      -1.75217232      -0.95398532
17
Frame=2 idx=011291 GeodesicLength=0.20034562935789335 rxn_smarts="[C:1]([C:2]1([O:3][H:11])[C:4]([H:12])([H:13])[C:5]([H:14])=[C:6]([H:15])[C:7]1([H:16])[H:17])([H:8])([H:9])[H:10]>>[C:1]1([H:8])([H:9])[C:2](=[O:3])[C:4]([H:12])([H:13])[C:5]([H:14])=[C:6]([H:15])[C:7]1([H:16])[H:17].[H:10][H:11]"
C       -1.29800662      -0.73519096      -0.34869666
C       -0.42366162       0.04081754       0.49905500
O       -0.67197066      -0.07028596       1.76757809
C        0.08118952       1.40232558      -0.00207388
C        1.48629483       1.17707133      -0.46652576
C        1.84049367      -0.09805954      -0.50601847
C        0.77322356      -1.07484992      -0.13271549
H       -1.58329291      -1.73030514      -0.03465750
H       -1.41939794      -0.50353020      -1.40475845
H       -2.67180491      -0.26179703       0.80349125
H       -2.12463232      -0.15802314       1.53614771
H       -0.55019278       1.80681602      -0.80076358
H        0.02319498       2.10043082       0.83406914
H        2.15141919       1.99485248      -0.71631736
H        2.82422020      -0.44958107      -0.79557146
H        0.98486893      -1.69116146       0.73923865
H        0.57805488      -1.74952937      -0.97148123
17
Frame=3 idx=011291 GeodesicLength=0.300363176465869 rxn_smarts="[C:1]([C:2]1([O:3][H:11])[C:4]([H:12])([H:13])[C:5]([H:14])=[C:6]([H:15])[C:7]1([H:16])[H:17])([H:8])([H:9])[H:10]>>[C:1]1([H:8])([H:9])[C:2](=[O:3])[C:4]([H:12])([H:13])[C:5]([H:14])=[C:6]([H:15])[C:7]1([H:16])[H:17].[H:10][H:11]"
C       -1.29744748      -0.73362174      -0.34785682
C       -0.42840771       0.05613329       0.49694867
O       -0.67849253      -0.03820806       1.76667095
C        0.08402140       1.41068323      -0.01180693
C        1.49134691       1.17501910      -0.46582599
C        1.84029295      -0.10186326      -0.50243860
C        0.76382025      -1.07550819      -0.14417680
H       -1.58283732      -1.73034489      -0.03882332
H       -1.41848879      -0.49996449      -1.40372365
H       -2.67969595      -0.30135567       0.81823404
H       -2.12583358      -0.18075267       1.57814369
H       -0.54000054       1.81230526      -0.81759159
H        0.02312234       2.11790167       0.81656802
H        2.16484077       1.98983713      -0.70264578
H        2.82832891      -0.45397867      -0.77615564
H        0.97357419      -1.69956591       0.72327473
H        0.58185619      -1.74671615      -0.98879501
17
Frame=4 idx=011291 GeodesicLength=0.40027306691221143 rxn_smarts="[C:1]([C:2]1([O:3][H:11])[C:4]([H:12])([H:13])[C:5]([H:14])=[C:6]([H:15])[C:7]1([H:16])[H:17])([H:8])([H:9])[H:10]>>[C:1]1([H:8])([H:9])[C:2](=[O:3])[C:4]([H:12])([H:13])[C:5]([H:14])=[C:6]([H:15])[C:7]1([H:16])[H:17].[H:10][H:11]"
C       -1.29711039      -0.73174287      -0.34733460
C       -0.43349515       0.07178610       0.49442697
O       -0.68612681      -0.00534768       1.76500838
C        0.08682929       1.41917747      -0.02191515
C        1.49640655       1.17291492      -0.46481404
C        1.83991344      -0.10574858      -0.49836125
C        0.75416643      -1.07602237      -0.15560764
H       -1.58268907      -1.73011871      -0.04360116
H       -1.41774412      -0.49612882      -1.40302236
H       -2.68629981      -0.34110276       0.83317168
H       -2.12477892      -0.20547312       1.62192355
H       -0.52944562       1.81777888      -0.83502464
H        0.02291581       2.13560906       0.79841205
H        2.17817783       1.98457122      -0.68856803
H        2.83192807      -0.45867421      -0.75618202
H        0.96170749      -1.70774246       0.70739019
H        0.58564497      -1.74373606      -1.00590192
17
Frame=5 idx=011291 GeodesicLength=0.500077292331994 rxn_smarts="[C:1]([C:2]1([O:3][H:11])[C:4]([H:12])([H:13])[C:5]([H:14])=[C:6]([H:15])[C:7]1([H:16])[H:17])([H:8])([H:9])[H:10]>>[C:1]1([H:8])([H:9])[C:2](=[O:3])[C:4]([H:12])([H:13])[C:5]([H:14])=[C:6]([H:15])[C:7]1([H:16])[H:17].[H:10][H:11]"
C       -1.29703061      -0.72952675      -0.34717032
C       -0.43896535       0.08780457       0.49144908
O       -0.69504697       0.02835984       1.76250519
C        0.08960660       1.42781730      -0.03242653
C        1.50146369       1.17074972      -0.46344360
C        1.83932396      -0.10972461      -0.49372673
C        0.74422870      -1.07638694      -0.16699887
H       -1.58290002      -1.72959002      -0.04903521
H       -1.41716245      -0.49200927      -1.40270193
H       -2.69159777      -0.38103463       0.84829995
H       -2.12099707      -0.23234324       1.66760994
H       -0.51848924       1.82323118      -0.85311093
H        0.02255767       2.15356603       0.77955387
H        2.19141583       1.97904036      -0.67405229
H        2.83498789      -0.46368452      -0.73556842
H        0.94919919      -1.71568615       0.69160257
H        0.58940595      -1.74058287      -1.02278578
17
Frame=6 idx=011291 GeodesicLength=0.5997759886291791 rxn_smarts="[C:1]([C:2]1([O:3][H:11])[C:4]([H:12])([H:13])[C:5]([H:14])=[C:6]([H:15])[C:7]1([H:16])[H:17])([H:8])([H:9])[H:10]>>[C:1]1([H:8])([H:9])[C:2](=[O:3])[C:4]([H:12])([H:13])[C:5]([H:14])=[C:6]([H:15])[C:7]1([H:16])[H:17].[H:10][H:11]"
C       -1.29725406      -0.72694650      -0.34741551
C       -0.44487061       0.10422312       0.48796599
O       -0.70546986       0.06299259       1.75905550
C        0.09234235       1.43661674      -0.04337436
C        1.50651016       1.16851481      -0.46164681
C        1.83849094      -0.11380384      -0.48845521
C        0.73396784      -1.07659884      -0.17833552
H       -1.58352731      -1.72872550      -0.05518048
H       -1.41674975      -0.48759514      -1.40282282
H       -2.69557276      -0.42118089       0.86363971
H       -2.11390150      -0.26149345       1.71531221
H       -0.50708600       1.82865518      -0.87191424
H        0.02201445       2.17179686       0.75993626
H        2.20455304       1.97323145      -0.65901361
H        2.83746336      -0.46903527      -0.71426690
H        0.93596591      -1.72339249       0.67593876
H        0.59312379      -1.73725882      -1.03942297
17
Frame=7 idx=011291 GeodesicLength=0.699366498386697 rxn_smarts="[C:1]([C:2]1([O:3][H:11])[C:4]([H:12])([H:13])[C:5]([H:14])=[C:6]([H:15])[C:7]1([H:16])[H:17])([H:8])([H:9])[H:10]>>[C:1]1([H:8])([H:9])[C:2](=[O:3])[C:4]([H:12])([H:13])[C:5]([H:14])=[C:6]([H:15])[C:7]1([H:16])[H:17].[H:10][H:11]"
C       -1.29783369      -0.72398087      -0.34812787
C       -0.45127015       0.12106851       0.48391962
O       -0.71764607       0.09861129       1.75453236
C        0.09502087       1.44558249      -0.05478925
C        1.51152837       1.16619824      -0.45934305
C        1.83736967      -0.11799935      -0.48246220
C        0.72333650      -1.07665633      -0.18961424
H       -1.58463281      -1.72749694      -0.06209607
H       -1.41651771      -0.48287774      -1.40345058
H       -2.69818863      -0.46163596       0.87922379
H       -2.10279974      -0.29291781       1.76512344
H       -0.49518758       1.83403682      -0.89149414
H        0.02124511       2.19030995       0.73950761
H        2.21757603       1.96712865      -0.64334800
H        2.83930774      -0.47474898      -0.69218342
H        0.92191153      -1.73086525       0.66040866
H        0.59678057      -1.73375673      -1.05580664
17
Frame=8 idx=011291 GeodesicLength=0.7988458568111331 rxn_smarts="[C:1]([C:2]1([O:3][H:11])[C:4]([H:12])([H:13])[C:5]([H:14])=[C:6]([H:15])[C:7]1([H:16])[H:17])([H:8])([H:9])[H:10]>>[C:1]1([H:8])([H:9])[C:2](=[O:3])[C:4]([H:12])([H:13])[C:5]([H:14])=[C:6]([H:15])[C:7]1([H:16])[H:17].[H:10][H:11]"
C       -1.29882555      -0.72062340      -0.34937472
C       -0.45823109       0.13835261       0.47925083
O       -0.73187139       0.13524601       1.74879030
C        0.09761853       1.45471291      -0.06668260
C        1.51649154       1.16378637      -0.45642004
C        1.83590905      -0.12232532      -0.47564481
C        0.71228710      -1.07656510      -0.20083315
H       -1.58628137      -1.72588857      -0.06984447
H       -1.41647425      -0.47785948      -1.40466029
H       -2.69939729      -0.50251410       0.89506598
H       -2.08688873      -0.32645337       1.81710325
H       -0.48274851       1.83935663      -0.91188816
H        0.02019517       2.20909597       0.71824302
H        2.23044942       1.96071814      -0.62694873
H        2.84046309      -0.48084550      -0.66923762
H        0.90693766      -1.73812128       0.64501546
H        0.60036661      -1.73007251      -1.07193424
17
Frame=9 idx=011291 GeodesicLength=0.8982107240152236 rxn_smarts="[C:1]([C:2]1([O:3][H:11])[C:4]([H:12])([H:13])[C:5]([H:14])=[C:6]([H:15])[C:7]1([H:16])[H:17])([H:8])([H:9])[H:10]>>[C:1]1([H:8])([H:9])[C:2](=[O:3])[C:4]([H:12])([H:13])[C:5]([H:14])=[C:6]([H:15])[C:7]1([H:16])[H:17].[H:10][H:11]"
C       -1.30028748      -0.71689186      -0.35122713
C       -0.46582349       0.15605769       0.47389955
O       -0.74846268       0.17286661       1.74166997
C        0.10009917       1.46398750      -0.07904394
C        1.52135412       1.16126236      -0.45274273
C        1.83404415      -0.12679495      -0.46790884
C        0.70077157      -1.07633995      -0.21201405
H       -1.58854718      -1.72390169      -0.07847552
H       -1.41663084      -0.47255934      -1.40652797
H       -2.69912364      -0.54392297       0.91113542
H       -2.06526059      -0.36172074       1.87128918
H       -0.46973429       1.84458069      -0.93310372
H        0.01879272       2.22811016       0.69615122
H        2.24310406       1.95399082      -0.60971202
H        2.84087528      -0.48732988      -0.64527879
H        0.89095204      -1.74520043       0.62972416
H        0.60387707      -1.72619403      -1.08783481
17
Frame=10 idx=011291 GeodesicLength=0.9974497124740804 rxn_smarts="[C:1]([C:2]1([O:3][H:11])[C:4]([H:12])([H:13])[C:5]([H:14])=[C:6]([H:15])[C:7]1([H:16])[H:17])([H:8])([H:9])[H:10]>>[C:1]1([H:8])([H:9])[C:2](=[O:3])[C:4]([H:12])([H:13])[C:5]([H:14])=[C:6]([H:15])[C:7]1([H:16])[H:17].[H:10][H:11]"
C       -1.30225885      -0.71286014      -0.35375813
C       -0.47411594       0.17412085       0.46781490
O       -0.76774362       0.21135517       1.73300108
C        0.10240982       1.47336004      -0.09182018
C        1.52605103       1.15860832      -0.44813985
C        1.83170979      -0.13142016      -0.45915667
C        0.68876630      -1.07601543      -0.22319150
H       -1.59145970      -1.72159512      -0.08801874
H       -1.41698998      -0.46704387      -1.40912768
H       -2.69734971      -0.58604857       0.92735611
H       -2.03699760      -0.39783891       1.92764135
H       -0.45613418       1.84965788      -0.95509031
H        0.01694004       2.24726245       0.67330621
H        2.25546136       1.94694921      -0.59140028
H        2.84046403      -0.49419719      -0.62033050
H        0.87390792      -1.75217225       0.61446891
H        0.60733929      -1.72212228      -1.10355474
17
Frame=11 idx=011291 GeodesicLength=1.0965366509934031 rxn_smarts="[C:1]([C:2]1([O:3][H:11])[C:4]([H:12])([H:13])[C:5]([H:14])=[C:6]([H:15])[C:7]1([H:16])[H:17])([H:8])([H:9])[H:10]>>[C:1]1([H:8])([H:9])[C:2](=[O:3])[C:4]([H:12])([H:13])[C:5]([H:14])=[C:6]([H:15])[C:7]1([H:16])[H:17].[H:10][H:11]"
C       -1.30476212      -0.70865632      -0.35703945
C       -0.48316809       0.19241645       0.46095777
O       -0.78999456       0.25046501       1.72262685
C        0.10447866       1.48274857      -0.10491518
C        1.53048674       1.15580492      -0.44243039
C        1.82883159      -0.13620646      -0.44933103
C        0.67626677      -1.07564432      -0.23444213
H       -1.59504766      -1.71907099      -0.09846521
H       -1.41755092      -0.46141767      -1.41252784
H       -2.69405727      -0.62895801       0.94352621
H       -2.00119604      -0.43360071       1.98613091
H       -0.44197249       1.85451803      -0.97773220
H        0.01452200       2.26639707       0.64985379
H        2.26738802       1.93960885      -0.57177909
H        2.83916773      -0.50140857      -0.59435256
H        0.85580732      -1.75914782       0.59911546
H        0.61080031      -1.71784802      -1.11919589
17
Frame=12 idx=011291 GeodesicLength=1.1954686331895252 rxn_smarts="[C:1]([C:2]1([O:3][H:11])[C:4]([H:12])([H:13])[C:5]([H:14])=[C:6]([H:15])[C:7]1([H:16])[H:17])([H:8])([H:9])[H:10]>>[C:1]1([H:8])([H:9])[C:2](=[O:3])[C:4]([H:12])([H:13])[C:5]([H:14])=[C:6]([H:15])[C:7]1([H:16])[H:17].[H:10][H:11]"
C       -1.30780054      -0.70447486      -0.36114449
C       -0.49303411       0.21075981       0.45331136
O       -0.81544452       0.28982894       1.71041975
C        0.10621889       1.49204768      -0.11817966
C        1.53455057       1.15283926      -0.43542591
C        1.82534807      -0.14115459      -0.43840680
C        0.66330130      -1.07530607      -0.24587635
H       -1.59932595      -1.71649636      -0.10977246
H       -1.41830552      -0.45583918      -1.41679721
H       -2.68933510      -0.67259809       0.95931441
H       -1.95700692      -0.46746075       2.04674783
H       -0.42730955       1.85908692      -1.00083762
H        0.01140892       2.28531632       0.62602952
H        2.27872601       1.93200993      -0.55059328
H        2.83694965      -0.50890072      -0.56735134
H        0.83671419      -1.76628423       0.58347095
H        0.61434460      -1.71337403      -1.13490869
17
Frame=13 idx=011291 GeodesicLength=1.2941575452964291 rxn_smarts="[C:1]([C:2]1([O:3][H:11])[C:4]([H:12])([H:13])[C:5]([H:14])=[C:6]([H:15])[C:7]1([H:16])[H:17])([H:8])([H:9])[H:10]>>[C:1]1([H:8])([H:9])[C:2](=[O:3])[C:4]([H:12])([H:13])[C:5]([H:14])=[C:6]([H:15])[C:7]1([H:16])[H:17].[H:10][H:11]"
C       -1.31133538      -0.70051742      -0.36615168
C       -0.50376077       0.22891924       0.44488678
O       -0.84428444       0.32894951       1.69624421
C        0.10751697       1.50112144      -0.13139409
C        1.53808601       1.14967601      -0.42687369
C        1.82117511      -0.14628076      -0.42633137
C        0.64992136      -1.07509567      -0.25756999
H       -1.60426721      -1.71401590      -0.12187906
H       -1.41920468      -0.45044411      -1.42198709
H       -2.68337239      -0.71667768       0.97416509
H       -1.90345124      -0.49778829       2.10940904
H       -0.41225040       1.86330355      -1.02411539
H        0.00744379       2.30375767       0.60214809
H        2.28921807       1.92417539      -0.52772422
H        2.83374264      -0.51661598      -0.53940255
H        0.81674582      -1.77376601       0.56735722
H        0.61807675      -1.70870099      -1.15078130
17
Frame=14 idx=011291 GeodesicLength=1.3926376535052534 rxn_smarts="[C:1]([C:2]1([O:3][H:11])[C:4]([H:12])([H:13])[C:5]([H:14])=[C:6]([H:15])[C:7]1([H:16])[H:17])([H:8])([H:9])[H:10]>>[C:1]1([H:8])([H:9])[C:2](=[O:3])[C:4]([H:12])([H:13])[C:5]([H:14])=[C:6]([H:15])[C:7]1([H:16])[H:17].[H:10][H:11]"
C       -1.31527853      -0.69711861      -0.37212726
C       -0.51537016       0.24656575       0.43572988
O       -0.87652817       0.36716874       1.68008734
C        0.10825415       1.50978958      -0.14427551
C        1.54093316       1.14629497      -0.41660100
C        1.81627659      -0.15157890      -0.41319065
C        0.63624669      -1.07514008      -0.26971118
H       -1.60980162      -1.71193048      -0.13466874
H       -1.42017501      -0.44549996      -1.42814642
H       -2.67667705      -0.76087252       0.98739721
H       -1.83991496      -0.52222433       2.17419088
H       -0.39694289       1.86707971      -1.04717255
H        0.00247070       2.32139023       0.57867742
H        2.29864029       1.91617070      -0.50286639
H        2.82955159      -0.52443437      -0.51069522
H        0.79613822      -1.78182457       0.55044283
H        0.62217700      -1.70383586      -1.16707065
17
Frame=15 idx=011291 GeodesicLength=1.4908634489658714 rxn_smarts="[C:1]([C:2]1([O:3][H:11])[C:4]([H:12])([H:13])[C:5]([H:14])=[C:6]([H:15])[C:7]1([H:16])[H:17])([H:8])([H:9])[H:10]>>[C:1]1([H:8])([H:9])[C:2](=[O:3])[C:4]([H:12])([H:13])[C:5]([H:14])=[C:6]([H:15])[C:7]1([H:16])[H:17].[H:10][H:11]"
C       -1.31952985      -0.69457984      -0.37916520
C       -0.52790674       0.26336014       0.42589125
O       -0.91217286       0.40374792       1.66193068
C        0.10828285       1.51786113      -0.15650978
C        1.54289303       1.14264378      -0.40438589
C        1.81058409      -0.15707114      -0.39904197
C        0.62238792      -1.07556868      -0.28245058
H       -1.61584550      -1.71048675      -0.14806596
H       -1.42111942      -0.44121502      -1.43533165
H       -2.66991463      -0.80463090       0.99813531
H       -1.76537962      -0.53855263       2.24116373
H       -0.38156064       1.87035845      -1.06957571
H       -0.00370823       2.33785559       0.55611308
H        2.30669617       1.90801765      -0.47583762
H        2.82435470      -0.53227032      -0.48133234
H        0.77512240      -1.79069446       0.53242679
H        0.62681635      -1.69877491      -1.18396415
17
Frame=16 idx=011291 GeodesicLength=1.5888858072484189 rxn_smarts="[C:1]([C:2]1([O:3][H:11])[C:4]([H:12])([H:13])[C:5]([H:14])=[C:6]([H:15])[C:7]1([H:16])[H:17])([H:8])([H:9])[H:10]>>[C:1]1([H:8])([H:9])[C:2](=[O:3])[C:4]([H:12])([H:13])[C:5]([H:14])=[C:6]([H:15])[C:7]1([H:16])[H:17].[H:10][H:11]"
C       -1.32399360      -0.69327701      -0.38738856
C       -0.54141817       0.27888748       0.41544559
O       -0.95110013       0.43775135       1.64185737
C        0.10744017       1.52513793      -0.16772960
C        1.54376604       1.13868503      -0.39002022
C        1.80405991      -0.16277662      -0.38397893
C        0.60848266      -1.07654693      -0.29596668
H       -1.62233859      -1.71002711      -0.16200089
H       -1.42196235      -0.43783371      -1.44364011
H       -2.66417403      -0.84727846       1.00525827
H       -1.67858973      -0.54417225       2.31048338
H       -0.36634065       1.87313232      -1.09082977
H       -0.01129347       2.35275818       0.53506906
H        2.31310065       1.89977484      -0.44644788
H        2.81818347      -0.54001580      -0.45138449
H        0.75399312      -1.80067628       0.51297165
H        0.63218470      -1.69352295      -1.20169820
