14
Frame=0 idx=002235 GeodesicLength=0.0 rxn_smarts="[C:1]([C:2]#[C:3][C@@:4]([C:5]([H:11])([H:12])[H:13])([O:6][H:14])[H:10])([H:7])([H:8])[H:9]>>[C:1]([C:2](=[C:3]=[C:4]([C:5]([H:11])([H:12])[H:13])[H:10])[O:6][H:14])([H:7])([H:8])[H:9]"
C        2.32717960       0.17946068       0.37810895
C        0.98858836      -0.00584585      -0.20864730
C        0.26029428      -0.62620536      -1.09295088
C       -0.97353223       0.00825050      -0.68038963
C       -2.06036714      -0.76773539      -0.01030536
O       -0.16398393       0.86471410       0.58572164
H        3.01526882      -0.45761560      -0.17743364
H        2.35085208      -0.11068222       1.43024770
H        2.67581178       1.21235558       0.29528575
H       -1.33897810       0.82305107      -1.30933246
H       -1.64022789      -1.46825760       0.71056450
H       -2.78110273      -0.11353958       0.48040840
H       -2.57853863      -1.34328337      -0.78073980
H       -0.08126432       1.80533298       0.37946217
14
Frame=1 idx=002235 GeodesicLength=0.08317827953128143 rxn_smarts="[C:1]([C:2]#[C:3][C@@:4]([C:5]([H:11])([H:12])[H:13])([O:6][H:14])[H:10])([H:7])([H:8])[H:9]>>[C:1]([C:2](=[C:3]=[C:4]([C:5]([H:11])([H:12])[H:13])[H:10])[O:6][H:14])([H:7])([H:8])[H:9]"
C        2.34368197       0.17704248       0.37440168
C        0.99584396       0.00055169      -0.19289974
C        0.25572707      -0.60958014      -1.06998344
C       -0.98597918       0.01268905      -0.67551287
C       -2.07273156      -0.77623438      -0.01865690
O       -0.17298455       0.88440368       0.60169979
H        3.01955854      -0.47419955      -0.17971537
H        2.37569656      -0.10034374       1.42980253
H        2.70205403       1.20510561       0.27512839
H       -1.35295623       0.81605461      -1.31812369
H       -1.65446294      -1.47063716       0.70921687
H       -2.80565183      -0.12834885       0.46246744
H       -2.57699335      -1.35900367      -0.79284479
H       -0.07080249       1.82250037       0.39502008
14
Frame=2 idx=002235 GeodesicLength=0.16630538289218977 rxn_smarts="[C:1]([C:2]#[C:3][C@@:4]([C:5]([H:11])([H:12])[H:13])([O:6][H:14])[H:10])([H:7])([H:8])[H:9]>>[C:1]([C:2](=[C:3]=[C:4]([C:5]([H:11])([H:12])[H:13])[H:10])[O:6][H:14])([H:7])([H:8])[H:9]"
C        2.36016256       0.17440530       0.37049645
C        1.00312057       0.00732491      -0.17669744
C        0.25090912      -0.59224343      -1.04628228
C       -0.99872272       0.01739435      -0.67053527
C       -2.08496793      -0.78489272      -0.02720545
O       -0.18237184       0.90483733       0.61797635
H        3.02322618      -0.49137797      -0.18183235
H        2.40096392      -0.08972533       1.42904028
H        2.72834923       1.19716335       0.25410606
H       -1.36692051       0.80869161      -1.32727967
H       -1.66872098      -1.47288516       0.70790943
H       -2.83030216      -0.14366591       0.44386338
H       -2.57467743      -1.37507621      -0.80507143
H       -0.06004800       1.84004987       0.41151195
14
Frame=3 idx=002235 GeodesicLength=0.2493781833408188 rxn_smarts="[C:1]([C:2]#[C:3][C@@:4]([C:5]([H:11])([H:12])[H:13])([O:6][H:14])[H:10])([H:7])([H:8])[H:9]>>[C:1]([C:2](=[C:3]=[C:4]([C:5]([H:11])([H:12])[H:13])[H:10])[O:6][H:14])([H:7])([H:8])[H:9]"
C        2.37658844       0.17153085       0.36637979
C        1.01041507       0.01451503      -0.16003975
C        0.24582227      -0.57415214      -1.02180028
C       -1.01176821       0.02237845      -0.66545996
C       -2.09704556      -0.79370876      -0.03595103
O       -0.19216846       0.92606487       0.63455572
H        3.02620384      -0.50915448      -0.18377636
H        2.42666650      -0.07885307       1.42790788
H        2.75465008       1.18846383       0.23219388
H       -1.38082947       0.80092133      -1.33682917
H       -1.68299363      -1.47497608       0.70666021
H       -2.85502707      -0.15951757       0.42454786
H       -2.57151215      -1.39151011      -0.81739875
H       -0.04900167       1.85799785       0.42900997
14
Frame=4 idx=002235 GeodesicLength=0.33239329161400494 rxn_smarts="[C:1]([C:2]#[C:3][C@@:4]([C:5]([H:11])([H:12])[H:13])([O:6][H:14])[H:10])([H:7])([H:8])[H:9]>>[C:1]([C:2](=[C:3]=[C:4]([C:5]([H:11])([H:12])[H:13])[H:10])[O:6][H:14])([H:7])([H:8])[H:9]"
C        2.39293149       0.16840180       0.36203940
C        1.01772379       0.02216146      -0.14292843
C        0.24044889      -0.55528032      -0.99648547
C       -1.02511589       0.02764120      -0.66029781
C       -2.10893342      -0.80267995      -0.04488797
O       -0.20239846       0.94814758       0.65142455
H        3.02844611      -0.52749557      -0.18560102
H        2.45279791      -0.06781496       1.42636178
H        2.78091257       1.17897630       0.20943537
H       -1.39463113       0.79268553      -1.34681533
H       -1.69727331      -1.47687423       0.70550100
H       -2.87980646      -0.17591109       0.40448375
H       -2.56743661      -1.40832065      -0.82979403
H       -0.03766548       1.87636290       0.44756422
14
Frame=5 idx=002235 GeodesicLength=0.4153479501654875 rxn_smarts="[C:1]([C:2]#[C:3][C@@:4]([C:5]([H:11])([H:12])[H:13])([O:6][H:14])[H:10])([H:7])([H:8])[H:9]>>[C:1]([C:2](=[C:3]=[C:4]([C:5]([H:11])([H:12])[H:13])[H:10])[O:6][H:14])([H:7])([H:8])[H:9]"
C        2.40915050       0.16499641       0.35745377
C        1.02504123       0.03031030      -0.12536457
C        0.23476558      -0.53557406      -0.97028834
C       -1.03876935       0.03319760      -0.65505221
C       -2.12059372      -0.81180680      -0.05401751
O       -0.21308692       0.97114176       0.66859148
H        3.02986699      -0.54641577      -0.18728188
H        2.47936800      -0.05663011       1.42434089
H        2.80708062       1.16862831       0.18578480
H       -1.40826854       0.78393900      -1.35726560
H       -1.71154813      -1.47855467       0.70444782
H       -2.90460582      -0.19287905       0.38361886
H       -2.56235773      -1.42551350      -0.84223508
H       -0.02604273       1.89516057       0.46726758
14
Frame=6 idx=002235 GeodesicLength=0.49823281408924147 rxn_smarts="[C:1]([C:2]#[C:3][C@@:4]([C:5]([H:11])([H:12])[H:13])([O:6][H:14])[H:10])([H:7])([H:8])[H:9]>>[C:1]([C:2](=[C:3]=[C:4]([C:5]([H:11])([H:12])[H:13])[H:10])[O:6][H:14])([H:7])([H:8])[H:9]"
C        2.42519643       0.16129666       0.35259921
C        1.03236378       0.03901552      -0.10735686
C        0.22874851      -0.51498381      -0.94315636
C       -1.05272983       0.03906185      -0.64973131
C       -2.13198070      -0.82108641      -0.06334106
O       -0.22426270       0.99511046       0.68606029
H        3.03037106      -0.56591681      -0.18879360
H        2.50638189      -0.04532673       1.42177304
H        2.83306269       1.15732487       0.16119774
H       -1.42166604       0.77463619      -1.36820296
H       -1.72581180      -1.47998745       0.70351934
H       -2.92936530      -0.21045995       0.36188950
H       -2.55617276      -1.44309071      -0.85468252
H       -0.01413522       1.91440632       0.48822556
14
Frame=7 idx=002235 GeodesicLength=0.5810426479913594 rxn_smarts="[C:1]([C:2]#[C:3][C@@:4]([C:5]([H:11])([H:12])[H:13])([O:6][H:14])[H:10])([H:7])([H:8])[H:9]>>[C:1]([C:2](=[C:3]=[C:4]([C:5]([H:11])([H:12])[H:13])[H:10])[O:6][H:14])([H:7])([H:8])[H:9]"
C        2.44102046       0.15727659       0.34745590
C        1.03968423       0.04832290      -0.08891431
C        0.22236985      -0.49346632      -0.91503467
C       -1.06699421       0.04523723      -0.64435082
C       -2.14304756      -0.83051973      -0.07285587
O       -0.23595646       1.02012838       0.70381559
H        3.02988078      -0.58597930      -0.19016897
H        2.53382484      -0.03399081       1.41860137
H        2.85878862       1.14502908       0.13568998
H       -1.43474252       0.76471283      -1.37966507
H       -1.74005060      -1.48113333       0.70274592
H       -2.95404017      -0.22867043       0.33925468
H       -2.54879401      -1.46106213      -0.86709460
H       -0.00194325       1.93411503       0.51052087
14
Frame=8 idx=002235 GeodesicLength=0.6637686710167879 rxn_smarts="[C:1]([C:2]#[C:3][C@@:4]([C:5]([H:11])([H:12])[H:13])([O:6][H:14])[H:10])([H:7])([H:8])[H:9]>>[C:1]([C:2](=[C:3]=[C:4]([C:5]([H:11])([H:12])[H:13])[H:10])[O:6][H:14])([H:7])([H:8])[H:9]"
C        2.45656326       0.15291622       0.34198836
C        1.04699457       0.05828652      -0.07003982
C        0.21559891      -0.47096453      -0.88586054
C       -1.08155866       0.05174172      -0.63892134
C       -2.15374082      -0.84010238      -0.08256662
O       -0.24820528       1.04626463       0.72186794
H        3.02827794      -0.60662072      -0.19136181
H        2.56170642      -0.02262847       1.41473807
H        2.88413769       1.13163488       0.10917467
H       -1.44739200       0.75412265      -1.39166542
H       -1.75426709      -1.48195614       0.70214125
H       -2.97856336      -0.24756433       0.31563239
H       -2.54009189      -1.47942305      -0.87942723
H        0.01054030       1.95429299       0.53430009
14
Frame=9 idx=002235 GeodesicLength=0.7464141789678685 rxn_smarts="[C:1]([C:2]#[C:3][C@@:4]([C:5]([H:11])([H:12])[H:13])([O:6][H:14])[H:10])([H:7])([H:8])[H:9]>>[C:1]([C:2](=[C:3]=[C:4]([C:5]([H:11])([H:12])[H:13])[H:10])[O:6][H:14])([H:7])([H:8])[H:9]"
C        2.47174941       0.14823812       0.33613578
C        1.05429090       0.06883792      -0.05069021
C        0.20840619      -0.44758996      -0.85548936
C       -1.09638807       0.05850771      -0.63353937
C       -2.16404130      -0.84977864      -0.09249040
O       -0.26109218       1.07357642       0.74013887
H        3.02550799      -0.62767648      -0.19248697
H        2.59005244      -0.01130564       1.41006298
H        2.90890721       1.11721677       0.08165733
H       -1.45939095       0.74278806      -1.40421835
H       -1.76859684      -1.48233714       0.70176176
H       -3.00283535      -0.26706385       0.29086508
H       -2.52998310      -1.49817774      -0.89155388
H        0.02341364       1.97476443       0.55984674
14
Frame=10 idx=002235 GeodesicLength=0.8289665273354765 rxn_smarts="[C:1]([C:2]#[C:3][C@@:4]([C:5]([H:11])([H:12])[H:13])([O:6][H:14])[H:10])([H:7])([H:8])[H:9]>>[C:1]([C:2](=[C:3]=[C:4]([C:5]([H:11])([H:12])[H:13])[H:10])[O:6][H:14])([H:7])([H:8])[H:9]"
C        2.48651796       0.14315968       0.32991165
C        1.06154434       0.08014495      -0.03093430
C        0.20075192      -0.42312567      -0.82394195
C       -1.11149333       0.06559974      -0.62817630
C       -2.17385292      -0.85959103      -0.10258879
O       -0.27461688       1.10221608       0.75862653
H        3.02144085      -0.64924694      -0.19358662
H        2.61875756      -0.00022774       1.40456522
H        2.93313500       1.10166699       0.05321073
H       -1.47072588       0.73062170      -1.41739763
H       -1.78287752      -1.48225906       0.70165406
H       -3.02683535      -0.28727467       0.26497927
H       -2.51831925      -1.51737695      -0.90344657
H        0.03657352       1.99569292       0.58712470
14
Frame=11 idx=002235 GeodesicLength=0.9114164405926299 rxn_smarts="[C:1]([C:2]#[C:3][C@@:4]([C:5]([H:11])([H:12])[H:13])([O:6][H:14])[H:10])([H:7])([H:8])[H:9]>>[C:1]([C:2](=[C:3]=[C:4]([C:5]([H:11])([H:12])[H:13])[H:10])[O:6][H:14])([H:7])([H:8])[H:9]"
C        2.50077885       0.13766798       0.32325203
C        1.06874559       0.09226283      -0.01078451
C        0.19260133      -0.39749405      -0.79113592
C       -1.12685354       0.07303601      -0.62284890
C       -2.18309677      -0.86953253      -0.11287855
O       -0.28882852       1.13225466       0.77735369
H        3.01589078      -0.67139512      -0.19452506
H        2.64784780       0.01070572       1.39809974
H        2.95662820       1.08480398       0.02361869
H       -1.48121399       0.71759185      -1.43117259
H       -1.79714038      -1.48167573       0.70182284
H       -3.05045171      -0.30825170       0.23783233
H       -2.50490987      -1.53700717      -0.91504643
H        0.05000222       2.01703324       0.61641262
14
Frame=12 idx=002235 GeodesicLength=0.9937582146005349 rxn_smarts="[C:1]([C:2]#[C:3][C@@:4]([C:5]([H:11])([H:12])[H:13])([O:6][H:14])[H:10])([H:7])([H:8])[H:9]>>[C:1]([C:2](=[C:3]=[C:4]([C:5]([H:11])([H:12])[H:13])[H:10])[O:6][H:14])([H:7])([H:8])[H:9]"
C        2.51443110       0.13172853       0.31610582
C        1.07587171       0.10525107       0.00973788
C        0.18391314      -0.37061540      -0.75699743
C       -1.14244255       0.08082084      -0.61759392
C       -2.19168890      -0.87959299      -0.12335023
O       -0.30378170       1.16381026       0.79629033
H        3.00871174      -0.69411532      -0.19531786
H        2.67726970       0.02141069       1.39055478
H        2.97924969       1.06655186      -0.00716663
H       -1.49068231       0.70362414      -1.44556354
H       -1.81138380      -1.48050455       0.70231807
H       -3.07358550      -0.33003058       0.20931419
H       -2.48957409      -1.55708903      -0.92625508
H        0.06369177       2.03875048       0.64792359
14
Frame=13 idx=002235 GeodesicLength=1.075981400301443 rxn_smarts="[C:1]([C:2]#[C:3][C@@:4]([C:5]([H:11])([H:12])[H:13])([O:6][H:14])[H:10])([H:7])([H:8])[H:9]>>[C:1]([C:2](=[C:3]=[C:4]([C:5]([H:11])([H:12])[H:13])[H:10])[O:6][H:14])([H:7])([H:8])[H:9]"
C        2.52736525       0.12531083       0.30842901
C        1.08289614       0.11915826       0.03061721
C        0.17464695      -0.34242792      -0.72143676
C       -1.15822048       0.08894065      -0.61245978
C       -2.19953956      -0.88976071      -0.13399171
O       -0.31952969       1.19701868       0.81538432
H        2.99975869      -0.71737282      -0.19604256
H        2.70696493       0.03176457       1.38183113
H        3.00084726       1.04686508      -0.03915899
H       -1.49891482       0.68862257      -1.46058997
H       -1.82561304      -1.47865962       0.70319027
H       -3.09612128      -0.35262470       0.17933292
H       -2.47215078      -1.57762717      -0.93696424
H        0.07761042       2.06079230       0.68185916
14
Frame=14 idx=002235 GeodesicLength=1.1580645363138724 rxn_smarts="[C:1]([C:2]#[C:3][C@@:4]([C:5]([H:11])([H:12])[H:13])([O:6][H:14])[H:10])([H:7])([H:8])[H:9]>>[C:1]([C:2](=[C:3]=[C:4]([C:5]([H:11])([H:12])[H:13])[H:10])[O:6][H:14])([H:7])([H:8])[H:9]"
C        2.53945184       0.11836622       0.30018706
C        1.08978273       0.13406355       0.05177297
C        0.16475382      -0.31283068      -0.68441879
C       -1.17413629       0.09737974      -0.60753306
C       -2.20653359      -0.90001997      -0.14476039
O       -0.33611695       1.23208036       0.83449198
H        2.98885884      -0.74109557      -0.19685046
H        2.73680480       0.04147915       1.37185531
H        3.02127281       1.02574032      -0.07221874
H       -1.50571118       0.67246477      -1.47629805
H       -1.83978250      -1.47602015       0.70451172
H       -3.11789099      -0.37607094       0.14783987
H       -2.45246238      -1.59864249      -0.94698485
H        0.09170905       2.08310568       0.71840542
14
Frame=15 idx=002235 GeodesicLength=1.2400164990462788 rxn_smarts="[C:1]([C:2]#[C:3][C@@:4]([C:5]([H:11])([H:12])[H:13])([O:6][H:14])[H:10])([H:7])([H:8])[H:9]>>[C:1]([C:2](=[C:3]=[C:4]([C:5]([H:11])([H:12])[H:13])[H:10])[O:6][H:14])([H:7])([H:8])[H:9]"
C        2.55054890       0.11088802       0.29126168
C        1.09650854       0.14998238       0.07324468
C        0.15418627      -0.28176873      -0.64577616
C       -1.19010333       0.10613615      -0.60284205
C       -2.21257390      -0.91034244      -0.15569086
O       -0.35360762       1.26910635       0.85364393
H        2.97578431      -0.76537346      -0.19754910
H        2.76682194       0.05078449       1.36038238
H        3.04020895       1.00298082      -0.10675432
H       -1.51070741       0.65510638      -1.49262823
H       -1.85401278      -1.47248712       0.70629219
H       -3.13874334      -0.40040013       0.11458488
H       -2.43025387      -1.62010382      -0.95622434
H        0.10594334       2.10549110       0.75805532
14
Frame=16 idx=002235 GeodesicLength=1.321840624022065 rxn_smarts="[C:1]([C:2]#[C:3][C@@:4]([C:5]([H:11])([H:12])[H:13])([O:6][H:14])[H:10])([H:7])([H:8])[H:9]>>[C:1]([C:2](=[C:3]=[C:4]([C:5]([H:11])([H:12])[H:13])[H:10])[O:6][H:14])([H:7])([H:8])[H:9]"
C        2.56049996       0.10284989       0.28156065
C        1.10301486       0.16693995       0.09503147
C        0.14288550      -0.24916060      -0.60539511
C       -1.20602683       0.11518941      -0.59847339
C       -2.21753785      -0.92069532      -0.16678200
O       -0.37208199       1.30831762       0.87271865
H        2.96030322      -0.79020793      -0.19814723
H        2.79696977       0.05965757       1.34724781
H        3.05739094       0.97849193      -0.14294786
H       -1.51355101       0.63644830      -1.50956994
H       -1.86836779      -1.46789922       0.70858712
H       -3.15848407      -0.42564067       0.07937170
H       -2.40527305      -1.64202029      -0.96448017
H        0.12025834       2.12772936       0.80127829
