14
Frame=0 idx=003364 GeodesicLength=0.0 rxn_smarts="[O:1]([C:2]([C@@:3]1([H:10])[C:4]([H:11])([H:12])[C@:5]1([O:6][H:14])[H:13])([H:8])[H:9])[H:7]>>[C:3]1([H:10])=[C:5]([H:13])[C:4]1([H:11])[H:12].[O:1]=[C:2]([H:8])[H:9].[O:6]([H:7])[H:14]"
O        1.55532615      -1.34828381      -0.52580314
C        1.34474184      -0.15122956      -0.83949747
C        0.45030747       0.76137372       0.61671262
C       -0.90458002       1.26377114       0.15504897
C       -0.66258638       0.11462241       1.02457359
O       -0.84613071      -1.80108996       0.11972605
H        0.11919678      -1.82587218      -0.19631149
H        0.53167814       0.09712656      -1.54880953
H        2.20164144       0.53439564      -0.92502674
H        1.24410459       1.17566965       1.21841684
H       -1.11407170       1.11150869      -0.90525388
H       -1.41804257       2.12353280       0.58078002
H       -1.10798655      -0.34156932       1.88858351
H       -1.39359850      -1.71395573      -0.66313934
14
Frame=1 idx=003364 GeodesicLength=0.0920789015221353 rxn_smarts="[O:1]([C:2]([C@@:3]1([H:10])[C:4]([H:11])([H:12])[C@:5]1([O:6][H:14])[H:13])([H:8])[H:9])[H:7]>>[C:3]1([H:10])=[C:5]([H:13])[C:4]1([H:11])[H:12].[O:1]=[C:2]([H:8])[H:9].[O:6]([H:7])[H:14]"
O        1.55960502      -1.35470953      -0.53246231
C        1.34813874      -0.15287203      -0.84025518
C        0.44580718       0.76908199       0.61941600
C       -0.90594317       1.27725300       0.15757954
C       -0.67007337       0.11358636       1.01279115
O       -0.84029760      -1.80068162       0.12308450
H        0.14046626      -1.83582358      -0.20598593
H        0.53673300       0.08796455      -1.55359267
H        2.20705141       0.52885481      -0.93167826
H        1.23357239       1.18151119       1.23038792
H       -1.11446697       1.13770708      -0.90438054
H       -1.41583608       2.13408919       0.59294926
H       -1.11340194      -0.34432496       1.87732440
H       -1.41135486      -1.74163645      -0.64517788
14
Frame=2 idx=003364 GeodesicLength=0.18411888706376756 rxn_smarts="[O:1]([C:2]([C@@:3]1([H:10])[C:4]([H:11])([H:12])[C@:5]1([O:6][H:14])[H:13])([H:8])[H:9])[H:7]>>[C:3]1([H:10])=[C:5]([H:13])[C:4]1([H:11])[H:12].[O:1]=[C:2]([H:8])[H:9].[O:6]([H:7])[H:14]"
O        1.56428655      -1.36110425      -0.53937596
C        1.35157927      -0.15451905      -0.84108003
C        0.44122245       0.77671793       0.62216344
C       -0.90726156       1.29092958       0.16016745
C       -0.67771435       0.11268588       1.00052914
O       -0.83478410      -1.80000345       0.12590028
H        0.16215724      -1.84595057      -0.21555896
H        0.54190134       0.07871558      -1.55845097
H        2.21234395       0.52342284      -0.93858887
H        1.22275812       1.18692449       1.24269351
H       -1.11458417       1.16455006      -0.90339187
H       -1.41364361       2.14459515       0.60532580
H       -1.11905987      -0.34689044       1.86557868
H       -1.42920127      -1.77007377      -0.62591163
14
Frame=3 idx=003364 GeodesicLength=0.2761076801801948 rxn_smarts="[O:1]([C:2]([C@@:3]1([H:10])[C:4]([H:11])([H:12])[C@:5]1([O:6][H:14])[H:13])([H:8])[H:9])[H:7]>>[C:3]1([H:10])=[C:5]([H:13])[C:4]1([H:11])[H:12].[O:1]=[C:2]([H:8])[H:9].[O:6]([H:7])[H:14]"
O        1.56938164      -1.36746458      -0.54652614
C        1.35507370      -0.15617461      -0.84197023
C        0.43655407       0.78428490       0.62495309
C       -0.90854003       1.30478084       0.16281406
C       -0.68549349       0.11192355       0.98778012
O       -0.82964809      -1.79901484       0.12808380
H        0.18429405      -1.85626172      -0.22502474
H        0.54720455       0.06937745      -1.56339129
H        2.21752715       0.51809662      -0.94575973
H        1.21164846       1.19191647       1.25532408
H       -1.11441554       1.19201801      -0.90227173
H       -1.41148827       2.15501641       0.61790403
H       -1.12494583      -0.34928598       1.85332734
H       -1.44715237      -1.79921252      -0.60524267
14
Frame=4 idx=003364 GeodesicLength=0.36803485504404354 rxn_smarts="[O:1]([C:2]([C@@:3]1([H:10])[C:4]([H:11])([H:12])[C@:5]1([O:6][H:14])[H:13])([H:8])[H:9])[H:7]>>[C:3]1([H:10])=[C:5]([H:13])[C:4]1([H:11])[H:12].[O:1]=[C:2]([H:8])[H:9].[O:6]([H:7])[H:14]"
O        1.57490078      -1.37378692      -0.55389430
C        1.35863342      -0.15784246      -0.84292367
C        0.43180312       0.79178653       0.62778296
C       -0.90978402       1.31878598       0.16552093
C       -0.69339334       0.11130264       0.97453827
O       -0.82495456      -1.79766994       0.12953109
H        0.20690023      -1.86676412      -0.23437678
H        0.55266660       0.05994951      -1.56842116
H        2.22261125       0.51287201      -0.95318953
H        1.20023035       1.19649505       1.26826840
H       -1.11395618       1.22008713      -0.90100231
H       -1.40939400       2.16531814       0.63067811
H       -1.13104309      -0.35153466       1.84055116
H       -1.46522056      -1.82899888      -0.58306316
14
Frame=5 idx=003364 GeodesicLength=0.4598844637776397 rxn_smarts="[O:1]([C:2]([C@@:3]1([H:10])[C:4]([H:11])([H:12])[C@:5]1([O:6][H:14])[H:13])([H:8])[H:9])[H:7]>>[C:3]1([H:10])=[C:5]([H:13])[C:4]1([H:11])[H:12].[O:1]=[C:2]([H:8])[H:9].[O:6]([H:7])[H:14]"
O        1.58085351      -1.38006879      -0.56145702
C        1.36227443      -0.15952645      -0.84393509
C        0.42697221       0.79922893       0.63064974
C       -0.91100216       1.33291566       0.16828817
C       -0.70138815       0.11082399       0.96080366
O       -0.82077798      -1.79591808       0.13011592
H        0.22999356      -1.87746116      -0.24361665
H        0.55832008       0.05043383      -1.57354801
H        2.22761360       0.50774183      -0.96086856
H        1.18849021       1.20067912       1.28150998
H       -1.11320794       1.24871684      -0.89956515
H       -1.40739245       2.17545726       0.64363566
H       -1.13732154      -0.35366928       1.82723469
H       -1.48342739      -1.85935371      -0.55924734
14
Frame=6 idx=003364 GeodesicLength=0.5516443633722394 rxn_smarts="[O:1]([C:2]([C@@:3]1([H:10])[C:4]([H:11])([H:12])[C@:5]1([O:6][H:14])[H:13])([H:8])[H:9])[H:7]>>[C:3]1([H:10])=[C:5]([H:13])[C:4]1([H:11])[H:12].[O:1]=[C:2]([H:8])[H:9].[O:6]([H:7])[H:14]"
O        1.58724617      -1.38630876      -0.56919138
C        1.36601237      -0.16123150      -0.84499954
C        0.42206394       0.80661835       0.63354991
C       -0.91220417       1.34714153       0.17111738
C       -0.70945192       0.11049012       0.94657909
O       -0.81720632      -1.79369967       0.12969107
H        0.25359033      -1.88835505      -0.25273508
H        0.56419891       0.04083436      -1.57878042
H        2.23255325       0.50269523      -0.96878603
H        1.17641588       1.20448871       1.29502905
H       -1.11217691       1.27786494      -0.89793958
H       -1.40551600       2.18539148       0.65676689
H       -1.14374771      -0.35572612       1.81336376
H       -1.50177783      -1.89020363      -0.53366512
14
Frame=7 idx=003364 GeodesicLength=0.6432980536492668 rxn_smarts="[O:1]([C:2]([C@@:3]1([H:10])[C:4]([H:11])([H:12])[C@:5]1([O:6][H:14])[H:13])([H:8])[H:9])[H:7]>>[C:3]1([H:10])=[C:5]([H:13])[C:4]1([H:11])[H:12].[O:1]=[C:2]([H:8])[H:9].[O:6]([H:7])[H:14]"
O        1.59408223      -1.39250753      -0.57707021
C        1.36986691      -0.16296333      -0.84610950
C        0.41708246       0.81396373       0.63647857
C       -0.91340379       1.36142773       0.17400928
C       -0.71755138       0.11030098       0.93187441
O       -0.81434329      -1.79094812       0.12807900
H        0.27769959      -1.89944462      -0.26172213
H        0.57034519       0.03115822      -1.58412804
H        2.23745716       0.49771675      -0.97692355
H        1.16399632       1.20795543       1.30880027
H       -1.11087873       1.30747347      -0.89610485
H       -1.40380454       2.19507145       0.67005745
H       -1.15027317      -0.35775369       1.79892973
H       -1.52027496      -1.92145048      -0.50617044
14
Frame=8 idx=003364 GeodesicLength=0.7348371076646512 rxn_smarts="[O:1]([C:2]([C@@:3]1([H:10])[C:4]([H:11])([H:12])[C@:5]1([O:6][H:14])[H:13])([H:8])[H:9])[H:7]>>[C:3]1([H:10])=[C:5]([H:13])[C:4]1([H:11])[H:12].[O:1]=[C:2]([H:8])[H:9].[O:6]([H:7])[H:14]"
O        1.60136067      -1.39866904      -0.58506397
C        1.37385782      -0.16472579      -0.84725782
C        0.41203516       0.82127466       0.63943038
C       -0.91461647       1.37574313       0.17696304
C       -0.72565414       0.11025371       0.91670237
O       -0.81231520      -1.78759629       0.12507599
H        0.30232527      -1.91073221      -0.27054505
H        0.57679940       0.02142011      -1.58960472
H        2.24235809       0.49279364      -0.98526275
H        1.15123018       1.21111217       1.32279684
H       -1.10933730       1.33749187      -0.89404440
H       -1.40229759       2.20445251       0.68349286
H       -1.15684528      -0.35981588       1.78392685
H       -1.53890059      -1.95300258      -0.47660963
14
Frame=9 idx=003364 GeodesicLength=0.8262151746814292 rxn_smarts="[O:1]([C:2]([C@@:3]1([H:10])[C:4]([H:11])([H:12])[C@:5]1([O:6][H:14])[H:13])([H:8])[H:9])[H:7]>>[C:3]1([H:10])=[C:5]([H:13])[C:4]1([H:11])[H:12].[O:1]=[C:2]([H:8])[H:9].[O:6]([H:7])[H:14]"
O        1.60906096      -1.40480518      -0.59314441
C        1.37800051      -0.16654145      -0.84842556
C        0.40691561       0.82856059       0.64239465
C       -0.91586616       1.39002476       0.17998588
C       -0.73370835       0.11034941       0.90108890
O       -0.81124602      -1.78354774       0.12043608
H        0.32746001      -1.92218873      -0.27921387
H        0.58362301       0.01162007      -1.59520671
H        2.24727845       0.48787065      -0.99375730
H        1.13808332       1.21401461       1.33696716
H       -1.10758580       1.36780514      -0.89171954
H       -1.40105324       2.21346198       0.69705439
H       -1.16336864      -0.36196583       1.76835016
H       -1.55759365      -1.98465828      -0.44480982
14
Frame=10 idx=003364 GeodesicLength=0.9174353263522426 rxn_smarts="[O:1]([C:2]([C@@:3]1([H:10])[C:4]([H:11])([H:12])[C@:5]1([O:6][H:14])[H:13])([H:8])[H:9])[H:7]>>[C:3]1([H:10])=[C:5]([H:13])[C:4]1([H:11])[H:12].[O:1]=[C:2]([H:8])[H:9].[O:6]([H:7])[H:14]"
O        1.61716907      -1.41092611      -0.60128754
C        1.38231518      -0.16840898      -0.84960994
C        0.40173602       0.83583078       0.64536561
C       -0.91716891       1.40425893       0.18307411
C       -0.74169062       0.11058253       0.88504439
O       -0.81131141      -1.77872481       0.11388444
H        0.35308681      -1.93381938      -0.28765293
H        0.59085578       0.00179496      -1.60096078
H        2.25226637       0.48293870      -1.00238396
H        1.12457238       1.21668474       1.35128999
H       -1.10566142       1.39838946      -0.88912287
H       -1.40010390       2.22207202       0.71073246
H       -1.16979546      -0.36429643       1.75218846
H       -1.57626991      -2.01637641      -0.41056145
14
Frame=11 idx=003364 GeodesicLength=1.0084849866101684 rxn_smarts="[O:1]([C:2]([C@@:3]1([H:10])[C:4]([H:11])([H:12])[C@:5]1([O:6][H:14])[H:13])([H:8])[H:9])[H:7]>>[C:3]1([H:10])=[C:5]([H:13])[C:4]1([H:11])[H:12].[O:1]=[C:2]([H:8])[H:9].[O:6]([H:7])[H:14]"
O        1.62565372      -1.41705313      -0.60947838
C        1.38682837      -0.17034480      -0.85079954
C        0.39649742       0.84309790       0.64833492
C       -0.91855342       1.41840204       0.18623062
C       -0.74956229       0.11095080       0.86859009
O       -0.81270181      -1.77301219       0.10507241
H        0.37916475      -1.94559752      -0.29584199
H        0.59856926      -0.00802619      -1.60688668
H        2.25738030       0.47794401      -1.01108401
H        1.11068490       1.21917031       1.36573176
H       -1.10361630       1.42915750      -0.88623162
H       -1.39950886       2.23022822       0.72451519
H       -1.17603775      -0.36689817       1.73543083
H       -1.59479829      -2.04801878      -0.37358359
14
Frame=12 idx=003364 GeodesicLength=1.099316152054277 rxn_smarts="[O:1]([C:2]([C@@:3]1([H:10])[C:4]([H:11])([H:12])[C@:5]1([O:6][H:14])[H:13])([H:8])[H:9])[H:7]>>[C:3]1([H:10])=[C:5]([H:13])[C:4]1([H:11])[H:12].[O:1]=[C:2]([H:8])[H:9].[O:6]([H:7])[H:14]"
O        1.63442896      -1.42320803      -0.61771044
C        1.39153038      -0.17236125      -0.85198807
C        0.39119190       0.85035402       0.65129075
C       -0.92002736       1.43244450       0.18945717
C       -0.75731393       0.11145612       0.85172170
O       -0.81564865      -1.76627846       0.09363403
H        0.40561864      -1.95748094      -0.30368336
H        0.60680371      -0.01778869      -1.61300593
H        2.26264649       0.47283198      -1.01980982
H        1.09640933       1.22145751       1.38025835
H       -1.10147185       1.46009919      -0.88302572
H       -1.39927894       2.23790074       0.73840398
H       -1.18204434      -0.36986792       1.71803358
H       -1.61284435      -2.07955876      -0.33357622
14
Frame=13 idx=003364 GeodesicLength=1.1899168851016757 rxn_smarts="[O:1]([C:2]([C@@:3]1([H:10])[C:4]([H:11])([H:12])[C@:5]1([O:6][H:14])[H:13])([H:8])[H:9])[H:7]>>[C:3]1([H:10])=[C:5]([H:13])[C:4]1([H:11])[H:12].[O:1]=[C:2]([H:8])[H:9].[O:6]([H:7])[H:14]"
O        1.64339522      -1.42945647      -0.62597170
C        1.39644483      -0.17449273      -0.85314552
C        0.38581546       0.85762017       0.65422284
C       -0.92163785       1.44633484       0.19275547
C       -0.76489919       0.11209142       0.83447045
O       -0.82042628      -1.75838033       0.07910919
H        0.43229830      -1.96942527      -0.31122938
H        0.61565370      -0.02743289      -1.61933758
H        2.26815682       0.46749762      -1.02843554
H        1.08172948       1.22362407       1.39482702
H       -1.09931363       1.49109853      -0.87948266
H       -1.39950136       2.24503480       0.75237533
H       -1.18767425      -0.37332836       1.69998472
H       -1.63004124      -2.11078541      -0.29014265
14
Frame=14 idx=003364 GeodesicLength=1.2802877610180317 rxn_smarts="[O:1]([C:2]([C@@:3]1([H:10])[C:4]([H:11])([H:12])[C@:5]1([O:6][H:14])[H:13])([H:8])[H:9])[H:7]>>[C:3]1([H:10])=[C:5]([H:13])[C:4]1([H:11])[H:12].[O:1]=[C:2]([H:8])[H:9].[O:6]([H:7])[H:14]"
O        1.65237800      -1.43585418      -0.63428024
C        1.40158889      -0.17675427      -0.85426738
C        0.38036588       0.86489287       0.65712429
C       -0.92340613       1.46007300       0.19611673
C       -0.77233618       0.11285898       0.81683600
O       -0.82745420      -1.74908900       0.06093727
H        0.45894073      -1.98134563      -0.31846757
H        0.62521680      -0.03681651      -1.62595152
H        2.27405080       0.46182938      -1.03683354
H        1.06665689       1.22566392       1.40942423
H       -1.09719004       1.52215333      -0.87561639
H       -1.40020487       2.25160109       0.76643220
H       -1.19289194      -0.37742954       1.68124445
H       -1.64571462      -2.14178345      -0.24269852
14
Frame=15 idx=003364 GeodesicLength=1.3703926455477469 rxn_smarts="[O:1]([C:2]([C@@:3]1([H:10])[C:4]([H:11])([H:12])[C@:5]1([O:6][H:14])[H:13])([H:8])[H:9])[H:7]>>[C:3]1([H:10])=[C:5]([H:13])[C:4]1([H:11])[H:12].[O:1]=[C:2]([H:8])[H:9].[O:6]([H:7])[H:14]"
O        1.66109236      -1.44257295      -0.64264261
C        1.40694405      -0.17923544      -0.85527922
C        0.37480200       0.87219671       0.65995957
C       -0.92539128       1.47365846       0.19955341
C       -0.77958988       0.11377883       0.79879487
O       -0.83721057      -1.73811174       0.03836793
H        0.48514115      -1.99317508      -0.32559812
H        0.63561816      -0.04580049      -1.63282365
H        2.28044090       0.45557063      -1.04470974
H        1.05111933       1.22763715       1.42396219
H       -1.09521415       1.55320311      -0.87134770
H       -1.40148515       2.25759938       0.78056720
H       -1.19751231      -0.38232092       1.66167974
H       -1.65875462      -2.17242764      -0.19048387
14
Frame=16 idx=003364 GeodesicLength=1.4600669206342738 rxn_smarts="[O:1]([C:2]([C@@:3]1([H:10])[C:4]([H:11])([H:12])[C@:5]1([O:6][H:14])[H:13])([H:8])[H:9])[H:7]>>[C:3]1([H:10])=[C:5]([H:13])[C:4]1([H:11])[H:12].[O:1]=[C:2]([H:8])[H:9].[O:6]([H:7])[H:14]"
O        1.66907758      -1.44971241      -0.65104927
C        1.41234432      -0.18205589      -0.85618418
C        0.36904645       0.87945457       0.66274045
C       -0.92758326       1.48705913       0.20308727
C       -0.78675894       0.11489280       0.78038142
O       -0.85025947      -1.72516749       0.01115167
H        0.51033291      -2.00472554      -0.33253540
H        0.64680074      -0.05436188      -1.64002008
H        2.28729569       0.44841640      -1.05196758
H        1.03506060       1.22945844       1.43841766
H       -1.09337419       1.58421409      -0.86668333
H       -1.40325249       2.26296945       0.79482643
H       -1.20159576      -0.38798332       1.64132937
H       -1.66713416      -2.20245834      -0.13349443
