12
Frame=0 idx=010075 GeodesicLength=0.0 rxn_smarts="[N:1]([C:2](=[O:3])[C:4]([O:5][C:6](=[O:7])[H:12])([H:10])[H:11])([H:8])[H:9]>>[N:1](/[C:2]([O:3][H:11])=[C:4](\[O:5][C:6](=[O:7])[H:12])[H:10])([H:8])[H:9]"
N       -1.09575483      -1.17781067       0.14882577
C       -0.65001843      -0.17368794       0.87221453
O       -1.05506873       0.05194014       2.07169186
C        0.35540728       0.84707700       0.60858360
O        1.47985895       0.57145828      -0.23538378
C        1.30114271       0.21872494      -1.49343254
O        0.25284353      -0.03566234      -2.03007088
H       -0.89194206      -1.17120039      -0.84064409
H       -1.72926503      -1.84694541       0.55011808
H       -0.13353843       1.77138414       0.29624268
H       -0.10448004       0.77680765       2.05826706
H        2.27081508       0.16791460      -2.00641233
12
Frame=1 idx=010075 GeodesicLength=0.050455885436673745 rxn_smarts="[N:1]([C:2](=[O:3])[C:4]([O:5][C:6](=[O:7])[H:12])([H:10])[H:11])([H:8])[H:9]>>[N:1](/[C:2]([O:3][H:11])=[C:4](\[O:5][C:6](=[O:7])[H:12])[H:10])([H:8])[H:9]"
N       -1.07646972      -1.19394558       0.15775218
C       -0.67471995      -0.15444658       0.86149924
O       -1.07413165       0.06473897       2.06421447
C        0.35182796       0.84440650       0.60636888
O        1.47422193       0.55416595      -0.23356465
C        1.29291828       0.23395596      -1.50107278
O        0.24283486      -0.00872714      -2.03857283
H       -0.85243031      -1.20842389      -0.82695380
H       -1.74233601      -1.83804117       0.54776803
H       -0.11548838       1.78183030       0.30076395
H       -0.09038140       0.76403113       2.06997423
H        2.26415438       0.16045556      -2.00817693
12
Frame=2 idx=010075 GeodesicLength=0.10081891475877373 rxn_smarts="[N:1]([C:2](=[O:3])[C:4]([O:5][C:6](=[O:7])[H:12])([H:10])[H:11])([H:8])[H:9]>>[N:1](/[C:2]([O:3][H:11])=[C:4](\[O:5][C:6](=[O:7])[H:12])[H:10])([H:8])[H:9]"
N       -1.05883922      -1.20781113       0.16768300
C       -0.69750066      -0.13670141       0.85113861
O       -1.09276322       0.07769321       2.05638808
C        0.34811596       0.84160912       0.60400729
O        1.46822816       0.53783279      -0.23237731
C        1.28524303       0.24777516      -1.50807131
O        0.23364045       0.01511580      -2.04600274
H       -0.81337548      -1.24295009      -0.81110649
H       -1.75481037      -1.82858186       0.54306750
H       -0.09844187       1.79090119       0.30473037
H       -0.07666278       0.75006683       2.08112721
H        2.25716600       0.15505040      -2.01058421
12
Frame=3 idx=010075 GeodesicLength=0.151195967112412 rxn_smarts="[N:1]([C:2](=[O:3])[C:4]([O:5][C:6](=[O:7])[H:12])([H:10])[H:11])([H:8])[H:9]>>[N:1](/[C:2]([O:3][H:11])=[C:4](\[O:5][C:6](=[O:7])[H:12])[H:10])([H:8])[H:9]"
N       -1.04291014      -1.21966653       0.17815603
C       -0.71814760      -0.12062862       0.84141867
O       -1.11049344       0.09036880       2.04864082
C        0.34424781       0.83887046       0.60151602
O        1.46197994       0.52264916      -0.23171280
C        1.27814584       0.26004708      -1.51444248
O        0.22523406       0.03672455      -2.05278251
H       -0.77566229      -1.27437988      -0.79376888
H       -1.76632256      -1.81909372       0.53646947
H       -0.08278652       1.79866535       0.30793266
H       -0.06352128       0.73565543       2.09180121
H        2.25023618       0.15078793      -2.01322821
12
Frame=4 idx=010075 GeodesicLength=0.2015906647660362 rxn_smarts="[N:1]([C:2](=[O:3])[C:4]([O:5][C:6](=[O:7])[H:12])([H:10])[H:11])([H:8])[H:9]>>[N:1](/[C:2]([O:3][H:11])=[C:4](\[O:5][C:6](=[O:7])[H:12])[H:10])([H:8])[H:9]"
N       -1.02874993      -1.23003866       0.18929526
C       -0.73696269      -0.10609480       0.83239991
O       -1.12731138       0.10291518       2.04111631
C        0.34042995       0.83587423       0.59887689
O        1.45574749       0.50768027      -0.23131162
C        1.27173044       0.27006726      -1.52012681
O        0.21772303       0.05560630      -2.05900782
H       -0.73924669      -1.30367037      -0.77476600
H       -1.77811361      -1.80889218       0.52816700
H       -0.06806369       1.80494572       0.31009747
H       -0.05089069       0.72116874       2.10201489
H        2.24370776       0.15043831      -2.01675549
12
Frame=5 idx=010075 GeodesicLength=0.25166653600362987 rxn_smarts="[N:1]([C:2](=[O:3])[C:4]([O:5][C:6](=[O:7])[H:12])([H:10])[H:11])([H:8])[H:9]>>[N:1](/[C:2]([O:3][H:11])=[C:4](\[O:5][C:6](=[O:7])[H:12])[H:10])([H:8])[H:9]"
N       -1.01579045      -1.23885112       0.20034322
C       -0.75412189      -0.09277274       0.82390212
O       -1.14287042       0.11470134       2.03384059
C        0.33632555       0.83315384       0.59607974
O        1.44916280       0.49384692      -0.23119637
C        1.26560583       0.27888385      -1.52519609
O        0.21071049       0.07396541      -2.06493867
H       -0.70490182      -1.32968407      -0.75527285
H       -1.78780366      -1.79950904       0.51879301
H       -0.05480698       1.81041222       0.31152942
H       -0.03882652       0.70681028       2.11171735
H        2.23731706       0.14904312      -2.01960148
12
Frame=6 idx=010075 GeodesicLength=0.30181629700858215 rxn_smarts="[N:1]([C:2](=[O:3])[C:4]([O:5][C:6](=[O:7])[H:12])([H:10])[H:11])([H:8])[H:9]>>[N:1](/[C:2]([O:3][H:11])=[C:4](\[O:5][C:6](=[O:7])[H:12])[H:10])([H:8])[H:9]"
N       -1.00414193      -1.24665629       0.21163580
C       -0.76997374      -0.08056222       0.81599632
O       -1.15746656       0.12604269       2.02699112
C        0.33217328       0.83040698       0.59316294
O        1.44255564       0.48036560      -0.23123813
C        1.25993947       0.28605905      -1.52980992
O        0.20431871       0.09097890      -2.07072066
H       -0.67206630      -1.35380627      -0.73487168
H       -1.79713822      -1.79003056       0.50831701
H       -0.04246668       1.81492374       0.31212855
H       -0.02716800       0.69273894       2.12113314
H        2.23143434       0.14953945      -2.02272450
12
Frame=7 idx=010075 GeodesicLength=0.35201026761327436 rxn_smarts="[N:1]([C:2](=[O:3])[C:4]([O:5][C:6](=[O:7])[H:12])([H:10])[H:11])([H:8])[H:9]>>[N:1](/[C:2]([O:3][H:11])=[C:4](\[O:5][C:6](=[O:7])[H:12])[H:10])([H:8])[H:9]"
N       -0.99344331      -1.25351878       0.22289112
C       -0.78480530      -0.06916191       0.80848097
O       -1.17124211       0.13687116       2.02045125
C        0.32787159       0.82785407       0.59017060
O        1.43580203       0.46759052      -0.23146615
C        1.25451608       0.29229478      -1.53410663
O        0.19827703       0.10770196      -2.07643977
H       -0.64058376      -1.37597171      -0.71395416
H       -1.80527474      -1.78106105       0.49703499
H       -0.03104458       1.81889790       0.31222874
H       -0.01587454       0.67883099       2.13030834
H        2.22580163       0.14967208      -2.02559929
12
Frame=8 idx=010075 GeodesicLength=0.4022547465011818 rxn_smarts="[N:1]([C:2](=[O:3])[C:4]([O:5][C:6](=[O:7])[H:12])([H:10])[H:11])([H:8])[H:9]>>[N:1](/[C:2]([O:3][H:11])=[C:4](\[O:5][C:6](=[O:7])[H:12])[H:10])([H:8])[H:9]"
N       -0.98360574      -1.25966893       0.23424669
C       -0.79877860      -0.05846360       0.80131320
O       -1.18431030       0.14731808       2.01418361
C        0.32349349       0.82538735       0.58711121
O        1.42894840       0.45525397      -0.23185239
C        1.24926826       0.29757067      -1.53813945
O        0.19252337       0.12394800      -2.08205504
H       -0.60995993      -1.39681657      -0.69221412
H       -1.81281971      -1.77214148       0.48473638
H       -0.02031226       1.82234368       0.31186891
H       -0.00483640       0.66505336       2.13927252
H        2.22038941       0.15021547      -2.02847152
12
Frame=9 idx=010075 GeodesicLength=0.45249068128910264 rxn_smarts="[N:1]([C:2](=[O:3])[C:4]([O:5][C:6](=[O:7])[H:12])([H:10])[H:11])([H:8])[H:9]>>[N:1](/[C:2]([O:3][H:11])=[C:4](\[O:5][C:6](=[O:7])[H:12])[H:10])([H:8])[H:9]"
N       -0.97441549      -1.26510606       0.24554729
C       -0.81205985      -0.04829333       0.79435275
O       -1.19680065       0.15739335       2.00805711
C        0.31899317       0.82308235       0.58400660
O        1.42192916       0.44349009      -0.23237946
C        1.24407905       0.30220325      -1.54194715
O        0.18692242       0.14030729      -2.08759220
H       -0.58011679      -1.41625780      -0.66986327
H       -1.81925691      -1.76361136       0.47165917
H       -0.01021288       1.82544428       0.31121142
H        0.00594498       0.65130079       2.14803267
H        2.21499381       0.15004714      -2.03108494
12
Frame=10 idx=010075 GeodesicLength=0.5026889635953913 rxn_smarts="[N:1]([C:2](=[O:3])[C:4]([O:5][C:6](=[O:7])[H:12])([H:10])[H:11])([H:8])[H:9]>>[N:1](/[C:2]([O:3][H:11])=[C:4](\[O:5][C:6](=[O:7])[H:12])[H:10])([H:8])[H:9]"
N       -0.96583102      -1.26995786       0.25681996
C       -0.82469235      -0.03864722       0.78762820
O       -1.20869700       0.16706817       2.00211480
C        0.31438080       0.82089100       0.58083845
O        1.41477428       0.43215671      -0.23300151
C        1.23896321       0.30609478      -1.54552290
O        0.18152397       0.15673556      -2.09306699
H       -0.55110970      -1.43445718      -0.64691744
H       -1.82479453      -1.75530446       0.45783060
H       -0.00073731       1.82817020       0.31018941
H        0.01653897       0.63768225       2.15659372
H        2.20968069       0.14956805      -2.03350632
12
Frame=11 idx=010075 GeodesicLength=0.5529978279202576 rxn_smarts="[N:1]([C:2](=[O:3])[C:4]([O:5][C:6](=[O:7])[H:12])([H:10])[H:11])([H:8])[H:9]>>[N:1](/[C:2]([O:3][H:11])=[C:4](\[O:5][C:6](=[O:7])[H:12])[H:10])([H:8])[H:9]"
N       -0.95777160      -1.27431616       0.26801313
C       -0.83683027      -0.02942345       0.78109586
O       -1.22018743       0.17640032       1.99636652
C        0.30966518       0.81888539       0.57765993
O        1.40752387       0.42134768      -0.23375016
C        1.23391135       0.30945835      -1.54898565
O        0.17627662       0.17351871      -2.09854944
H       -0.52278383      -1.45156227      -0.62345457
H       -1.82936041      -1.74742569       0.44334955
H        0.00821445       1.83069991       0.30897987
H        0.02694076       0.62416425       2.16506225
H        2.20440131       0.14825297      -2.03578729
12
Frame=12 idx=010075 GeodesicLength=0.6033252233685302 rxn_smarts="[N:1]([C:2](=[O:3])[C:4]([O:5][C:6](=[O:7])[H:12])([H:10])[H:11])([H:8])[H:9]>>[N:1](/[C:2]([O:3][H:11])=[C:4](\[O:5][C:6](=[O:7])[H:12])[H:10])([H:8])[H:9]"
N       -0.95003697      -1.27816508       0.27906153
C       -0.84852551      -0.02053988       0.77465005
O       -1.23133062       0.18539360       1.99067430
C        0.30481210       0.81709073       0.57448379
O        1.40011193       0.41116263      -0.23460265
C        1.22880868       0.31253276      -1.55232916
O        0.17108871       0.19099847      -2.10398704
H       -0.49490624      -1.46755825      -0.59949194
H       -1.83271673      -1.74001142       0.42822102
H        0.01664783       1.83309644       0.30768547
H        0.03715060       0.61063971       2.17341396
H        2.19889622       0.14536030      -2.03777934
12
Frame=13 idx=010075 GeodesicLength=0.6536553336790475 rxn_smarts="[N:1]([C:2](=[O:3])[C:4]([O:5][C:6](=[O:7])[H:12])([H:10])[H:11])([H:8])[H:9]>>[N:1](/[C:2]([O:3][H:11])=[C:4](\[O:5][C:6](=[O:7])[H:12])[H:10])([H:8])[H:9]"
N       -0.94274598      -1.28160065       0.29006080
C       -0.85981527      -0.01200924       0.76833308
O       -1.24211924       0.19411523       1.98506995
C        0.29987887       0.81537496       0.57127550
O        1.39259757       0.40127857      -0.23550933
C        1.22369422       0.31496422      -1.55551569
O        0.16605503       0.20882724      -2.10938148
H       -0.46759756      -1.48267663      -0.57490258
H       -1.83522756      -1.73281163       0.41244519
H        0.02467364       1.83523222       0.30616755
H        0.04725881       0.59721260       2.18163638
H        2.19334747       0.14209311      -2.03967937
12
Frame=14 idx=010075 GeodesicLength=0.7040429888851107 rxn_smarts="[N:1]([C:2](=[O:3])[C:4]([O:5][C:6](=[O:7])[H:12])([H:10])[H:11])([H:8])[H:9]>>[N:1](/[C:2]([O:3][H:11])=[C:4](\[O:5][C:6](=[O:7])[H:12])[H:10])([H:8])[H:9]"
N       -0.93577767      -1.28464527       0.30092375
C       -0.87078646      -0.00376317       0.76209223
O       -1.25269586       0.20256351       1.97952948
C        0.29483655       0.81382786       0.56807066
O        1.38497347       0.39186321      -0.23650193
C        1.21855545       0.31702152      -1.55862959
O        0.16117606       0.22742771      -2.11477767
H       -0.44077111      -1.49688018      -0.54983548
H       -1.83664816      -1.72609868       0.39620203
H        0.03231596       1.83727586       0.30458059
H        0.05720594       0.58381810       2.18979079
H        2.18761583       0.13758953      -2.04144486
12
Frame=15 idx=010075 GeodesicLength=0.7544788927259143 rxn_smarts="[N:1]([C:2](=[O:3])[C:4]([O:5][C:6](=[O:7])[H:12])([H:10])[H:11])([H:8])[H:9]>>[N:1](/[C:2]([O:3][H:11])=[C:4](\[O:5][C:6](=[O:7])[H:12])[H:10])([H:8])[H:9]"
N       -0.92899694      -1.28732705       0.31163425
C       -0.88145290       0.00422218       0.75589163
O       -1.26307744       0.21070738       1.97399980
C        0.28966750       0.81249241       0.56489140
O        1.37722680       0.38303857      -0.23758103
C        1.21330027       0.31887608      -1.56167211
O        0.15636348       0.24695902      -2.12010066
H       -0.41411165      -1.51024703      -0.52416044
H       -1.83696065      -1.71975208       0.37923960
H        0.03951929       1.83928848       0.30301486
H        0.06703882       0.57041118       2.19787257
H        2.18148342       0.13133086      -2.04302988
12
Frame=16 idx=010075 GeodesicLength=0.8049463498016037 rxn_smarts="[N:1]([C:2](=[O:3])[C:4]([O:5][C:6](=[O:7])[H:12])([H:10])[H:11])([H:8])[H:9]>>[N:1](/[C:2]([O:3][H:11])=[C:4](\[O:5][C:6](=[O:7])[H:12])[H:10])([H:8])[H:9]"
N       -0.92249634      -1.28967914       0.32222902
C       -0.89185670       0.01195296       0.74974228
O       -1.27328369       0.21861915       1.96849606
C        0.28439864       0.81126777       0.56170901
O        1.36937241       0.37455488      -0.23870295
C        1.20796699       0.32026047      -1.56462959
O        0.15175768       0.26724675      -2.12540578
H       -0.38785362      -1.52284770      -0.49790223
H       -1.83627633      -1.71373539       0.36174965
H        0.04639415       1.84116838       0.30136857
H        0.07678693       0.55705482       2.20589193
H        2.17508988       0.12413706      -2.04454596
