13
Frame=0 idx=006245 GeodesicLength=0.0 rxn_smarts="[O:1]=[C:2]([N:3]1[C:4]([H:8])([H:9])[C:5]([H:10])([H:11])[C:6]1([H:12])[H:13])[H:7]>>[O:1]=[C:2]([N+:3]1([H:11])[C:4]([H:8])([H:9])[C-:5]([H:10])[C:6]1([H:12])[H:13])[H:7]"
O        2.12106022       1.23448326      -1.09027394
C        1.66574568       0.17675319      -0.78436480
N        0.29702814      -0.00928732      -0.44606552
C       -0.63487714       0.99114389       0.19112567
C       -1.54551503      -0.23501756       0.28129838
C       -0.26453402      -1.03687845       0.50114920
H        2.22979891      -0.77074476      -0.78206467
H       -0.16073854       1.33934353       1.12228352
H       -0.87477863       1.83090877      -0.45825498
H       -2.35309662      -0.27314380       1.00839763
H       -0.55855149      -0.27224178      -1.15122156
H       -0.17048836      -2.06125539       0.13846957
H        0.24894692      -0.91406362       1.46952146
13
Frame=1 idx=006245 GeodesicLength=0.06927204549663571 rxn_smarts="[O:1]=[C:2]([N:3]1[C:4]([H:8])([H:9])[C:5]([H:10])([H:11])[C:6]1([H:12])[H:13])[H:7]>>[O:1]=[C:2]([N+:3]1([H:11])[C:4]([H:8])([H:9])[C-:5]([H:10])[C:6]1([H:12])[H:13])[H:7]"
O        2.11112925       1.23050075      -1.12391529
C        1.66473693       0.17950235      -0.78178968
N        0.29750614      -0.00974790      -0.44715998
C       -0.63003594       0.99145213       0.19618344
C       -1.54415454      -0.23409701       0.27532825
C       -0.26444282      -1.03932127       0.49812515
H        2.24233705      -0.75880320      -0.73853839
H       -0.15609546       1.34102470       1.12670171
H       -0.86792721       1.83298047      -0.45212777
H       -2.34749000      -0.27174782       1.00704797
H       -0.58104887      -0.27190462      -1.15666992
H       -0.17444768      -2.06224183       0.12980893
H        0.24993316      -0.92759675       1.46700560
13
Frame=2 idx=006245 GeodesicLength=0.13847497788046012 rxn_smarts="[O:1]=[C:2]([N:3]1[C:4]([H:8])([H:9])[C:5]([H:10])([H:11])[C:6]1([H:12])[H:13])[H:7]>>[O:1]=[C:2]([N+:3]1([H:11])[C:4]([H:8])([H:9])[C-:5]([H:10])[C:6]1([H:12])[H:13])[H:7]"
O        2.10165458       1.22516100      -1.15690050
C        1.66377294       0.18215325      -0.77937130
N        0.29806639      -0.01024674      -0.44828877
C       -0.62515399       0.99168153       0.20104463
C       -1.54275061      -0.23311955       0.26966638
C       -0.26433204      -1.04183435       0.49493077
H        2.25448395      -0.74508026      -0.69462460
H       -0.15134880       1.34284583       1.13081773
H       -0.86116801       1.83483826      -0.44632185
H       -2.34166279      -0.27028871       1.00614654
H       -0.60415258      -0.27154731      -1.16211320
H       -0.17840425      -2.06319758       0.12082637
H        0.25099521      -0.94136536       1.46418779
13
Frame=3 idx=006245 GeodesicLength=0.20763896388986325 rxn_smarts="[O:1]=[C:2]([N:3]1[C:4]([H:8])([H:9])[C:5]([H:10])([H:11])[C:6]1([H:12])[H:13])[H:7]>>[O:1]=[C:2]([N+:3]1([H:11])[C:4]([H:8])([H:9])[C-:5]([H:10])[C:6]1([H:12])[H:13])[H:7]"
O        2.09262302       1.21850175      -1.18933248
C        1.66287627       0.18466610      -0.77708315
N        0.29872699      -0.01078335      -0.44943250
C       -0.62021710       0.99183198       0.20572217
C       -1.54130118      -0.23208223       0.26430404
C       -0.26420619      -1.04442889       0.49155672
H        2.26621423      -0.72952514      -0.65027556
H       -0.14649473       1.34478897       1.13465112
H       -0.85446400       1.83649024      -0.44081596
H       -2.33561490      -0.26876571       1.00567385
H       -0.62788423      -0.27116409      -1.16753110
H       -0.18237205      -2.06412693       0.11149888
H        0.25211389      -0.95540269       1.46106398
13
Frame=4 idx=006245 GeodesicLength=0.27679427971497544 rxn_smarts="[O:1]=[C:2]([N:3]1[C:4]([H:8])([H:9])[C:5]([H:10])([H:11])[C:6]1([H:12])[H:13])[H:7]>>[O:1]=[C:2]([N+:3]1([H:11])[C:4]([H:8])([H:9])[C-:5]([H:10])[C:6]1([H:12])[H:13])[H:7]"
O        2.08407577       1.21058021      -1.22115643
C        1.66206870       0.18701526      -0.77489207
N        0.29950567      -0.01135142      -0.45056926
C       -0.61522540       0.99190800       0.21021382
C       -1.53980374      -0.23099023       0.25923546
C       -0.26405909      -1.04710573       0.48801073
H        2.27745810      -0.71216064      -0.60561431
H       -0.14154851       1.34686472       1.13820253
H       -0.84780229       1.83793233      -0.43562204
H       -2.32934555      -0.26718478       1.00561518
H       -0.65226259      -0.27076705      -1.17290447
H       -0.18634498      -2.06503201       0.10183699
H        0.25328391      -0.96970864       1.45764386
13
Frame=5 idx=006245 GeodesicLength=0.3459212980067832 rxn_smarts="[O:1]=[C:2]([N:3]1[C:4]([H:8])([H:9])[C:5]([H:10])([H:11])[C:6]1([H:12])[H:13])[H:7]>>[O:1]=[C:2]([N+:3]1([H:11])[C:4]([H:8])([H:9])[C-:5]([H:10])[C:6]1([H:12])[H:13])[H:7]"
O        2.07618615       1.20135630      -1.25202841
C        1.66139027       0.18923397      -0.77270285
N        0.30042233      -0.01194159      -0.45166850
C       -0.61021163       0.99191921       0.21448969
C       -1.53824664      -0.22988240       0.25445856
C       -0.26386139      -1.04983703       0.48433525
H        2.28802333      -0.69308463      -0.56114632
H       -0.13657863       1.34913266       1.14144465
H       -0.84122988       1.83915240      -0.43081505
H       -2.32284835      -0.26559812       1.00595811
H       -0.67729472      -0.27036211      -1.17821211
H       -0.19026348      -2.06587748       0.09192553
H        0.25451263      -0.98421118       1.45396145
13
Frame=6 idx=006245 GeodesicLength=0.4150561655050611 rxn_smarts="[O:1]=[C:2]([N:3]1[C:4]([H:8])([H:9])[C:5]([H:10])([H:11])[C:6]1([H:12])[H:13])[H:7]>>[O:1]=[C:2]([N+:3]1([H:11])[C:4]([H:8])([H:9])[C-:5]([H:10])[C:6]1([H:12])[H:13])[H:7]"
O        2.06895473       1.19089489      -1.28197351
C        1.66085395       0.19129297      -0.77050796
N        0.30149305      -0.01254989      -0.45271497
C       -0.60516810       0.99187006       0.21855443
C       -1.53662976      -0.22875523       0.24997006
C       -0.26361298      -1.05263104       0.48052244
H        2.29789716      -0.67230307      -0.51686172
H       -0.13158481       1.35159173       1.14438393
H       -0.83472273       1.84015143      -0.42638909
H       -2.31612121      -0.26399916       1.00669610
H       -0.70301859      -0.26995659      -1.18343288
H       -0.19413981      -2.06667362       0.08174244
H        0.25579910      -0.99893251       1.45001073
13
Frame=7 idx=006245 GeodesicLength=0.48420866636983123 rxn_smarts="[O:1]=[C:2]([N:3]1[C:4]([H:8])([H:9])[C:5]([H:10])([H:11])[C:6]1([H:12])[H:13])[H:7]>>[O:1]=[C:2]([N+:3]1([H:11])[C:4]([H:8])([H:9])[C-:5]([H:10])[C:6]1([H:12])[H:13])[H:7]"
O        2.06242157       1.17923380      -1.31095845
C        1.66048774       0.19319031      -0.76825586
N        0.30273536      -0.01317039      -0.45368604
C       -0.60010047       0.99176605       0.22240793
C       -1.53494875      -0.22761869       0.24576350
C       -0.26330718      -1.05548508       0.47657894
H        2.30703607      -0.64987081      -0.47288376
H       -0.12659032       1.35425304       1.14702611
H       -0.82828004       1.84093384      -0.42235513
H       -2.30916219      -0.26240421       1.00781444
H       -0.72946332      -0.26954617      -1.18854338
H       -0.19796757      -2.06741126       0.07129346
H        0.25713909      -1.01387044       1.44579823
13
Frame=8 idx=006245 GeodesicLength=0.5534215633753066 rxn_smarts="[O:1]=[C:2]([N:3]1[C:4]([H:8])([H:9])[C:5]([H:10])([H:11])[C:6]1([H:12])[H:13])[H:7]>>[O:1]=[C:2]([N+:3]1([H:11])[C:4]([H:8])([H:9])[C-:5]([H:10])[C:6]1([H:12])[H:13])[H:7]"
O        2.05656896       1.16642515      -1.33912684
C        1.66032599       0.19488793      -0.76588953
N        0.30417543      -0.01379753      -0.45455525
C       -0.59499682       0.99161010       0.22606527
C       -1.53319972      -0.22646765       0.24183001
C       -0.26295150      -1.05841122       0.47249299
H        2.31543370      -0.62575273      -0.42915852
H       -0.12160305       1.35710567       1.14939446
H       -0.82186290       1.84150344      -0.41869389
H       -2.30197002      -0.26080909       1.00929469
H       -0.75666526      -0.26912736      -1.19351119
H       -0.20176994      -2.06809914       0.06054255
H        0.25851513      -1.02906758       1.44131524
13
Frame=9 idx=006245 GeodesicLength=0.6227406668596012 rxn_smarts="[O:1]=[C:2]([N:3]1[C:4]([H:8])([H:9])[C:5]([H:10])([H:11])[C:6]1([H:12])[H:13])[H:7]>>[O:1]=[C:2]([N+:3]1([H:11])[C:4]([H:8])([H:9])[C-:5]([H:10])[C:6]1([H:12])[H:13])[H:7]"
O        2.05136272       1.15249309      -1.36647481
C        1.66044861       0.19645584      -0.76328094
N        0.30585398      -0.01439771      -0.45527608
C       -0.58986726       0.99140585       0.22951665
C       -1.53136750      -0.22531081       0.23816715
C       -0.26251919      -1.06139666       0.46825776
H        2.32300407      -0.60014257      -0.38579366
H       -0.11666619       1.36017658       1.15148172
H       -0.81548921       1.84184947      -0.41544911
H       -2.29452544      -0.25923904       1.01113414
H       -0.78466188      -0.26866173      -1.19829521
H       -0.20550636      -2.06870754       0.04945563
H        0.25993366      -1.04452476       1.43655677
13
Frame=10 idx=006245 GeodesicLength=0.6920964140935991 rxn_smarts="[O:1]=[C:2]([N:3]1[C:4]([H:8])([H:9])[C:5]([H:10])([H:11])[C:6]1([H:12])[H:13])[H:7]>>[O:1]=[C:2]([N+:3]1([H:11])[C:4]([H:8])([H:9])[C-:5]([H:10])[C:6]1([H:12])[H:13])[H:7]"
O        2.04695921       1.13746325      -1.39277641
C        1.66081609       0.19786273      -0.76047527
N        0.30775638      -0.01498309      -0.45586501
C       -0.58472656       0.99116662       0.23275308
C       -1.52945845      -0.22416333       0.23477762
C       -0.26201002      -1.06443642       0.46389107
H        2.32973032      -0.57303233      -0.34300477
H       -0.11179247       1.36348986       1.15327528
H       -0.80917454       1.84197741      -0.41263094
H       -2.28683023      -0.25770515       1.01333576
H       -0.81349911      -0.26819144      -1.20288381
H       -0.20918651      -2.06923689       0.03808207
H        0.26141587      -1.06021120       1.43152132
13
Frame=11 idx=006245 GeodesicLength=0.7614904532889302 rxn_smarts="[O:1]=[C:2]([N:3]1[C:4]([H:8])([H:9])[C:5]([H:10])([H:11])[C:6]1([H:12])[H:13])[H:7]>>[O:1]=[C:2]([N+:3]1([H:11])[C:4]([H:8])([H:9])[C-:5]([H:10])[C:6]1([H:12])[H:13])[H:7]"
O        2.04337322       1.12139806      -1.41803304
C        1.66145829       0.19913342      -0.75740173
N        0.30990385      -0.01553612      -0.45629639
C       -0.57958352       0.99089993       0.23577366
C       -1.52746777      -0.22303016       0.23165472
C       -0.26141442      -1.06752428       0.45939350
H        2.33560352      -0.54455720      -0.30088123
H       -0.10701689       1.36706196       1.15477791
H       -0.80292533       1.84188583      -0.41025182
H       -2.27887890      -0.25621958       1.01588632
H       -0.84321707      -0.26771339      -1.20724009
H       -0.21280008      -2.06967241       0.02641253
H        0.26296511      -1.07612605       1.42620565
13
Frame=12 idx=006245 GeodesicLength=0.8309066966618301 rxn_smarts="[O:1]=[C:2]([N:3]1[C:4]([H:8])([H:9])[C:5]([H:10])([H:11])[C:6]1([H:12])[H:13])[H:7]>>[O:1]=[C:2]([N+:3]1([H:11])[C:4]([H:8])([H:9])[C-:5]([H:10])[C:6]1([H:12])[H:13])[H:7]"
O        2.04065174       1.10435871      -1.44214517
C        1.66239696       0.20031616      -0.75399983
N        0.31231463      -0.01603845      -0.45654857
C       -0.57445767       0.99062087       0.23856959
C       -1.52538991      -0.22192509       0.22879414
C       -0.26071498      -1.07064536       0.45477367
H        2.34060094      -0.51491643      -0.25960078
H       -0.10238510       1.37093140       1.15598351
H       -0.79676924       1.84157523      -0.40834104
H       -2.27066547      -0.25480537       1.01877739
H       -0.87385689      -0.26723270      -1.21133147
H       -0.21632197      -2.06999434       0.01445685
H        0.26459697      -1.09224464       1.42061172
13
Frame=13 idx=006245 GeodesicLength=0.9003340781734421 rxn_smarts="[O:1]=[C:2]([N:3]1[C:4]([H:8])([H:9])[C:5]([H:10])([H:11])[C:6]1([H:12])[H:13])[H:7]>>[O:1]=[C:2]([N+:3]1([H:11])[C:4]([H:8])([H:9])[C-:5]([H:10])[C:6]1([H:12])[H:13])[H:7]"
O        2.03881942       1.08640167      -1.46511239
C        1.66366190       0.20145433      -0.75019391
N        0.31500703      -0.01646945      -0.45659914
C       -0.56936393       0.99033999       0.24113791
C       -1.52322066      -0.22085500       0.22619026
C       -0.25990057      -1.07378989       0.45003046
H        2.34473037      -0.48427976      -0.21925023
H       -0.09793986       1.37512125       1.15689217
H       -0.79072549       1.84104575      -0.40691575
H       -2.26218183      -0.25347817       1.02199901
H       -0.90547007      -0.26674755      -1.21511202
H       -0.21973644      -2.07018241       0.00220208
H        0.26632013      -1.10856077       1.41473155
13
Frame=14 idx=006245 GeodesicLength=0.9697575046410117 rxn_smarts="[O:1]=[C:2]([N:3]1[C:4]([H:8])([H:9])[C:5]([H:10])([H:11])[C:6]1([H:12])[H:13])[H:7]>>[O:1]=[C:2]([N+:3]1([H:11])[C:4]([H:8])([H:9])[C-:5]([H:10])[C:6]1([H:12])[H:13])[H:7]"
O        2.03790687       1.06759242      -1.48685373
C        1.66526653       0.20259277      -0.74594077
N        0.31799910      -0.01681045      -0.45643150
C       -0.56431837       0.99007278       0.24346907
C       -1.52095475      -0.21982833       0.22383976
C       -0.25895694      -1.07694574       0.44516550
H        2.34800649      -0.45283823      -0.17994997
H       -0.09372205       1.37966920       1.15749309
H       -0.78481735       1.84029497      -0.40600304
H       -2.25342044      -0.25225129       1.02554665
H       -0.93811437      -0.26626951      -1.21853961
H       -0.22302500      -2.07021904      -0.01035402
H        0.26815027      -1.12505954       1.40855857
13
Frame=15 idx=006245 GeodesicLength=1.039151955665088 rxn_smarts="[O:1]=[C:2]([N:3]1[C:4]([H:8])([H:9])[C:5]([H:10])([H:11])[C:6]1([H:12])[H:13])[H:7]>>[O:1]=[C:2]([N+:3]1([H:11])[C:4]([H:8])([H:9])[C-:5]([H:10])[C:6]1([H:12])[H:13])[H:7]"
O        2.03793711       1.04798400      -1.50734791
C        1.66722802       0.20376886      -0.74119864
N        0.32130340      -0.01704653      -0.45603613
C       -0.55933349       0.98982870       0.24555324
C       -1.51858861      -0.21885052       0.22174346
C       -0.25787507      -1.08010596       0.44016916
H        2.35046188      -0.42074088      -0.14173017
H       -0.08976043       1.38459960       1.15777149
H       -0.77906633       1.83931928      -0.40562756
H       -2.24436566      -0.25113484       1.02942587
H       -0.97186312      -0.26579664      -1.22156019
H       -0.22617909      -2.07008490      -0.02323482
H        0.27010140      -1.14174017       1.40207222
13
Frame=16 idx=006245 GeodesicLength=1.1084957445220718 rxn_smarts="[O:1]=[C:2]([N:3]1[C:4]([H:8])([H:9])[C:5]([H:10])([H:11])[C:6]1([H:12])[H:13])[H:7]>>[O:1]=[C:2]([N+:3]1([H:11])[C:4]([H:8])([H:9])[C-:5]([H:10])[C:6]1([H:12])[H:13])[H:7]"
O        2.03895010       1.02764512      -1.52651550
C        1.66956451       0.20503810      -0.73591385
N        0.32493580      -0.01716036      -0.45539956
C       -0.55442924       0.98962180       0.24737434
C       -1.51611834      -0.21793175       0.21989917
C       -0.25664103      -1.08325808       0.43503913
H        2.35212880      -0.38819969      -0.10470183
H       -0.08610053       1.38995327       1.15770718
H       -0.77350462       1.83811342      -0.40582705
H       -2.23500402      -0.25014195       1.03363729
H       -1.00679393      -0.26533552      -1.22411221
H       -0.22917765      -2.06975780      -0.03644879
H        0.27219016      -1.15858656       1.39526169
