16
Frame=0 idx=002565 GeodesicLength=0.0 rxn_smarts="[C:1]([C:2]([C:3]([H:11])([H:12])[H:13])([C@@:4]1([H:14])[C:5]([H:15])([H:16])[O:6]1)[H:10])([H:7])([H:8])[H:9]>>[C:1]([C:2]([C@@:4]1([H:14])[C:5]([H:15])([H:16])[O:6]1)([H:10])[H:11])([H:7])([H:8])[H:9].[C:3]([H:12])[H:13]"
C       -0.73091256       1.37217305      -1.07180842
C       -0.28674417       0.84987280       0.28845964
C       -1.55357560      -1.90251929       0.17728809
C        1.11797539       0.32202420       0.27054275
C        1.53896766      -0.79955397       1.10163266
O        1.28800705      -0.97399284      -0.28957763
H       -0.12649729       2.22844013      -1.38039672
H       -1.77363714       1.69176800      -1.04987445
H       -0.62774928       0.59981100      -1.83653626
H       -0.36562959       1.63741355       1.04434777
H       -0.95125076       0.03979729       0.63661390
H       -0.73118557      -2.46669933      -0.30001614
H       -2.07556055      -1.46150099      -0.69653118
H        1.88273274       1.03047872      -0.04673775
H        2.58039644      -0.89499831       1.39359869
H        0.81466323      -1.27251401       1.75899508
16
Frame=1 idx=002565 GeodesicLength=0.14375959895516777 rxn_smarts="[C:1]([C:2]([C:3]([H:11])([H:12])[H:13])([C@@:4]1([H:14])[C:5]([H:15])([H:16])[O:6]1)[H:10])([H:7])([H:8])[H:9]>>[C:1]([C:2]([C@@:4]1([H:14])[C:5]([H:15])([H:16])[O:6]1)([H:10])[H:11])([H:7])([H:8])[H:9].[C:3]([H:12])[H:13]"
C       -0.73110166       1.40353626      -1.06615603
C       -0.29771390       0.82653139       0.27466710
C       -1.51911216      -1.86338123       0.17052957
C        1.10377303       0.29379032       0.24030996
C        1.53882159      -0.79172576       1.11109840
O        1.26352076      -1.02556294      -0.26686352
H       -0.12582538       2.27201006      -1.33657041
H       -1.77316678       1.72502071      -1.03952926
H       -0.62502582       0.66176800      -1.86030069
H       -0.36400110       1.58931747       1.05707484
H       -1.02137852       0.04642382       0.62398614
H       -0.72153741      -2.51616650      -0.22630080
H       -2.01200771      -1.48412381      -0.74691318
H        1.87130230       0.97570434      -0.12563397
H        2.58525536      -0.87868941       1.38736551
H        0.82819739      -1.23445272       1.80323634
16
Frame=2 idx=002565 GeodesicLength=0.2869793690690292 rxn_smarts="[C:1]([C:2]([C:3]([H:11])([H:12])[H:13])([C@@:4]1([H:14])[C:5]([H:15])([H:16])[O:6]1)[H:10])([H:7])([H:8])[H:9]>>[C:1]([C:2]([C@@:4]1([H:14])[C:5]([H:15])([H:16])[O:6]1)([H:10])[H:11])([H:7])([H:8])[H:9].[C:3]([H:12])[H:13]"
C       -0.72941571       1.43480471      -1.05959036
C       -0.31042843       0.80066788       0.25946543
C       -1.48500364      -1.82781925       0.16193358
C        1.08877273       0.26491379       0.21018757
C        1.54007513      -0.78248150       1.11868159
O        1.24149871      -1.07527805      -0.24320815
H       -0.12109157       2.31283106      -1.28920263
H       -1.77008157       1.76062652      -1.02935187
H       -0.62107385       0.72520654      -1.88242743
H       -0.36653246       1.53654420       1.06843780
H       -1.09345314       0.05283672       0.60515861
H       -0.71755095      -2.55762778      -0.14716468
H       -1.94754743      -1.50958276      -0.79266357
H        1.85667070       0.91955616      -0.20256929
H        2.59125337      -0.85989529       1.37930760
H        0.84390810      -1.19530296       1.84300580
16
Frame=3 idx=002565 GeodesicLength=0.4297904960075572 rxn_smarts="[C:1]([C:2]([C:3]([H:11])([H:12])[H:13])([C@@:4]1([H:14])[C:5]([H:15])([H:16])[O:6]1)[H:10])([H:7])([H:8])[H:9]>>[C:1]([C:2]([C@@:4]1([H:14])[C:5]([H:15])([H:16])[O:6]1)([H:10])[H:11])([H:7])([H:8])[H:9].[C:3]([H:12])[H:13]"
C       -0.72574747       1.46587604      -1.05187454
C       -0.32487111       0.77226225       0.24259342
C       -1.45137630      -1.79562108       0.15240761
C        1.07309064       0.23542912       0.18020124
C        1.54282999      -0.77152657       1.12454751
O        1.22185886      -1.12328342      -0.21830446
H       -0.11236596       2.35063815      -1.23797508
H       -1.76426393       1.79841392      -1.01887352
H       -0.61557505       0.79025031      -1.90272762
H       -0.37392317       1.47863962       1.07834362
H       -1.16692581       0.05822186       0.57898124
H       -0.71919286      -2.59041377      -0.06419912
H       -1.88301882      -1.53792331      -0.83339217
H        1.83908082       0.86200099      -0.27783204
H        2.59853474      -0.83829645       1.36928951
H        0.86186543      -1.15466764       1.87881440
16
Frame=4 idx=002565 GeodesicLength=0.5723231793145858 rxn_smarts="[C:1]([C:2]([C:3]([H:11])([H:12])[H:13])([C@@:4]1([H:14])[C:5]([H:15])([H:16])[O:6]1)[H:10])([H:7])([H:8])[H:9]>>[C:1]([C:2]([C@@:4]1([H:14])[C:5]([H:15])([H:16])[O:6]1)([H:10])[H:11])([H:7])([H:8])[H:9].[C:3]([H:12])[H:13]"
C       -0.72005754       1.49667736      -1.04271940
C       -0.34093467       0.74147535       0.22380988
C       -1.41844854      -1.76659632       0.14265323
C        1.05687177       0.20536893       0.15037772
C        1.54710238      -0.75855480       1.12885009
O        1.20436387      -1.16966994      -0.19175956
H       -0.09987391       2.38516402      -1.18257137
H       -1.75569906       1.83812394      -1.00752752
H       -0.60816236       0.85711592      -1.92096113
H       -0.38676859       1.41531984       1.08663634
H       -1.24106863       0.06176075       0.54449036
H       -0.72617376      -2.61416664       0.02113912
H       -1.81913376      -1.56910255      -0.86883926
H        1.81879742       0.80271710      -0.35190711
H        2.60714809      -0.81373577       1.35714653
H        0.88203730      -1.11189719       1.91118209
16
Frame=5 idx=002565 GeodesicLength=0.7146114029030113 rxn_smarts="[C:1]([C:2]([C:3]([H:11])([H:12])[H:13])([C@@:4]1([H:14])[C:5]([H:15])([H:16])[O:6]1)[H:10])([H:7])([H:8])[H:9]>>[C:1]([C:2]([C@@:4]1([H:14])[C:5]([H:15])([H:16])[O:6]1)([H:10])[H:11])([H:7])([H:8])[H:9].[C:3]([H:12])[H:13]"
C       -0.71226762       1.52721612      -1.03170055
C       -0.35839179       0.70866796       0.20284865
C       -1.38654284      -1.74054744       0.13307691
C        1.04020309       0.17483778       0.12068622
C        1.55272191      -0.74325339       1.13152250
O        1.18857668      -1.21442863      -0.16317913
H       -0.08387017       2.41625904      -1.12253742
H       -1.74429950       1.87942557      -0.99457332
H       -0.59841750       0.92612302      -1.93661115
H       -0.40539538       1.34654581       1.09289980
H       -1.31499647       0.06270032       0.50081130
H       -0.73821893      -2.62894696       0.10839479
H       -1.75607521      -1.60346924      -0.89915753
H        1.79588036       0.74139027      -0.42524482
H        2.61687559      -0.78622614       1.34248373
H        0.90421776      -1.06629407       1.94028001
16
Frame=6 idx=002565 GeodesicLength=0.8567561996652157 rxn_smarts="[C:1]([C:2]([C:3]([H:11])([H:12])[H:13])([C@@:4]1([H:14])[C:5]([H:15])([H:16])[O:6]1)[H:10])([H:7])([H:8])[H:9]>>[C:1]([C:2]([C@@:4]1([H:14])[C:5]([H:15])([H:16])[O:6]1)([H:10])[H:11])([H:7])([H:8])[H:9].[C:3]([H:12])[H:13]"
C       -0.70244785       1.55728522      -1.01846086
C       -0.37693022       0.67429043       0.17960484
C       -1.35579988      -1.71721370       0.12402254
C        1.02325117       0.14390647       0.09115831
C        1.55952157      -0.72530968       1.13263138
O        1.17409542      -1.25740561      -0.13208555
H       -0.06477869       2.44343413      -1.05778656
H       -1.73019822       1.92172444      -0.97929503
H       -0.58604071       0.99731350      -1.94919489
H       -0.42991831       1.27252145       1.09670103
H       -1.38767713       0.06030522       0.44758864
H       -0.75495669      -2.63477022       0.19599137
H       -1.69424694      -1.64070671      -0.92416231
H        1.77046646       0.67749877      -0.49822448
H        2.62752107      -0.75588674       1.32513273
H        0.92813896      -1.01698696       1.96637883
16
Frame=7 idx=002565 GeodesicLength=0.9987656348988886 rxn_smarts="[C:1]([C:2]([C:3]([H:11])([H:12])[H:13])([C@@:4]1([H:14])[C:5]([H:15])([H:16])[O:6]1)[H:10])([H:7])([H:8])[H:9]>>[C:1]([C:2]([C@@:4]1([H:14])[C:5]([H:15])([H:16])[O:6]1)([H:10])[H:11])([H:7])([H:8])[H:9].[C:3]([H:12])[H:13]"
C       -0.69072612       1.58665875      -1.00258237
C       -0.39617372       0.63890529       0.15408406
C       -1.32649652      -1.69626306       0.11549592
C        1.00619618       0.11264212       0.06180969
C        1.56729674      -0.70446978       1.13212403
O        1.16048806      -1.29841784      -0.09803606
H       -0.04309768       2.46625328      -0.98822812
H       -1.71364240       1.96431467      -0.96092365
H       -0.57079599       1.07062015      -1.95807410
H       -0.46010785       1.19376585       1.09751622
H       -1.45812048       0.05401789       0.38464930
H       -0.77608552      -2.63180033       0.28301394
H       -1.63366495      -1.68064315      -0.94412154
H        1.74259622       0.61050322      -0.57111317
H        2.63885837      -0.72299782       1.30487262
H        0.95347566      -0.96308924       1.98951326
16
Frame=8 idx=002565 GeodesicLength=1.1406564179341558 rxn_smarts="[C:1]([C:2]([C:3]([H:11])([H:12])[H:13])([C@@:4]1([H:14])[C:5]([H:15])([H:16])[O:6]1)[H:10])([H:7])([H:8])[H:9]>>[C:1]([C:2]([C@@:4]1([H:14])[C:5]([H:15])([H:16])[O:6]1)([H:10])[H:11])([H:7])([H:8])[H:9].[C:3]([H:12])[H:13]"
C       -0.67733484       1.61493021      -0.98371064
C       -0.41568392       0.60312792       0.12651472
C       -1.29883532      -1.67723839       0.10734652
C        0.98923384       0.08110793       0.03271557
C        1.57584370      -0.68057395       1.12994018
O        1.14735024      -1.33715667      -0.06058561
H       -0.01947934       2.48416991      -0.91407035
H       -1.69504394       2.00620201      -0.93882032
H       -0.55256065       1.14562333      -1.96254615
H       -0.49532115       1.11115273       1.09484639
H       -1.52530481       0.04346663       0.31224258
H       -0.80137826      -2.62017387       0.36818806
H       -1.57426734      -1.72275893      -0.95933425
H        1.71223462       0.53991985      -0.64389038
H        2.65065434      -0.68800958       1.28156665
H        0.97989283      -0.90378914       2.00959702
16
Frame=9 idx=002565 GeodesicLength=1.2824896617144856 rxn_smarts="[C:1]([C:2]([C:3]([H:11])([H:12])[H:13])([C@@:4]1([H:14])[C:5]([H:15])([H:16])[O:6]1)[H:10])([H:7])([H:8])[H:9]>>[C:1]([C:2]([C@@:4]1([H:14])[C:5]([H:15])([H:16])[O:6]1)([H:10])[H:11])([H:7])([H:8])[H:9].[C:3]([H:12])[H:13]"
C       -0.66254862       1.64158653      -0.96157274
C       -0.43498666       0.56759428       0.09737138
C       -1.27294965      -1.65962698       0.09920179
C        0.97252531       0.04943853       0.00401636
C        1.58492172      -0.65359302       1.12590350
O        1.13427562      -1.37315977      -0.01939178
H        0.00532932       2.49670041      -0.83581837
H       -1.67488406       2.04615061      -0.91255165
H       -0.53125218       1.22160513      -1.96183346
H       -0.53450670       1.02585845       1.08832472
H       -1.58816629       0.02841951       0.23099412
H       -0.83081909      -2.60003252       0.45044470
H       -1.51576905      -1.76641388      -0.97023868
H        1.67923071       0.46554162      -0.71615295
H        2.66260034      -0.65155172       1.25501373
H        1.00699928      -0.83851719       2.02628933
16
Frame=10 idx=002565 GeodesicLength=1.4243708917316156 rxn_smarts="[C:1]([C:2]([C:3]([H:11])([H:12])[H:13])([C@@:4]1([H:14])[C:5]([H:15])([H:16])[O:6]1)[H:10])([H:7])([H:8])[H:9]>>[C:1]([C:2]([C@@:4]1([H:14])[C:5]([H:15])([H:16])[O:6]1)([H:10])[H:11])([H:7])([H:8])[H:9].[C:3]([H:12])[H:13]"
C       -0.64688091       1.66571773      -0.93611755
C       -0.45351810       0.53300465       0.06755929
C       -1.24893289      -1.64262264       0.09044278
C        0.95633990       0.01781544      -0.02390276
C        1.59434688      -0.62378006       1.11993687
O        1.12084601      -1.40578764       0.02558240
H        0.03019320       2.50330945      -0.75434927
H       -1.65404538       2.08235115      -0.88225164
H       -0.50704592       1.29691960      -1.95530141
H       -0.57586849       0.93975105       1.07802245
H       -1.64554902       0.00905817       0.14233649
H       -0.86434699      -2.57135181       0.52794844
H       -1.45810387      -1.81025674      -0.97751323
H        1.64355437       0.38747507      -0.78691823
H        2.67445324      -0.61464998       1.22534989
H        1.03455797      -0.76695342       2.03917547
16
Frame=11 idx=002565 GeodesicLength=1.5667047334922946 rxn_smarts="[C:1]([C:2]([C:3]([H:11])([H:12])[H:13])([C@@:4]1([H:14])[C:5]([H:15])([H:16])[O:6]1)[H:10])([H:7])([H:8])[H:9]>>[C:1]([C:2]([C@@:4]1([H:14])[C:5]([H:15])([H:16])[O:6]1)([H:10])[H:11])([H:7])([H:8])[H:9].[C:3]([H:12])[H:13]"
C       -0.63098855       1.68650840      -0.90771607
C       -0.47079224       0.50005325       0.03827959
C       -1.22659824      -1.62544763       0.08055831
C        0.94092174      -0.01344489      -0.05053336
C        1.60395395      -0.59180815       1.11205093
O        1.10671044      -1.43431725       0.07410382
H        0.05378723       2.50384645      -0.67114668
H       -1.63359077       2.11313894      -0.84875970
H       -0.48028510       1.36970849      -1.94276860
H       -0.61736084       0.85497335       1.06459554
H       -1.69648580      -0.01417278       0.04852834
H       -0.90171469      -2.53450034       0.59872788
H       -1.40115907      -1.85255538      -0.98182017
H        1.60529635       0.30627357      -0.85487921
H        2.68597286      -0.57874648       1.19288879
H        1.06233272      -0.68950955       2.04789059
16
Frame=12 idx=002565 GeodesicLength=1.7096436168294629 rxn_smarts="[C:1]([C:2]([C:3]([H:11])([H:12])[H:13])([C@@:4]1([H:14])[C:5]([H:15])([H:16])[O:6]1)[H:10])([H:7])([H:8])[H:9]>>[C:1]([C:2]([C@@:4]1([H:14])[C:5]([H:15])([H:16])[O:6]1)([H:10])[H:11])([H:7])([H:8])[H:9].[C:3]([H:12])[H:13]"
C       -0.61561498       1.70356148      -0.87717506
C       -0.48650059       0.46942791       0.01083129
C       -1.20565546      -1.60763955       0.06935711
C        0.92657885      -0.04386579      -0.07530704
C        1.61367683      -0.55874630       1.10237613
O        1.09170127      -1.45821715       0.12557563
H        0.07480632       2.49892260      -0.58813943
H       -1.61473052       2.13752019      -0.81359117
H       -0.45147048       1.43822709      -1.92465147
H       -0.65707016       0.77377966       1.04923485
H       -1.74051129      -0.04057255      -0.04765091
H       -0.94242160      -2.49069528       0.66101997
H       -1.34496624      -1.89174324      -0.98368773
H        1.56498446       0.22303953      -0.91855752
H        2.69711651      -0.54557919       1.15819816
H        1.09007709      -0.60741941       2.05216719
16
Frame=13 idx=002565 GeodesicLength=1.8530245038766948 rxn_smarts="[C:1]([C:2]([C:3]([H:11])([H:12])[H:13])([C@@:4]1([H:14])[C:5]([H:15])([H:16])[O:6]1)[H:10])([H:7])([H:8])[H:9]>>[C:1]([C:2]([C@@:4]1([H:14])[C:5]([H:15])([H:16])[O:6]1)([H:10])[H:11])([H:7])([H:8])[H:9].[C:3]([H:12])[H:13]"
C       -0.60141012       1.71670244      -0.84557892
C       -0.50045814       0.44172017      -0.01357345
C       -1.18576834      -1.58885056       0.05718286
C        0.91352801      -0.07280341      -0.09761949
C        1.62340181      -0.52576852       1.09117255
O        1.07563445      -1.47700876       0.17893752
H        0.09230144       2.48953301      -0.50756288
H       -1.59835589       2.15507078      -0.77860498
H       -0.42137659       1.50068623      -1.90183131
H       -0.69330438       0.69825179       1.03340911
H       -1.77762236      -0.06920571      -0.14313494
H       -0.98520833      -2.44203222       0.71283216
H       -1.29005908      -1.92628512      -0.98331287
H        1.52340619       0.13937557      -0.97629726
H        2.70777411      -0.51676993       1.12220486
H        1.11751723      -0.52261577       2.05177706
16
Frame=14 idx=002565 GeodesicLength=1.9972083685065474 rxn_smarts="[C:1]([C:2]([C:3]([H:11])([H:12])[H:13])([C@@:4]1([H:14])[C:5]([H:15])([H:16])[O:6]1)[H:10])([H:7])([H:8])[H:9]>>[C:1]([C:2]([C@@:4]1([H:14])[C:5]([H:15])([H:16])[O:6]1)([H:10])[H:11])([H:7])([H:8])[H:9].[C:3]([H:12])[H:13]"
C       -0.58869957       1.72627296      -0.81362598
C       -0.51267345       0.41698220      -0.03446654
C       -1.16656133      -1.56894029       0.04411951
C        0.90177751      -0.09993505      -0.11737720
C        1.63301740      -0.49382857       1.07860808
O        1.05844890      -1.49064048       0.23312351
H        0.10578348       2.47680632      -0.43010577
H       -1.58484024       2.16614074      -0.74509013
H       -0.39059839       1.55671825      -1.87518950
H       -0.72518309       0.62896014       1.01822474
H       -1.80799206      -0.09967871      -0.23675071
H       -1.02941716      -2.38934617       0.75483814
H       -1.23630011      -1.95599982      -0.98108428
H        1.48077409       0.05644636      -1.02749099
H        2.71773166      -0.49326611       1.08563550
H        1.14473238      -0.43669176       2.04663162
16
Frame=15 idx=002565 GeodesicLength=2.142152937067773 rxn_smarts="[C:1]([C:2]([C:3]([H:11])([H:12])[H:13])([C@@:4]1([H:14])[C:5]([H:15])([H:16])[O:6]1)[H:10])([H:7])([H:8])[H:9]>>[C:1]([C:2]([C@@:4]1([H:14])[C:5]([H:15])([H:16])[O:6]1)([H:10])[H:11])([H:7])([H:8])[H:9].[C:3]([H:12])[H:13]"
C       -0.57769453       1.73286276      -0.78201089
C       -0.52328829       0.39522023      -0.05165449
C       -1.14777850      -1.54792009       0.03072399
C        0.89130187      -0.12499038      -0.13461164
C        1.64246334      -0.46368486       1.06497980
O        1.04020192      -1.49930081       0.28715656
H        0.11518986       2.46193363      -0.35656049
H       -1.57430596       2.17163716      -0.71404128
H       -0.35982104       1.60635106      -1.84577305
H       -0.75242963       0.56615021       1.00455151
H       -1.83209959      -0.13163009      -0.32756819
H       -1.07400092      -2.33415005       0.78734637
H       -1.18392389      -1.98084478      -0.97693554
H        1.43755035      -0.02468954      -1.07181972
H        2.72690533      -0.47561751       1.04932271
H        1.17172968      -0.35132694       2.03689434
16
Frame=16 idx=002565 GeodesicLength=2.2877802321185805 rxn_smarts="[C:1]([C:2]([C:3]([H:11])([H:12])[H:13])([C@@:4]1([H:14])[C:5]([H:15])([H:16])[O:6]1)[H:10])([H:7])([H:8])[H:9]>>[C:1]([C:2]([C@@:4]1([H:14])[C:5]([H:15])([H:16])[O:6]1)([H:10])[H:11])([H:7])([H:8])[H:9].[C:3]([H:12])[H:13]"
C       -0.56844937       1.73716012      -0.75119851
C       -0.53249702       0.37630349      -0.06526282
C       -1.12926830      -1.52586592       0.01748666
C        0.88201442      -0.14785988      -0.14954488
C        1.65168874      -0.43582751       1.05057276
O        1.02102359      -1.50337301       0.34024307
H        0.12076925       2.44594195      -0.28728977
H       -1.56662622       2.17265468      -0.68595227
H       -0.32966849       1.65009046      -1.81450309
H       -0.77519397       0.50957012       0.99287367
H       -1.85044208      -0.16492727      -0.41529516
H       -1.11810705      -2.27764909       0.81119863
H       -1.13309534      -2.00113763      -0.97076918
H        1.39406765      -0.10327444      -1.10941482
H        2.73522045      -0.46390317       1.01397076
H        1.19856374      -0.26790291       2.02288498
