13
Frame=0 idx=005007 GeodesicLength=0.0 rxn_smarts="[O:1]([C@@:2]1([H:8])[C:3]([H:9])([H:10])[N:4]2[C:5]([H:11])([H:12])[C@@:6]12[H:13])[H:7]>>[O:1]=[C:2]([C@@:6]1([H:13])[N:4]([C:3]([H:7])([H:9])[H:10])[C:5]1([H:11])[H:12])[H:8]"
O       -1.46955901      -1.15651959       0.87948714
C       -1.11502712      -0.37302371      -0.12657745
C       -0.15773476       1.13942646       0.45232796
N        0.85178975       0.69978311      -0.51416007
C        1.36184180      -0.60639640      -0.09643167
C        0.16056697      -0.54221666      -0.93200962
H       -0.93433981       0.04486012       1.07871445
H       -1.91712888       0.10300449      -0.70999996
H        0.24346192       1.32174916       1.45735299
H       -0.71630028       2.00529524       0.10780685
H        1.25733695      -0.90872183       0.94084186
H        2.29801579      -0.87419042      -0.56776274
H        0.13707665      -0.85304994      -1.96958980
13
Frame=1 idx=005007 GeodesicLength=0.08492046572501634 rxn_smarts="[O:1]([C@@:2]1([H:8])[C:3]([H:9])([H:10])[N:4]2[C:5]([H:11])([H:12])[C@@:6]12[H:13])[H:7]>>[O:1]=[C:2]([C@@:6]1([H:13])[N:4]([C:3]([H:7])([H:9])[H:10])[C:5]1([H:11])[H:12])[H:8]"
O       -1.47078625      -1.15284073       0.87628513
C       -1.11974605      -0.37667631      -0.13470651
C       -0.15723741       1.14059835       0.45711230
N        0.85117170       0.69892488      -0.51094095
C        1.36076864      -0.60696878      -0.09653575
C        0.15925792      -0.54167756      -0.93338541
H       -0.93301085       0.04598922       1.09995078
H       -1.92568837       0.08502454      -0.72388246
H        0.25399189       1.33269489       1.45583352
H       -0.71189269       2.00846492       0.11048582
H        1.25625389      -0.91103576       0.94031609
H        2.29687681      -0.87536934      -0.56789017
H        0.14004075      -0.84712834      -1.97264240
13
Frame=2 idx=005007 GeodesicLength=0.16967998940992524 rxn_smarts="[O:1]([C@@:2]1([H:8])[C:3]([H:9])([H:10])[N:4]2[C:5]([H:11])([H:12])[C@@:6]12[H:13])[H:7]>>[O:1]=[C:2]([C@@:6]1([H:13])[N:4]([C:3]([H:7])([H:9])[H:10])[C:5]1([H:11])[H:12])[H:8]"
O       -1.47223805      -1.14843098       0.87315684
C       -1.12459978      -0.38034554      -0.14323623
C       -0.15681345       1.14166507       0.46206051
N        0.85045471       0.69808024      -0.50765688
C        1.35961605      -0.60754497      -0.09665619
C        0.15792886      -0.54109038      -0.93485192
H       -0.93107365       0.04693610       1.12206080
H       -1.93424899       0.06646066      -0.73832252
H        0.26465228       1.34379135       1.45413158
H       -0.70753039       2.01153914       0.11334860
H        1.25502715      -0.91349494       0.93972280
H        2.29570260      -0.87646964      -0.56799503
H        0.14312266      -0.84109612      -1.97576235
13
Frame=3 idx=005007 GeodesicLength=0.2543397924035548 rxn_smarts="[O:1]([C@@:2]1([H:8])[C:3]([H:9])([H:10])[N:4]2[C:5]([H:11])([H:12])[C@@:6]12[H:13])[H:7]>>[O:1]=[C:2]([C@@:6]1([H:13])[N:4]([C:3]([H:7])([H:9])[H:10])[C:5]1([H:11])[H:12])[H:8]"
O       -1.47394001      -1.14319280       0.87011633
C       -1.12959818      -0.38403605      -0.15220338
C       -0.15647552       1.14261140       0.46718593
N        0.84962858       0.69724875      -0.50430162
C        1.35837792      -0.60812587      -0.09679431
C        0.15657937      -0.54045412      -0.93641722
H       -0.92844195       0.04767513       1.14511788
H       -1.94280197       0.04727688      -0.75336553
H        0.27543310       1.35504318       1.45223294
H       -0.70323206       2.01449849       0.11640624
H        1.25364465      -0.91611487       0.93905446
H        2.29449120      -0.87748427      -0.56807433
H        0.14633487      -0.83494585      -1.97895739
13
Frame=4 idx=005007 GeodesicLength=0.3389730583573893 rxn_smarts="[O:1]([C@@:2]1([H:8])[C:3]([H:9])([H:10])[N:4]2[C:5]([H:11])([H:12])[C@@:6]12[H:13])[H:7]>>[O:1]=[C:2]([C@@:6]1([H:13])[N:4]([C:3]([H:7])([H:9])[H:10])[C:5]1([H:11])[H:12])[H:8]"
O       -1.47592226      -1.13700088       0.86718365
C       -1.13475114      -0.38775579      -0.16165150
C       -0.15623776       1.14341808       0.47250519
N        0.84868116       0.69642957      -0.50086791
C        1.35704761      -0.60871285      -0.09695234
C        0.15520972      -0.53976787      -0.93809106
H       -0.92501506       0.04817766       1.16920507
H       -1.95133751       0.02742851      -0.76906397
H        0.28631699       1.36645130       1.45012160
H       -0.69901930       2.01731936       0.11967202
H        1.25209309      -0.91891535       0.93830120
H        2.29324152      -0.87840399      -0.56812600
H        0.14969292      -0.82866774      -1.98223594
13
Frame=5 idx=005007 GeodesicLength=0.42359849064552735 rxn_smarts="[O:1]([C@@:2]1([H:8])[C:3]([H:9])([H:10])[N:4]2[C:5]([H:11])([H:12])[C@@:6]12[H:13])[H:7]>>[O:1]=[C:2]([C@@:6]1([H:13])[N:4]([C:3]([H:7])([H:9])[H:10])[C:5]1([H:11])[H:12])[H:8]"
O       -1.47820973      -1.12973734       0.86437612
C       -1.14006779      -0.39151361      -0.17162067
C       -0.15611311       1.14406882       0.47803193
N        0.84760177       0.69562149      -0.49734935
C        1.35561849      -0.60930723      -0.09713165
C        0.15382005      -0.53903059      -0.93988291
H       -0.92070199       0.04841604       1.19439238
H       -1.95984497       0.00687387      -0.78545940
H        0.29728715       1.37801567       1.44778557
H       -0.69491174       2.01998092       0.12315736
H        1.25035903      -0.92191299       0.93745484
H        2.29195206      -0.87922161      -0.56814656
H        0.15321080      -0.82225345      -1.98560765
13
Frame=6 idx=005007 GeodesicLength=0.5082560797858202 rxn_smarts="[O:1]([C@@:2]1([H:8])[C:3]([H:9])([H:10])[N:4]2[C:5]([H:11])([H:12])[C@@:6]12[H:13])[H:7]>>[O:1]=[C:2]([C@@:6]1([H:13])[N:4]([C:3]([H:7])([H:9])[H:10])[C:5]1([H:11])[H:12])[H:8]"
O       -1.48083561      -1.12124196       0.86171432
C       -1.14555577      -0.39532166      -0.18215690
C       -0.15611451       1.14454289       0.48378685
N        0.84637809       0.69482376      -0.49373691
C        1.35408316      -0.60991109      -0.09733506
C        0.15241041      -0.53823944      -0.94180364
H       -0.91539208       0.04835871       1.22076200
H       -1.96831009      -0.01445154      -0.80260324
H        0.30831713       1.38973281       1.44520833
H       -0.69093295       2.02245600       0.12687680
H        1.24842723      -0.92513251       0.93650250
H        2.29062028      -0.87992832      -0.56813374
H        0.15690470      -0.81568764      -1.98908132
13
Frame=7 idx=005007 GeodesicLength=0.5929859672993827 rxn_smarts="[O:1]([C@@:2]1([H:8])[C:3]([H:9])([H:10])[N:4]2[C:5]([H:11])([H:12])[C@@:6]12[H:13])[H:7]>>[O:1]=[C:2]([C@@:6]1([H:13])[N:4]([C:3]([H:7])([H:9])[H:10])[C:5]1([H:11])[H:12])[H:8]"
O       -1.48382832      -1.11133838       0.85921760
C       -1.15122468      -0.39920316      -0.19331227
C       -0.15626044       1.14481469       0.48978852
N        0.84499392       0.69403343      -0.49002125
C        1.35243333      -0.61052705      -0.09756528
C        0.15098121      -0.53739392      -0.94386624
H       -0.90896803       0.04797568       1.24839667
H       -1.97671706      -0.03660479      -0.82054188
H        0.31938243       1.40159990       1.44237945
H       -0.68711101       2.02471272       0.13084511
H        1.24627961      -0.92859913       0.93543205
H        2.28924465      -0.88051325      -0.56808316
H        0.16079438      -0.80895672      -1.99266933
13
Frame=8 idx=005007 GeodesicLength=0.67779154743355 rxn_smarts="[O:1]([C@@:2]1([H:8])[C:3]([H:9])([H:10])[N:4]2[C:5]([H:11])([H:12])[C@@:6]12[H:13])[H:7]>>[O:1]=[C:2]([C@@:6]1([H:13])[N:4]([C:3]([H:7])([H:9])[H:10])[C:5]1([H:11])[H:12])[H:8]"
O       -1.48722052      -1.09982464       0.85690665
C       -1.15707894      -0.40318026      -0.20513661
C       -0.15656166       1.14486127       0.49605891
N        0.84343810       0.69324838      -0.48619245
C        1.35066079      -0.61115812      -0.09782485
C        0.14953447      -0.53648893      -0.94608521
H       -0.90131358       0.04723212       1.27736753
H       -1.98505587      -0.05966986      -0.83931218
H        0.33044427       1.41360679       1.43928792
H       -0.68346707       2.02672063       0.13507683
H        1.24389796      -0.93234068       0.93422803
H        2.28782291      -0.88096780      -0.56799008
H        0.16489915      -0.80203889      -1.99638449
13
Frame=9 idx=005007 GeodesicLength=0.7627351193286324 rxn_smarts="[O:1]([C@@:2]1([H:8])[C:3]([H:9])([H:10])[N:4]2[C:5]([H:11])([H:12])[C@@:6]12[H:13])[H:7]>>[O:1]=[C:2]([C@@:6]1([H:13])[N:4]([C:3]([H:7])([H:9])[H:10])[C:5]1([H:11])[H:12])[H:8]"
O       -1.49103391      -1.08639995       0.85482830
C       -1.16313017      -0.40731481      -0.21768780
C       -0.15705069       1.14463774       0.50263225
N        0.84167832       0.69246326      -0.48223863
C        1.34875696      -0.61180652      -0.09812031
C        0.14806706      -0.53553370      -0.94847220
H       -0.89226904       0.04607868       1.30777273
H       -1.99327620      -0.08368591      -0.85900385
H        0.34144589       1.42572503       1.43592161
H       -0.68005289       2.02842496       0.13959523
H        1.24126857      -0.93639328       0.93287054
H        2.28635646      -0.88126774      -0.56786012
H        0.16923964      -0.79492774      -2.00023776
13
Frame=10 idx=005007 GeodesicLength=0.8477059499314258 rxn_smarts="[O:1]([C@@:2]1([H:8])[C:3]([H:9])([H:10])[N:4]2[C:5]([H:11])([H:12])[C@@:6]12[H:13])[H:7]>>[O:1]=[C:2]([C@@:6]1([H:13])[N:4]([C:3]([H:7])([H:9])[H:10])[C:5]1([H:11])[H:12])[H:8]"
O       -1.49529191      -1.07088464       0.85296145
C       -1.16936920      -0.41161948      -0.23099788
C       -0.15771603       1.14414401       0.50951941
N        0.83972082       0.69167904      -0.47815144
C        1.34671338      -0.61247666      -0.09845312
C        0.14658423      -0.53450705      -0.95104536
H       -0.88178700       0.04449670       1.33962109
H       -2.00139040      -0.10880973      -0.87957379
H        0.35236429       1.43793985       1.43229490
H       -0.67686166       2.02981886       0.14440388
H        1.23836470      -0.94077884       0.93134579
H        2.28483905      -0.88141962      -0.56768109
H        0.17382973      -0.78758244      -2.00424385
13
Frame=11 idx=005007 GeodesicLength=0.9326608610431188 rxn_smarts="[O:1]([C@@:2]1([H:8])[C:3]([H:9])([H:10])[N:4]2[C:5]([H:11])([H:12])[C@@:6]12[H:13])[H:7]>>[O:1]=[C:2]([C@@:6]1([H:13])[N:4]([C:3]([H:7])([H:9])[H:10])[C:5]1([H:11])[H:12])[H:8]"
O       -1.50000386      -1.05300264       0.85130014
C       -1.17579134      -0.41614792      -0.24509362
C       -0.15856331       1.14336649       0.51674465
N        0.83755300       0.69089506      -0.47392255
C        1.34452063      -0.61317129      -0.09882841
C        0.14508300      -0.53340154      -0.95381672
H       -0.86979871       0.04244457       1.37293916
H       -2.00936317      -0.13516188      -0.90102979
H        0.36316449       1.45021796       1.42842094
H       -0.67391265       2.03088007       0.14951736
H        1.23516582      -0.94552360       0.92963639
H        2.28326802      -0.88141675      -0.56745641
H        0.17867807      -0.77997852      -2.00841114
13
Frame=12 idx=005007 GeodesicLength=1.0175509093215358 rxn_smarts="[O:1]([C@@:2]1([H:8])[C:3]([H:9])([H:10])[N:4]2[C:5]([H:11])([H:12])[C@@:6]12[H:13])[H:7]>>[O:1]=[C:2]([C@@:6]1([H:13])[N:4]([C:3]([H:7])([H:9])[H:10])[C:5]1([H:11])[H:12])[H:8]"
O       -1.50516855      -1.03249478       0.84983164
C       -1.18238511      -0.42094722      -0.26000174
C       -0.15958144       1.14229693       0.52432869
N        0.83517288       0.69011126      -0.46954330
C        1.34216988      -0.61389448      -0.09925171
C        0.14356503      -0.53219848      -0.95680422
H       -0.85627094       0.03990358       1.40771636
H       -2.01718176      -0.16290095      -0.92333284
H        0.37380286       1.46251756       1.42432448
H       -0.67120119       2.03159376       0.15494544
H        1.23164785      -0.95065164       0.92772354
H        2.28163648      -0.88126079      -0.56718257
H        0.18379403      -0.77207474      -2.01275376
13
Frame=13 idx=005007 GeodesicLength=1.1023214674579576 rxn_smarts="[O:1]([C@@:2]1([H:8])[C:3]([H:9])([H:10])[N:4]2[C:5]([H:11])([H:12])[C@@:6]12[H:13])[H:7]>>[O:1]=[C:2]([C@@:6]1([H:13])[N:4]([C:3]([H:7])([H:9])[H:10])[C:5]1([H:11])[H:12])[H:8]"
O       -1.51075789      -1.00908501       0.84852024
C       -1.18913538      -0.42608533      -0.27572439
C       -0.16075728       1.14093900       0.53228936
N        0.83257811       0.68933012      -0.46500843
C        1.33965160      -0.61464881      -0.09973001
C        0.14202673      -0.53087791      -0.96002134
H       -0.84123216       0.03684722       1.44390143
H       -2.02481265      -0.19219564      -0.94641812
H        0.38425636       1.47478423       1.42005065
H       -0.66871698       2.03195971       0.16069666
H        1.22778784      -0.95617858       0.92558915
H        2.27993630      -0.88095536      -0.56686280
H        0.18917539      -0.76383364      -2.01728242
13
Frame=14 idx=005007 GeodesicLength=1.1869248780317987 rxn_smarts="[O:1]([C@@:2]1([H:8])[C:3]([H:9])([H:10])[N:4]2[C:5]([H:11])([H:12])[C@@:6]12[H:13])[H:7]>>[O:1]=[C:2]([C@@:6]1([H:13])[N:4]([C:3]([H:7])([H:9])[H:10])[C:5]1([H:11])[H:12])[H:8]"
O       -1.51673422      -0.98253356       0.84729348
C       -1.19601225      -0.43161658      -0.29223775
C       -0.16204674       1.13931767       0.54064351
N        0.82978483       0.68855861      -0.46031389
C        1.33695649      -0.61543730      -0.10027141
C        0.14046495      -0.52940185      -0.96348258
H       -0.82478711       0.03327134       1.48138920
H       -2.03224097      -0.22328831      -0.97016289
H        0.39450629       1.48695340       1.41565765
H       -0.66641279       2.03200181       0.16677666
H        1.22355953      -0.96211339       0.92321561
H        2.27815475      -0.88051871      -0.56650226
H        0.19480722      -0.75519315      -2.02200533
13
Frame=15 idx=005007 GeodesicLength=1.2713337294502354 rxn_smarts="[O:1]([C@@:2]1([H:8])[C:3]([H:9])([H:10])[N:4]2[C:5]([H:11])([H:12])[C@@:6]12[H:13])[H:7]>>[O:1]=[C:2]([C@@:6]1([H:13])[N:4]([C:3]([H:7])([H:9])[H:10])[C:5]1([H:11])[H:12])[H:8]"
O       -1.52302390      -0.95265651       0.84604710
C       -1.20298330      -0.43759578      -0.30949010
C       -0.16339079       1.13747636       0.54940165
N        0.82681678       0.68780792      -0.45545987
C        1.33407405      -0.61626107      -0.10088501
C        0.13887174      -0.52772456      -0.96719860
H       -0.80713762       0.02918881       1.52001229
H       -2.03943723      -0.25643753      -0.99438957
H        0.40455678       1.49894956       1.41122364
H       -0.66421502       2.03176951       0.17319016
H        1.21893795      -0.96844929       0.92058843
H        2.27627292      -0.87997762      -0.56611115
H        0.20065763      -0.74608981      -2.02692897
13
Frame=16 idx=005007 GeodesicLength=1.3555803171945282 rxn_smarts="[O:1]([C@@:2]1([H:8])[C:3]([H:9])([H:10])[N:4]2[C:5]([H:11])([H:12])[C@@:6]12[H:13])[H:7]>>[O:1]=[C:2]([C@@:6]1([H:13])[N:4]([C:3]([H:7])([H:9])[H:10])[C:5]1([H:11])[H:12])[H:8]"
O       -1.52952921      -0.91931968       0.84462945
C       -1.21000692      -0.44407095      -0.32739821
C       -0.16470670       1.13548312       0.55857291
N        0.82371207       0.68709719      -0.45044993
C        1.33099199      -0.61712074      -0.10158312
C        0.13723616      -0.52578406      -0.97118027
H       -0.78859012       0.02463952       1.55954964
H       -2.04637324      -0.29197172      -1.01886081
H        0.41443913       1.51068311       1.40684746
H       -0.66201118       2.03134663       0.17994587
H        1.21389451      -0.97516874       0.91769554
H        2.27426494      -0.87937185      -0.56570812
H        0.20667856      -0.73644181      -2.03206041
