16
Frame=0 idx=007670 GeodesicLength=0.0 rxn_smarts="[C:1]([O:2][C:3](/[C:4](=[N:5]\[O:6][H:13])[C:7]([H:14])([H:15])[H:16])([H:11])[H:12])([H:8])([H:9])[H:10]>>[C:1]([O:2][C:3]([C:4]([N:5]=[O:6])=[C:7]([H:14])[H:16])([H:11])[H:12])([H:8])([H:9])[H:10].[H:13][H:15]"
C        1.98629476       0.34829026      -0.18865803
O        1.25356355      -0.42494516       0.73685328
C        0.10013905       0.19414399       1.25072161
C       -1.19734582      -0.12935116       0.55071558
N       -1.97198209       0.82527171      -0.06094857
O       -1.12092343       1.45279028      -0.80279195
C       -1.36975478      -1.28825219      -0.18639908
H        2.94481966      -0.15097212      -0.32442323
H        1.48281961       0.42333966      -1.15678406
H        2.16178861       1.36031561       0.19226063
H        0.21491888       1.28059717       1.30930762
H       -0.01549402      -0.18766959       2.27109842
H       -0.70648606       0.45636107      -1.48818124
H       -0.68913490      -2.12447499      -0.08441298
H       -0.72977859      -0.56435587      -1.38636177
H       -2.34344443      -1.47108872      -0.63199619
16
Frame=1 idx=007670 GeodesicLength=0.0846580279503729 rxn_smarts="[C:1]([O:2][C:3](/[C:4](=[N:5]\[O:6][H:13])[C:7]([H:14])([H:15])[H:16])([H:11])[H:12])([H:8])([H:9])[H:10]>>[C:1]([O:2][C:3]([C:4]([N:5]=[O:6])=[C:7]([H:14])[H:16])([H:11])[H:12])([H:8])([H:9])[H:10].[H:13][H:15]"
C        1.98936501       0.33038936      -0.18258953
O        1.25524260      -0.42504881       0.75583900
C        0.09894168       0.20399884       1.24979771
C       -1.19330206      -0.13915440       0.55008444
N       -1.98630221       0.81383461      -0.03850866
O       -1.15722075       1.47146184      -0.78055213
C       -1.34721096      -1.29272854      -0.20302517
H        2.94268816      -0.17878044      -0.31810796
H        1.48105937       0.40093914      -1.14863057
H        2.17629710       1.34513664       0.18576655
H        0.21624178       1.29102991       1.29148091
H       -0.02337274      -0.15392194       2.27794245
H       -0.73337035       0.49462208      -1.50702513
H       -0.66689007      -2.12737518      -0.08647426
H       -0.72662678      -0.54593376      -1.41321260
H       -2.32553976      -1.48846935      -0.63278504
16
Frame=2 idx=007670 GeodesicLength=0.16901157292047492 rxn_smarts="[C:1]([O:2][C:3](/[C:4](=[N:5]\[O:6][H:13])[C:7]([H:14])([H:15])[H:16])([H:11])[H:12])([H:8])([H:9])[H:10]>>[C:1]([O:2][C:3]([C:4]([N:5]=[O:6])=[C:7]([H:14])[H:16])([H:11])[H:12])([H:8])([H:9])[H:10].[H:13][H:15]"
C        1.99237422       0.31218147      -0.17641586
O        1.25688358      -0.42478769       0.77497448
C        0.09783666       0.21395091       1.24868343
C       -1.18900631      -0.14891424       0.54944145
N       -2.00034748       0.80163980      -0.01600496
O       -1.19421372       1.48922920      -0.75754139
C       -1.32412970      -1.29653530      -0.21997377
H        2.94046031      -0.20690536      -0.31103781
H        1.47950646       0.37781057      -1.14050848
H        2.19059553       1.32959436       0.17879383
H        0.21765214       1.30130918       1.27296320
H       -0.03133721      -0.11975711       2.28401904
H       -0.76120789       0.53353726      -1.52492847
H       -0.64495346      -2.12996912      -0.08807783
H       -0.72364366      -0.52668782      -1.44022799
H       -2.30646947      -1.50569611      -0.63415886
16
Frame=3 idx=007670 GeodesicLength=0.25313472559024786 rxn_smarts="[C:1]([O:2][C:3](/[C:4](=[N:5]\[O:6][H:13])[C:7]([H:14])([H:15])[H:16])([H:11])[H:12])([H:8])([H:9])[H:10]>>[C:1]([O:2][C:3]([C:4]([N:5]=[O:6])=[C:7]([H:14])[H:16])([H:11])[H:12])([H:8])([H:9])[H:10].[H:13][H:15]"
C        1.99535234       0.29367589      -0.17011596
O        1.25847976      -0.42414775       0.79421113
C        0.09683199       0.22401285       1.24733975
C       -1.18446177      -0.15863247       0.54879420
N       -2.01411113       0.78865138       0.00655899
O       -1.23191040       1.50602348      -0.73373167
C       -1.30054294      -1.29966058      -0.23719515
H        2.93815783      -0.23534250      -0.30317375
H        1.47821737       0.35399427      -1.13239958
H        2.20473740       1.31366498       0.17139633
H        0.21914021       1.31142610       1.25367897
H       -0.03935902      -0.08513575       2.28928368
H       -0.79007956       0.57310358      -1.54186681
H       -0.62338798      -2.13224203      -0.08924298
H       -0.72083788      -0.50669233      -1.46736671
H       -2.28622623      -1.52269912      -0.63617043
16
Frame=4 idx=007670 GeodesicLength=0.3370569965782636 rxn_smarts="[C:1]([O:2][C:3](/[C:4](=[N:5]\[O:6][H:13])[C:7]([H:14])([H:15])[H:16])([H:11])[H:12])([H:8])([H:9])[H:10]>>[C:1]([O:2][C:3]([C:4]([N:5]=[O:6])=[C:7]([H:14])[H:16])([H:11])[H:12])([H:8])([H:9])[H:10].[H:13][H:15]"
C        1.99832738       0.27488840      -0.16366416
O        1.26002441      -0.42311546       0.81350243
C        0.09593598       0.23419545       1.24573121
C       -1.17967579      -0.16831175       0.54815743
N       -2.02757721       0.77485537       0.02918789
O       -1.27028488       1.52177529      -0.70911425
C       -1.27649048      -1.30210211      -0.25462878
H        2.93580833      -0.26407402      -0.29446868
H        1.47724861       0.32952755      -1.12428968
H        2.21876656       1.29733262       0.16363216
H        0.22069529       1.32136610       1.23355666
H       -0.04740199      -0.05002575       2.29369483
H       -0.82009572       0.61327288      -1.55782303
H       -0.60224069      -2.13417807      -0.09002239
H       -0.71820709      -0.48601682      -1.49458056
H       -2.26483271      -1.53938967      -0.63887108
16
Frame=5 idx=007670 GeodesicLength=0.4208646101136829 rxn_smarts="[C:1]([O:2][C:3](/[C:4](=[N:5]\[O:6][H:13])[C:7]([H:14])([H:15])[H:16])([H:11])[H:12])([H:8])([H:9])[H:10]>>[C:1]([O:2][C:3]([C:4]([N:5]=[O:6])=[C:7]([H:14])[H:16])([H:11])[H:12])([H:8])([H:9])[H:10].[H:13][H:15]"
C        2.00132367       0.25583241      -0.15703883
O        1.26150896      -0.42168082       0.83280895
C        0.09515669       0.24451148       1.24382776
C       -1.17465745      -0.17795817       0.54755477
N       -2.04072943       0.76023960       0.05187493
O       -1.30931261       1.53641699      -0.68366600
C       -1.25202322      -1.30386213      -0.27220839
H        2.93343466      -0.29308363      -0.28488501
H        1.47664994       0.30444641      -1.11615829
H        2.23272260       1.28058020       0.15555447
H        0.22230278       1.33111579       1.21252658
H       -0.05542838      -0.01438698       2.29721532
H       -0.85134706       0.65401644      -1.57279619
H       -0.58154465      -2.13576183      -0.09049132
H       -0.71572273      -0.46474638      -1.52181566
H       -2.24233377      -1.55567940      -0.64230309
16
Frame=6 idx=007670 GeodesicLength=0.5046007826548712 rxn_smarts="[C:1]([O:2][C:3](/[C:4](=[N:5]\[O:6][H:13])[C:7]([H:14])([H:15])[H:16])([H:11])[H:12])([H:8])([H:9])[H:10]>>[C:1]([O:2][C:3]([C:4]([N:5]=[O:6])=[C:7]([H:14])[H:16])([H:11])[H:12])([H:8])([H:9])[H:10].[H:13][H:15]"
C        2.00436928       0.23652178      -0.15020789
O        1.26292940      -0.41983389       0.85209251
C        0.09450314       0.25497111       1.24159810
C       -1.16940960      -0.18757489       0.54700906
N       -2.05353669       0.74480045       0.07462170
O       -1.34894853       1.54987316      -0.65737905
C       -1.22719752      -1.30494513      -0.28986392
H        2.93105948      -0.32234722      -0.27436753
H        1.47647718       0.27877810      -1.10799062
H        2.24664609       1.26339354       0.14722578
H        0.22395157       1.34065173       1.19051077
H       -0.06340167       0.02182306       2.29979956
H       -0.88400109       0.69528942      -1.58676895
H       -0.56132101      -2.13696761      -0.09074874
H       -0.71332763      -0.44297205      -1.54902209
H       -2.21879241      -1.57146155      -0.64650868
16
Frame=7 idx=007670 GeodesicLength=0.58825614193308 rxn_smarts="[C:1]([O:2][C:3](/[C:4](=[N:5]\[O:6][H:13])[C:7]([H:14])([H:15])[H:16])([H:11])[H:12])([H:8])([H:9])[H:10]>>[C:1]([O:2][C:3]([C:4]([N:5]=[O:6])=[C:7]([H:14])[H:16])([H:11])[H:12])([H:8])([H:9])[H:10].[H:13][H:15]"
C        2.00748861       0.21697117      -0.14313909
O        1.26427790      -0.41756853       0.87132368
C        0.09398443       0.26558362       1.23901753
C       -1.16394604      -0.19716644       0.54654715
N       -2.06596326       0.72855760       0.09741989
O       -1.38913134       1.56207459      -0.63024858
C       -1.20207532      -1.30535804      -0.30752699
H        2.92870676      -0.35184060      -0.26287002
H        1.47678127       0.25255334      -1.09976528
H        2.26057476       1.24575735       0.13871355
H        0.22563014       1.34994691       1.16743684
H       -0.07128234       0.05864947       2.30140379
H       -0.91822459       0.73700177      -1.59973102
H       -0.54156264      -2.13777060      -0.09092052
H       -0.71096370      -0.42075440      -1.57614569
H       -2.19429465      -1.58663720      -0.65151524
16
Frame=8 idx=007670 GeodesicLength=0.6718256593429299 rxn_smarts="[C:1]([O:2][C:3](/[C:4](=[N:5]\[O:6][H:13])[C:7]([H:14])([H:15])[H:16])([H:11])[H:12])([H:8])([H:9])[H:10]>>[C:1]([O:2][C:3]([C:4]([N:5]=[O:6])=[C:7]([H:14])[H:16])([H:11])[H:12])([H:8])([H:9])[H:10].[H:13][H:15]"
C        2.01070486       0.19719897      -0.13579736
O        1.26554918      -0.41487979       0.89047002
C        0.09360940       0.27635615       1.23606084
C       -1.15827196      -0.20673615       0.54620169
N       -2.07796391       0.71153824       0.12025576
O       -1.42978268       1.57294933      -0.60228001
C       -1.17672788      -1.30510894      -0.32512558
H        2.92639328      -0.38153189      -0.25033732
H        1.47761184       0.22579975      -1.09145729
H        2.27454292       1.22766043       0.13008993
H        0.22732736       1.35896485       1.14323697
H       -0.07902821       0.09612659       2.30197870
H       -0.95420991       0.77906145      -1.61167573
H       -0.52225549      -2.13813615      -0.09114680
H       -0.70855318      -0.39816481      -1.60313844
H       -2.16894562      -1.60109803      -0.65733537
16
Frame=9 idx=007670 GeodesicLength=0.7548794395186098 rxn_smarts="[C:1]([O:2][C:3](/[C:4](=[N:5]\[O:6][H:13])[C:7]([H:14])([H:15])[H:16])([H:11])[H:12])([H:8])([H:9])[H:10]>>[C:1]([O:2][C:3]([C:4]([N:5]=[O:6])=[C:7]([H:14])[H:16])([H:11])[H:12])([H:8])([H:9])[H:10].[H:13][H:15]"
C        2.01404987       0.17721288      -0.12813007
O        1.26673630      -0.41178515       0.90952117
C        0.09338558       0.28730567       1.23270585
C       -1.15240129      -0.21629113       0.54600879
N       -2.08950754       0.69386317       0.14315768
O       -1.47086558       1.58243536      -0.57360788
C       -1.15122074      -1.30420675      -0.34264130
H        2.92412802      -0.41140542      -0.23670452
H        1.47903101       0.19853144      -1.08301925
H        2.28860048       1.20907838       0.12145891
H        0.22902222       1.36767124       1.11783189
H       -0.08654311       0.13430493       2.30151669
H       -0.99217358       0.82108683      -1.62253102
H       -0.50329871      -2.13802103      -0.09169047
H       -0.70607371      -0.37504543      -1.62992903
H       -2.14286922      -1.61473500      -0.66394742
16
Frame=10 idx=007670 GeodesicLength=0.8378316451538801 rxn_smarts="[C:1]([O:2][C:3](/[C:4](=[N:5]\[O:6][H:13])[C:7]([H:14])([H:15])[H:16])([H:11])[H:12])([H:8])([H:9])[H:10]>>[C:1]([O:2][C:3]([C:4]([N:5]=[O:6])=[C:7]([H:14])[H:16])([H:11])[H:12])([H:8])([H:9])[H:10].[H:13][H:15]"
C        2.01753521       0.15704420      -0.12012269
O        1.26782928      -0.40826424       0.92843046
C        0.09331634       0.29842088       1.22891523
C       -1.14633872      -0.22582712       0.54597879
N       -2.10053483       0.67550193       0.16609747
O       -1.51219738       1.59051091      -0.54410800
C       -1.12564124      -1.30265500      -0.35998127
H        2.92194845      -0.44139807      -0.22193798
H        1.48106662       0.17078399      -1.07444688
H        2.30275149       1.19002664       0.11285733
H        0.23070948       1.37600440       1.09118427
H       -0.09387044       0.17318115       2.29991626
H       -1.03226605       0.86321848      -1.63236893
H       -0.48473596      -2.13742719      -0.09254796
H       -0.70338883      -0.35164427      -1.65650975
H       -2.11618342      -1.62747670      -0.67135634
16
Frame=11 idx=007670 GeodesicLength=0.9207282696154567 rxn_smarts="[C:1]([O:2][C:3](/[C:4](=[N:5]\[O:6][H:13])[C:7]([H:14])([H:15])[H:16])([H:11])[H:12])([H:8])([H:9])[H:10]>>[C:1]([O:2][C:3]([C:4]([N:5]=[O:6])=[C:7]([H:14])[H:16])([H:11])[H:12])([H:8])([H:9])[H:10].[H:13][H:15]"
C        2.02117319       0.13672730      -0.11174991
O        1.26881808      -0.40432277       0.94716389
C        0.09340434       0.30969296       1.22466736
C       -1.14009927      -0.23534576       0.54612794
N       -2.11099777       0.65652110       0.18906384
O       -1.55361928       1.59717728      -0.51380168
C       -1.10007139      -1.30047677      -0.37709300
H        2.91987432      -0.47144833      -0.20601322
H        1.48374601       0.14259820      -1.06572143
H        2.31700805       1.17051713       0.10436058
H        0.23237684       1.38390273       1.06327071
H       -0.10098889       0.21274201       2.29712801
H       -1.07464149       0.90536845      -1.64121521
H       -0.46655497      -2.13636064      -0.09380701
H       -0.70039700      -0.32803034      -1.68285800
H       -2.08903077      -1.63926255      -0.67952287
16
Frame=12 idx=007670 GeodesicLength=1.0035762972141735 rxn_smarts="[C:1]([O:2][C:3](/[C:4](=[N:5]\[O:6][H:13])[C:7]([H:14])([H:15])[H:16])([H:11])[H:12])([H:8])([H:9])[H:10]>>[C:1]([O:2][C:3]([C:4]([N:5]=[O:6])=[C:7]([H:14])[H:16])([H:11])[H:12])([H:8])([H:9])[H:10].[H:13][H:15]"
C        2.02498111       0.11629060      -0.10298005
O        1.26969500      -0.39996778       0.96569220
C        0.09365259       0.32111077       1.21993330
C       -1.13368976      -0.24485153       0.54647045
N       -2.12084765       0.63699222       0.21204501
O       -1.59498818       1.60243233      -0.48269786
C       -1.07459125      -1.29768814      -0.39394095
H        2.91792345      -0.50149834      -0.18889548
H        1.48709667       0.11400481      -1.05681876
H        2.33138592       1.15056070       0.09604298
H        0.23401644       1.39130270       1.03405868
H       -0.10788202       0.25297930       2.29308916
H       -1.11946732       0.94743423      -1.64907657
H       -0.44873662      -2.13482693      -0.09555074
H       -0.69699411      -0.30424442      -1.70897077
H       -2.06155429      -1.65003050      -0.68840060
16
Frame=13 idx=007670 GeodesicLength=1.0863871925330457 rxn_smarts="[C:1]([O:2][C:3](/[C:4](=[N:5]\[O:6][H:13])[C:7]([H:14])([H:15])[H:16])([H:11])[H:12])([H:8])([H:9])[H:10]>>[C:1]([O:2][C:3]([C:4]([N:5]=[O:6])=[C:7]([H:14])[H:16])([H:11])[H:12])([H:8])([H:9])[H:10].[H:13][H:15]"
C        2.02896456       0.09577481      -0.09379364
O        1.27045211      -0.39521148       0.98398468
C        0.09406362       0.33265528       1.21469610
C       -1.12711983      -0.25434004       0.54700897
N       -2.13002873       0.61700258       0.23501427
O       -1.63610287       1.60632181      -0.45083184
C       -1.04928032      -1.29431261      -0.41049463
H        2.91611615      -0.53146578      -0.17056742
H        1.49113347       0.08503545      -1.04771482
H        2.34587758       1.13018527       0.08796607
H        0.23561899       1.39813153       1.00356598
H       -0.11453776       0.29384188       2.28775148
H       -1.16691142       0.98931491      -1.65597262
H       -0.43127751      -2.13285233      -0.09783194
H       -0.69306588      -0.28034071      -1.73485497
H       -2.03390218      -1.65974056      -0.69792566
16
Frame=14 idx=007670 GeodesicLength=1.1690955924774395 rxn_smarts="[C:1]([O:2][C:3](/[C:4](=[N:5]\[O:6][H:13])[C:7]([H:14])([H:15])[H:16])([H:11])[H:12])([H:8])([H:9])[H:10]>>[C:1]([O:2][C:3]([C:4]([N:5]=[O:6])=[C:7]([H:14])[H:16])([H:11])[H:12])([H:8])([H:9])[H:10].[H:13][H:15]"
C        2.03313487       0.07521145      -0.08416332
O        1.27108561      -0.39006517       1.00201757
C        0.09464187       0.34430875       1.20893332
C       -1.12039329      -0.26381269       0.54774787
N       -2.13848378       0.59665057       0.25794828
O       -1.67680341       1.60886290      -0.41823649
C       -1.02420544      -1.29036404      -0.42674237
H        2.91446612      -0.56128929      -0.15100458
H        1.49586999       0.05571433      -1.03838079
H        2.36048748       1.10941203       0.08020017
H        0.23717839       1.40431696       0.97179342
H       -0.12094142       0.33529707       2.28105541
H       -1.21713877       1.03087848      -1.66189176
H       -0.41417225      -2.13045153      -0.10070315
H       -0.68851863      -0.25631659      -1.76053372
H       -2.00620734      -1.66835326      -0.70803986
16
Frame=15 idx=007670 GeodesicLength=1.251655510381215 rxn_smarts="[C:1]([O:2][C:3](/[C:4](=[N:5]\[O:6][H:13])[C:7]([H:14])([H:15])[H:16])([H:11])[H:12])([H:8])([H:9])[H:10]>>[C:1]([O:2][C:3]([C:4]([N:5]=[O:6])=[C:7]([H:14])[H:16])([H:11])[H:12])([H:8])([H:9])[H:10].[H:13][H:15]"
C        2.03749049       0.05464560      -0.07407307
O        1.27159219      -0.38454422       1.01976421
C        0.09539006       0.35604239       1.20263729
C       -1.11351465      -0.27326203       0.54868036
N       -2.14615380       0.57605789       0.28080088
O       -1.71688026       1.61012038      -0.38496912
C       -0.99943461      -1.28586484      -0.44267204
H        2.91298837      -0.59087682      -0.13020432
H        1.50130019       0.02606757      -1.02878826
H        2.37519521       1.08828059       0.07280190
H        0.23869185       1.40977998       0.93879685
H       -0.12707968       0.37725851       2.27295590
H       -1.27029855       1.07199376      -1.66683427
H       -0.39743041      -2.12765631      -0.10418606
H       -0.68324893      -0.23219799      -1.78604167
H       -1.97860748      -1.67584446      -0.71866858
16
Frame=16 idx=007670 GeodesicLength=1.3339846233624484 rxn_smarts="[C:1]([O:2][C:3](/[C:4](=[N:5]\[O:6][H:13])[C:7]([H:14])([H:15])[H:16])([H:11])[H:12])([H:8])([H:9])[H:10]>>[C:1]([O:2][C:3]([C:4]([N:5]=[O:6])=[C:7]([H:14])[H:16])([H:11])[H:12])([H:8])([H:9])[H:10].[H:13][H:15]"
C        2.04202941       0.03411845      -0.06350699
O        1.27197096      -0.37866421       1.03720391
C        0.09631193       0.36782638       1.19580171
C       -1.10648387      -0.28267720       0.54979518
N       -2.15297598       0.55534813       0.30352952
O       -1.75612653       1.61017124      -0.35110026
C       -0.97502676      -1.28083211      -0.45828414
H        2.91169280      -0.62014059      -0.10816771
H        1.50741104      -0.00388397      -1.01890403
H        2.38998116       1.06682934       0.06582314
H        0.24015910       1.41444272       0.90464315
H       -0.13294644       0.41963653       2.26341100
H       -1.32654228       1.11250122      -1.67078331
H       -0.38106129      -2.12450189      -0.10829520
H       -0.67716469      -0.20798314      -1.81142298
H       -1.95122854      -1.68219093      -0.72974298
