17
Frame=0 idx=008613 GeodesicLength=0.0 rxn_smarts="[C:1]([C@@:2]1([H:11])[C:3]([H:12])([H:13])[C@@:4]2([O:5][H:14])[C:6]([H:15])([H:16])[C@@:7]12[H:17])([H:8])([H:9])[H:10]>>[C:1]([C@@:2]1([H:11])[C:3]([H:12])([H:13])[C@@:4]([O:5][H:14])([H:16])[C:6]([H:15])=[C:7]1[H:17])([H:8])([H:9])[H:10]"
C        2.06316365       0.52918672      -0.18296226
C        0.91232395      -0.45105617      -0.25539515
C        0.06384806      -0.65931483       1.02761498
C       -1.20596822      -0.17441041       0.29858940
O       -2.36689218      -0.91845534       0.20362136
C       -0.84503792       1.36914822      -0.69849931
C       -0.36991417       0.00938104      -0.98092133
H        2.82833749       0.18061903       0.51453667
H        1.70974621       1.50820454       0.14413126
H        2.53169920       0.65129239      -1.16206822
H        1.25596960      -1.41033403      -0.64673952
H        0.34890559      -0.07109444       1.90065329
H       -0.04229578      -1.70577941       1.31064789
H       -2.94657623      -0.70265816       0.93667626
H       -1.82590737       1.44374167      -1.19623949
H       -1.38820972       0.93022538       0.64232227
H       -0.72319217      -0.52869618      -1.85596816
17
Frame=1 idx=008613 GeodesicLength=0.1018944491791817 rxn_smarts="[C:1]([C@@:2]1([H:11])[C:3]([H:12])([H:13])[C@@:4]2([O:5][H:14])[C:6]([H:15])([H:16])[C@@:7]12[H:17])([H:8])([H:9])[H:10]>>[C:1]([C@@:2]1([H:11])[C:3]([H:12])([H:13])[C@@:4]([O:5][H:14])([H:16])[C:6]([H:15])=[C:7]1[H:17])([H:8])([H:9])[H:10]"
C        2.06577295       0.52723184      -0.18441509
C        0.91251793      -0.45053442      -0.25663286
C        0.06409478      -0.65700110       1.02621319
C       -1.20786747      -0.17179498       0.30376213
O       -2.36208969      -0.92897297       0.21249228
C       -0.86567736       1.34666101      -0.68508575
C       -0.36316893       0.00730923      -0.99086317
H        2.83065556       0.17620727       0.51215829
H        1.71543405       1.50664724       0.14518974
H        2.53384394       0.64953334      -1.16371196
H        1.25585619      -1.41149912      -0.64455543
H        0.35334754      -0.06576900       1.89599585
H       -0.03887450      -1.70251772       1.31372042
H       -2.96344647      -0.68257034       0.91778336
H       -1.83971599       1.43387674      -1.19122956
H       -1.38896226       0.94344844       0.66704486
H       -0.70172026      -0.52025545      -1.87786630
17
Frame=2 idx=008613 GeodesicLength=0.20385361139965602 rxn_smarts="[C:1]([C@@:2]1([H:11])[C:3]([H:12])([H:13])[C@@:4]2([O:5][H:14])[C:6]([H:15])([H:16])[C@@:7]12[H:17])([H:8])([H:9])[H:10]>>[C:1]([C@@:2]1([H:11])[C:3]([H:12])([H:13])[C@@:4]([O:5][H:14])([H:16])[C:6]([H:15])=[C:7]1[H:17])([H:8])([H:9])[H:10]"
C        2.06837235       0.52503127      -0.18601183
C        0.91244546      -0.44998508      -0.25780213
C        0.06438141      -0.65439812       1.02512621
C       -1.21001223      -0.16946188       0.30956930
O       -2.35746219      -0.93961844       0.22221565
C       -0.88625748       1.32365888      -0.67181395
C       -0.35661505       0.00559289      -1.00054947
H        2.83298009       0.17141643       0.50954130
H        1.72141329       1.50495190       0.14606398
H        2.53590065       0.64734319      -1.16556643
H        1.25519044      -1.41270881      -0.64235179
H        0.35782807      -0.05987960       1.89142808
H       -0.03513279      -1.69888662       1.31741593
H       -2.98020218      -0.66396534       0.89735964
H       -1.85346617       1.42401336      -1.18580256
H       -1.38961194       0.95718422       0.69114456
H       -0.67975174      -0.51028826      -1.89996650
17
Frame=3 idx=008613 GeodesicLength=0.30586226615398615 rxn_smarts="[C:1]([C@@:2]1([H:11])[C:3]([H:12])([H:13])[C@@:4]2([O:5][H:14])[C:6]([H:15])([H:16])[C@@:7]12[H:17])([H:8])([H:9])[H:10]>>[C:1]([C@@:2]1([H:11])[C:3]([H:12])([H:13])[C@@:4]([O:5][H:14])([H:16])[C:6]([H:15])=[C:7]1[H:17])([H:8])([H:9])[H:10]"
C        2.07094827       0.52256463      -0.18774217
C        0.91208820      -0.44941185      -0.25890430
C        0.06469256      -0.65150654       1.02435199
C       -1.21242164      -0.16742860       0.31601721
O       -2.35302430      -0.95037841       0.23281076
C       -0.90677542       1.30013779      -0.65871947
C       -0.35027187       0.00423159      -1.00998492
H        2.83528747       0.16621451       0.50669827
H        1.72768158       1.50309761       0.14676361
H        2.53785878       0.64470508      -1.16761591
H        1.25394600      -1.41396547      -0.64013614
H        0.36231617      -0.05341325       1.88693658
H       -0.03108333      -1.69487831       1.32173340
H       -2.99673895      -0.64697663       0.87551260
H       -1.86715138       1.41414378      -1.17996457
H       -1.39011669       0.97152851       0.71450618
H       -0.65723546      -0.49866445      -1.92226312
17
Frame=4 idx=008613 GeodesicLength=0.4079174958745368 rxn_smarts="[C:1]([C@@:2]1([H:11])[C:3]([H:12])([H:13])[C@@:4]2([O:5][H:14])[C:6]([H:15])([H:16])[C@@:7]12[H:17])([H:8])([H:9])[H:10]>>[C:1]([C@@:2]1([H:11])[C:3]([H:12])([H:13])[C@@:4]([O:5][H:14])([H:16])[C:6]([H:15])=[C:7]1[H:17])([H:8])([H:9])[H:10]"
C        2.07348768       0.51981067      -0.18959519
C        0.91142807      -0.44882055      -0.25994129
C        0.06501052      -0.64832851       1.02388617
C       -1.21511400      -0.16571263       0.32310725
O       -2.34878611      -0.96124069       0.24429669
C       -0.92723333       1.27608891      -0.64583857
C       -0.34415690       0.00322201      -1.01917650
H        2.83755323       0.16056977       0.50364449
H        1.73423494       1.50106216       0.14729701
H        2.53970889       0.64160013      -1.16984261
H        1.25209794      -1.41527228      -0.63791569
H        0.36677831      -0.04635932       1.88250581
H       -0.02674341      -1.69048506       1.32666806
H       -3.01295058      -0.63173527       0.85236300
H       -1.88077141       1.40425155      -1.17372071
H       -1.39043063       0.98658726       0.73701032
H       -0.63411322      -0.48523814      -1.94474824
17
Frame=5 idx=008613 GeodesicLength=0.5100167758738374 rxn_smarts="[C:1]([C@@:2]1([H:11])[C:3]([H:12])([H:13])[C@@:4]2([O:5][H:14])[C:6]([H:15])([H:16])[C@@:7]12[H:17])([H:8])([H:9])[H:10]>>[C:1]([C@@:2]1([H:11])[C:3]([H:12])([H:13])[C@@:4]([O:5][H:14])([H:16])[C:6]([H:15])=[C:7]1[H:17])([H:8])([H:9])[H:10]"
C        2.07598344       0.51674680      -0.19155851
C        0.91044856      -0.44821677      -0.26091624
C        0.06531516      -0.64486402       1.02372180
C       -1.21810579      -0.16432341       0.33083770
O       -2.34477309      -0.97219882       0.25669663
C       -0.94763765       1.25149547      -0.63320513
C       -0.33828669       0.00256114      -1.02813754
H        2.83975942       0.15444973       0.50039842
H        1.74107435       1.49882313       0.14767374
H        2.54145387       0.63800467      -1.17222997
H        1.24962183      -1.41663428      -0.63569917
H        0.37117871      -0.03870537       1.87811730
H       -0.02213381      -1.68569732       1.33221489
H       -3.02873436      -0.61838147       0.82805146
H       -1.89433643       1.39431868      -1.16708264
H       -1.39050809       1.00246279       0.75852595
H       -0.61031944      -0.46984098      -1.96740870
17
Frame=6 idx=008613 GeodesicLength=0.6121427047696906 rxn_smarts="[C:1]([C@@:2]1([H:11])[C:3]([H:12])([H:13])[C@@:4]2([O:5][H:14])[C:6]([H:15])([H:16])[C@@:7]12[H:17])([H:8])([H:9])[H:10]>>[C:1]([C@@:2]1([H:11])[C:3]([H:12])([H:13])[C@@:4]([O:5][H:14])([H:16])[C:6]([H:15])=[C:7]1[H:17])([H:8])([H:9])[H:10]"
C        2.07842123       0.51334742      -0.19362057
C        0.90913063      -0.44760739      -0.26183223
C        0.06558283      -0.64111299       1.02384887
C       -1.22141447      -0.16326268       0.33920129
O       -2.34100001      -0.98323520       0.27001000
C       -0.96799474       1.22634306      -0.62085700
C       -0.33267290       0.00224301      -1.03688435
H        2.84187331       0.14781792       0.49698104
H        1.74819582       1.49635533       0.14789650
H        2.54308555       0.63389242      -1.17475807
H        1.24648863      -1.41805917      -0.63349087
H        0.37547731      -0.03044029       1.87375078
H       -0.01727999      -1.68050490       1.33836383
H       -3.04396381      -0.60708179       0.80275654
H       -1.90783807       1.38432741      -1.16007037
H       -1.39030516       1.01926282       0.77890907
H       -0.58578616      -0.45228498      -1.99020445
17
Frame=7 idx=008613 GeodesicLength=0.714280210563626 rxn_smarts="[C:1]([C@@:2]1([H:11])[C:3]([H:12])([H:13])[C@@:4]2([O:5][H:14])[C:6]([H:15])([H:16])[C@@:7]12[H:17])([H:8])([H:9])[H:10]>>[C:1]([C@@:2]1([H:11])[C:3]([H:12])([H:13])[C@@:4]([O:5][H:14])([H:16])[C:6]([H:15])=[C:7]1[H:17])([H:8])([H:9])[H:10]"
C        2.08079101       0.50958781      -0.19576868
C        0.90745842      -0.44699808      -0.26269366
C        0.06579478      -0.63707536       1.02425556
C       -1.22505270      -0.16252806       0.34819360
O       -2.33749313      -0.99434457       0.28425350
C       -0.98831511       1.20060770      -0.60882661
C       -0.32732451       0.00226376      -1.04543626
H        2.84386836       0.14063832       0.49341352
H        1.75559757       1.49363175       0.14796929
H        2.54460360       0.62923688      -1.17740917
H        1.24267236      -1.41955186      -0.63129890
H        0.37964097      -0.02155346       1.86938292
H       -0.01219920      -1.67489681       1.34510311
H       -3.05855642      -0.59798839       0.77664650
H       -1.92127807       1.37425631      -1.15270190
H       -1.38976812       1.03708590       0.79800168
H       -0.56043980      -0.43237184      -2.01308450
17
Frame=8 idx=008613 GeodesicLength=0.8164098224250568 rxn_smarts="[C:1]([C@@:2]1([H:11])[C:3]([H:12])([H:13])[C@@:4]2([O:5][H:14])[C:6]([H:15])([H:16])[C@@:7]12[H:17])([H:8])([H:9])[H:10]>>[C:1]([C@@:2]1([H:11])[C:3]([H:12])([H:13])[C@@:4]([O:5][H:14])([H:16])[C:6]([H:15])=[C:7]1[H:17])([H:8])([H:9])[H:10]"
C        2.08307680       0.50543717      -0.19799728
C        0.90541435      -0.44639249      -0.26350296
C        0.06593754      -0.63274835       1.02493347
C       -1.22903224      -0.16211053       0.35781602
O       -2.33427604      -1.00552855       0.29944019
C       -1.00861343       1.17426490      -0.59714087
C       -0.32224762       0.00262017      -1.05380798
H        2.84571090       0.13286986       0.48970927
H        1.76327782       1.49061949       0.14788379
H        2.54599363       0.62400429      -1.18017240
H        1.23813917      -1.42111459      -0.62912667
H        0.38364708      -0.01203059       1.86499122
H       -0.00689902      -1.66886218       1.35242442
H       -3.07244055      -0.59125514       0.74985854
H       -1.93465517       1.36408280      -1.14498957
H       -1.38884757       1.05602743       0.81564277
H       -0.53418565      -0.40988368      -2.03596197
17
Frame=9 idx=008613 GeodesicLength=0.9181256115927814 rxn_smarts="[C:1]([C@@:2]1([H:11])[C:3]([H:12])([H:13])[C@@:4]2([O:5][H:14])[C:6]([H:15])([H:16])[C@@:7]12[H:17])([H:8])([H:9])[H:10]>>[C:1]([C@@:2]1([H:11])[C:3]([H:12])([H:13])[C@@:4]([O:5][H:14])([H:16])[C:6]([H:15])=[C:7]1[H:17])([H:8])([H:9])[H:10]"
C        2.08530809       0.50090954      -0.20030673
C        0.90298425      -0.44577759      -0.26429992
C        0.06594468      -0.62812760       1.02582945
C       -1.23334746      -0.16194538       0.36801026
O       -2.33132047      -1.01685291       0.31539507
C       -1.02889596       1.14737696      -0.58575653
C       -0.31746290       0.00330864      -1.06207991
H        2.84741456       0.12450585       0.48587543
H        1.77127174       1.48734517       0.14766564
H        2.54732290       0.61820853      -1.18306382
H        1.23288008      -1.42275303      -0.62702239
H        0.38740279      -0.00188921       1.86053543
H       -0.00146027      -1.66238545       1.36025738
H       -3.08532931      -0.58674097       0.72264126
H       -1.94788977       1.35384150      -1.13707920
H       -1.38773486       1.07585961       0.83183618
H       -0.50708810      -0.38488366      -2.05843759
17
Frame=10 idx=008613 GeodesicLength=1.019839628815296 rxn_smarts="[C:1]([C@@:2]1([H:11])[C:3]([H:12])([H:13])[C@@:4]2([O:5][H:14])[C:6]([H:15])([H:16])[C@@:7]12[H:17])([H:8])([H:9])[H:10]>>[C:1]([C@@:2]1([H:11])[C:3]([H:12])([H:13])[C@@:4]([O:5][H:14])([H:16])[C:6]([H:15])=[C:7]1[H:17])([H:8])([H:9])[H:10]"
C        2.08744631       0.49594043      -0.20267727
C        0.90015303      -0.44518005      -0.26506636
C        0.06584338      -0.62321921       1.02696660
C       -1.23803108      -0.16209789       0.37882354
O       -2.32863466      -1.02830207       0.33234128
C       -1.04919893       1.11978773      -0.57475575
C       -0.31297499       0.00431131      -1.07022650
H        2.84892738       0.11548186       0.48194060
H        1.77954734       1.48372947       0.14729662
H        2.54853270       0.61177679      -1.18604199
H        1.22685550      -1.42447278      -0.62496987
H        0.39093404       0.00890724       1.85599568
H        0.00417322      -1.65545615       1.36865082
H       -3.09739778      -0.58476047       0.69502526
H       -1.96108528       1.34342917      -1.12885673
H       -1.38614018       1.09695337       0.84620493
H       -0.47895001      -0.35682875      -2.08065087
17
Frame=11 idx=008613 GeodesicLength=1.1215579538506335 rxn_smarts="[C:1]([C@@:2]1([H:11])[C:3]([H:12])([H:13])[C@@:4]2([O:5][H:14])[C:6]([H:15])([H:16])[C@@:7]12[H:17])([H:8])([H:9])[H:10]>>[C:1]([C@@:2]1([H:11])[C:3]([H:12])([H:13])[C@@:4]([O:5][H:14])([H:16])[C:6]([H:15])=[C:7]1[H:17])([H:8])([H:9])[H:10]"
C        2.08948994       0.49050402      -0.20509424
C        0.89691156      -0.44460988      -0.26581219
C        0.06561524      -0.61803020       1.02832528
C       -1.24308621      -0.16257182       0.39024266
O       -2.32620143      -1.03989730       0.35028398
C       -1.06955156       1.09144102      -0.56415998
C       -0.30878618       0.00562406      -1.07827260
H        2.85022948       0.10576100       0.47792967
H        1.78810562       1.47974774       0.14678286
H        2.54963911       0.60468078      -1.18908476
H        1.22004836      -1.42628283      -0.62298675
H        0.39419972       0.02036044       1.85134405
H        0.00999357      -1.64806949       1.37758464
H       -3.10858053      -0.58537870       0.66719129
H       -1.97425816       1.33279039      -1.12034590
H       -1.38402220       1.11938763       0.85851834
H       -0.44974633      -0.32545687      -2.10244637
17
Frame=12 idx=008613 GeodesicLength=1.2232898482677759 rxn_smarts="[C:1]([C@@:2]1([H:11])[C:3]([H:12])([H:13])[C@@:4]2([O:5][H:14])[C:6]([H:15])([H:16])[C@@:7]12[H:17])([H:8])([H:9])[H:10]>>[C:1]([C@@:2]1([H:11])[C:3]([H:12])([H:13])[C@@:4]([O:5][H:14])([H:16])[C:6]([H:15])=[C:7]1[H:17])([H:8])([H:9])[H:10]"
C        2.09143762       0.48456981      -0.20754746
C        0.89324579      -0.44407510      -0.26655246
C        0.06523722      -0.61256233       1.02988523
C       -1.24852246      -0.16336859       0.40225510
O       -2.32399127      -1.05166851       0.36922834
C       -1.08998396       1.06227387      -0.55398789
C       -0.30490408       0.00724532      -1.08624749
H        2.85129884       0.09529914       0.47386327
H        1.79695265       1.47537025       0.14612555
H        2.55065545       0.59688282      -1.19217732
H        1.21243265      -1.42819008      -0.62109445
H        0.39715550       0.03248095       1.84654403
H        0.01598891      -1.64021062       1.38704211
H       -3.11880368      -0.58868450       0.63930969
H       -1.98740704       1.32188139      -1.11156631
H       -1.38134230       1.14323486       0.86851346
H       -0.41944984      -0.29047869      -2.12359338
17
Frame=13 idx=008613 GeodesicLength=1.3250570455871702 rxn_smarts="[C:1]([C@@:2]1([H:11])[C:3]([H:12])([H:13])[C@@:4]2([O:5][H:14])[C:6]([H:15])([H:16])[C@@:7]12[H:17])([H:8])([H:9])[H:10]>>[C:1]([C@@:2]1([H:11])[C:3]([H:12])([H:13])[C@@:4]([O:5][H:14])([H:16])[C:6]([H:15])=[C:7]1[H:17])([H:8])([H:9])[H:10]"
C        2.09329026       0.47810780      -0.21002305
C        0.88914638      -0.44357719      -0.26730207
C        0.06469790      -0.60681775       1.03162342
C       -1.25434414      -0.16448460       0.41485096
O       -2.32199538      -1.06365444       0.38919231
C       -1.11052874       1.03220841      -0.54424616
C       -0.30132564       0.00919248      -1.09417969
H        2.85211422       0.08405075       0.46976527
H        1.80609814       1.47056218       0.14533044
H        2.55159716       0.58834943      -1.19529917
H        1.20398232      -1.43019241      -0.61932015
H        0.39976913       0.04527822       1.84155971
H        0.02216707      -1.63186946       1.39700247
H       -3.12803430      -0.59474658       0.61154258
H       -2.00053643       1.31065599      -1.10253948
H       -1.37804159       1.16854706       0.87587539
H       -0.38805636      -0.25160989      -2.14383277
17
Frame=14 idx=008613 GeodesicLength=1.426859180869175 rxn_smarts="[C:1]([C@@:2]1([H:11])[C:3]([H:12])([H:13])[C@@:4]2([O:5][H:14])[C:6]([H:15])([H:16])[C@@:7]12[H:17])([H:8])([H:9])[H:10]>>[C:1]([C@@:2]1([H:11])[C:3]([H:12])([H:13])[C@@:4]([O:5][H:14])([H:16])[C:6]([H:15])=[C:7]1[H:17])([H:8])([H:9])[H:10]"
C        2.09505471       0.47108598      -0.21250834
C        0.88460598      -0.44311359      -0.26808081
C        0.06398274      -0.60079210       1.03351303
C       -1.26055133      -0.16591097       0.42801082
O       -2.32018884      -1.07587700       0.41015975
C       -1.13120531       1.00118460      -0.53495152
C       -0.29804060       0.01150090      -1.10210150
H        2.85265148       0.07196128       0.46566201
H        1.81556346       1.46529299       0.14440233
H        2.55248982       0.57904188      -1.19842965
H        1.19466989      -1.43228634      -0.61769598
H        0.40200176       0.05876907       1.83634676
H        0.02852863      -1.62302654       1.40743803
H       -3.13619449      -0.60366934       0.58403709
H       -2.01361487       1.29908713      -1.09326954
H       -1.37410484       1.19536564       0.88028519
H       -0.35564817      -0.20861361      -2.16281765
17
Frame=15 idx=008613 GeodesicLength=1.5286977427785151 rxn_smarts="[C:1]([C@@:2]1([H:11])[C:3]([H:12])([H:13])[C@@:4]2([O:5][H:14])[C:6]([H:15])([H:16])[C@@:7]12[H:17])([H:8])([H:9])[H:10]>>[C:1]([C@@:2]1([H:11])[C:3]([H:12])([H:13])[C@@:4]([O:5][H:14])([H:16])[C:6]([H:15])=[C:7]1[H:17])([H:8])([H:9])[H:10]"
C        2.09673898       0.46346794      -0.21499390
C        0.87961449      -0.44267512      -0.26890859
C        0.06308292      -0.59447296       1.03553022
C       -1.26714241      -0.16763000       0.44172056
O       -2.31855448      -1.08837111       0.43212803
C       -1.15203051       0.96913690      -0.52610603
C       -0.29503623       0.01422706      -1.11003981
H        2.85288848       0.05896836       0.46157281
H        1.82538068       1.45952613       0.14334438
H        2.55335631       0.56891541      -1.20155399
H        1.18445606      -1.43446150      -0.61625759
H        0.40382186       0.07297901       1.83086127
H        0.03508425      -1.61365496       1.41832754
H       -3.14321608      -0.61555871       0.55689985
H       -2.02660461       1.28715211      -1.08375901
H       -1.36951262       1.22369917       0.88138355
H       -0.32232710      -0.16124772      -2.18014928
17
Frame=16 idx=008613 GeodesicLength=1.6306030197825325 rxn_smarts="[C:1]([C@@:2]1([H:11])[C:3]([H:12])([H:13])[C@@:4]2([O:5][H:14])[C:6]([H:15])([H:16])[C@@:7]12[H:17])([H:8])([H:9])[H:10]>>[C:1]([C@@:2]1([H:11])[C:3]([H:12])([H:13])[C@@:4]([O:5][H:14])([H:16])[C:6]([H:15])=[C:7]1[H:17])([H:8])([H:9])[H:10]"
C        2.09836974       0.45520871      -0.21747718
C        0.87416064      -0.44224699      -0.26980798
C        0.06198875      -0.58783304       1.03765677
C       -1.27411696      -0.16961866       0.45597118
O       -2.31705093      -1.10117397       0.45511285
C       -1.17301893       0.93599962      -0.51769744
C       -0.29230207       0.01745930      -1.11801361
H        2.85281804       0.04499153       0.45750799
H        1.83561645       1.45322218       0.14215784
H        2.55423954       0.55790663      -1.20466890
H        1.17328371      -1.43670572      -0.61505121
H        0.40519926       0.08795826       1.82505815
H        0.04184688      -1.60370789       1.42966601
H       -3.14901615      -0.63055695       0.53012788
H       -2.03946545       1.27483740      -1.07398626
H       -1.36427876       1.25354086       0.87879419
H       -0.28827376      -0.10928125      -2.19535029
