12
Frame=0 idx=009511 GeodesicLength=0.0 rxn_smarts="[C:1]([c:2]1[c:3]([H:11])[o:4][c:5]([O:6][H:12])[n:7]1)([H:8])([H:9])[H:10]>>[C:1](/[C:2](=[C:3](/[O:4][H:12])[H:11])[N:7]=[C:5]=[O:6])([H:8])([H:9])[H:10]"
C       -1.87533154       0.35495215       0.24743864
C       -0.43034291       0.07636281       0.05245366
C        0.18890430      -0.96241243      -0.57119386
O        1.47735166      -1.06397047      -0.65697580
C        1.69764750       0.78783550       0.42960564
O        2.93060400       0.61830180       0.30464912
N        0.54747640       0.99194129       0.57193455
H       -2.14794486       0.40145061       1.30489194
H       -2.18369922       1.29344370      -0.22024719
H       -2.45264465      -0.44960893      -0.20987434
H       -0.41908312      -1.74897435      -1.02151159
H        2.66706242      -0.29932171      -0.23117073
12
Frame=1 idx=009511 GeodesicLength=0.0933185703582661 rxn_smarts="[C:1]([c:2]1[c:3]([H:11])[o:4][c:5]([O:6][H:12])[n:7]1)([H:8])([H:9])[H:10]>>[C:1](/[C:2](=[C:3](/[O:4][H:12])[H:11])[N:7]=[C:5]=[O:6])([H:8])([H:9])[H:10]"
C       -1.87733425       0.35325589       0.24993288
C       -0.43183141       0.07364567       0.05928285
C        0.18401813      -0.96964179      -0.55722626
O        1.47507616      -1.02334703      -0.69752919
C        1.69435759       0.81019130       0.37548168
O        2.92976004       0.62767430       0.30818134
N        0.54471491       0.98689447       0.57918067
H       -2.15213862       0.39395914       1.30699341
H       -2.18011477       1.29648224      -0.21164138
H       -2.45566413      -0.44589087      -0.21552207
H       -0.41676538      -1.75401594      -1.01887551
H        2.68592172      -0.34920739      -0.17825843
12
Frame=2 idx=009511 GeodesicLength=0.187005007401958 rxn_smarts="[C:1]([c:2]1[c:3]([H:11])[o:4][c:5]([O:6][H:12])[n:7]1)([H:8])([H:9])[H:10]>>[C:1](/[C:2](=[C:3](/[O:4][H:12])[H:11])[N:7]=[C:5]=[O:6])([H:8])([H:9])[H:10]"
C       -1.87808595       0.35062091       0.25386212
C       -0.43239674       0.07451890       0.05946740
C        0.18025753      -0.97206285      -0.55170800
O        1.47370455      -0.99406488      -0.71825735
C        1.69123669       0.82753183       0.32956640
O        2.92672183       0.63392707       0.31329533
N        0.54270190       0.98973124       0.57251950
H       -2.14891135       0.38633781       1.31201992
H       -2.18114234       1.29678483      -0.20125641
H       -2.45738619      -0.44572654      -0.21498879
H       -0.41342543      -1.75294672      -1.02622521
H        2.69672547      -0.39465160      -0.12829490
12
Frame=3 idx=009511 GeodesicLength=0.28099089287623635 rxn_smarts="[C:1]([c:2]1[c:3]([H:11])[o:4][c:5]([O:6][H:12])[n:7]1)([H:8])([H:9])[H:10]>>[C:1](/[C:2](=[C:3](/[O:4][H:12])[H:11])[N:7]=[C:5]=[O:6])([H:8])([H:9])[H:10]"
C       -1.87856260       0.34798407       0.25794133
C       -0.43278476       0.07743087       0.05605737
C        0.17642558      -0.97218304      -0.55048875
O        1.47361328      -0.97325098      -0.72604051
C        1.68871437       0.84019810       0.29062611
O        2.92313604       0.64028172       0.31792730
N        0.54080789       0.99551177       0.56076454
H       -2.14291753       0.37795313       1.31782703
H       -2.18425455       1.29681061      -0.18959056
H       -2.45900004      -0.44613809      -0.21317637
H       -0.41006500      -1.74991643      -1.03706840
H        2.70488733      -0.43468173      -0.08477910
12
Frame=4 idx=009511 GeodesicLength=0.3751043635764367 rxn_smarts="[C:1]([c:2]1[c:3]([H:11])[o:4][c:5]([O:6][H:12])[n:7]1)([H:8])([H:9])[H:10]>>[C:1](/[C:2](=[C:3](/[O:4][H:12])[H:11])[N:7]=[C:5]=[O:6])([H:8])([H:9])[H:10]"
C       -1.87884993       0.34542536       0.26197939
C       -0.43312800       0.08127198       0.05088329
C        0.17247965      -0.97152325      -0.55084487
O        1.47424604      -0.95701367      -0.72703921
C        1.68654854       0.85008125       0.25560970
O        2.91922287       0.64724397       0.32160595
N        0.53885920       1.00240048       0.54692877
H       -2.13561946       0.36909308       1.32380330
H       -2.18809308       1.29689210      -0.17721574
H       -2.46058667      -0.44653399      -0.21108589
H       -0.40666721      -1.74583195      -1.04969464
H        2.71158805      -0.47150536      -0.04493004
12
Frame=5 idx=009511 GeodesicLength=0.4692568331585285 rxn_smarts="[C:1]([c:2]1[c:3]([H:11])[o:4][c:5]([O:6][H:12])[n:7]1)([H:8])([H:9])[H:10]>>[C:1](/[C:2](=[C:3](/[O:4][H:12])[H:11])[N:7]=[C:5]=[O:6])([H:8])([H:9])[H:10]"
C       -1.87904841       0.34321847       0.26546696
C       -0.43345202       0.08505209       0.04572391
C        0.16850482      -0.97088247      -0.55123247
O        1.47515176      -0.94286193      -0.72498739
C        1.68442379       0.85800151       0.22375150
O        2.91509759       0.65541421       0.32337115
N        0.53695007       1.00838797       0.53448971
H       -2.12881906       0.35953610       1.32901331
H       -2.19109811       1.29789236      -0.16446893
H       -2.46220504      -0.44574198      -0.21076654
H       -0.40311516      -1.74256194      -1.06094363
H        2.71760978      -0.50545439      -0.00941757
12
Frame=6 idx=009511 GeodesicLength=0.5634489878805508 rxn_smarts="[C:1]([c:2]1[c:3]([H:11])[o:4][c:5]([O:6][H:12])[n:7]1)([H:8])([H:9])[H:10]>>[C:1](/[C:2](=[C:3](/[O:4][H:12])[H:11])[N:7]=[C:5]=[O:6])([H:8])([H:9])[H:10]"
C       -1.87909566       0.34107618       0.26889684
C       -0.43376002       0.08930015       0.03964698
C        0.16449600      -0.96981680      -0.55242852
O        1.47635947      -0.93032353      -0.72065132
C        1.68248738       0.86476114       0.19347494
O        2.91067468       0.66390044       0.32504502
N        0.53499146       1.01488355       0.52105569
H       -2.12132949       0.34946164       1.33419468
H       -2.19428294       1.29904939      -0.15107682
H       -2.46381226      -0.44469114      -0.21061257
H       -0.39939816      -1.73936408      -1.07213264
H        2.72266954      -0.53823695       0.02458771
12
Frame=7 idx=009511 GeodesicLength=0.6576744395448934 rxn_smarts="[C:1]([c:2]1[c:3]([H:11])[o:4][c:5]([O:6][H:12])[n:7]1)([H:8])([H:9])[H:10]>>[C:1](/[C:2](=[C:3](/[O:4][H:12])[H:11])[N:7]=[C:5]=[O:6])([H:8])([H:9])[H:10]"
C       -1.87900950       0.33899707       0.27226418
C       -0.43406525       0.09375276       0.03307578
C        0.16044119      -0.96858278      -0.55402522
O        1.47780524      -0.91932405      -0.71406042
C        1.68062134       0.87066141       0.16423418
O        2.90604322       0.67317212       0.32568677
N        0.53301220       1.02145382       0.50729963
H       -2.11346777       0.33880394       1.33925079
H       -2.19733930       1.30045014      -0.13702722
H       -2.46543957      -0.44320695      -0.21088724
H       -0.39552900      -1.73598520      -1.08365175
H        2.72692720      -0.57019227       0.05784051
12
Frame=8 idx=009511 GeodesicLength=0.7519470588181871 rxn_smarts="[C:1]([c:2]1[c:3]([H:11])[o:4][c:5]([O:6][H:12])[n:7]1)([H:8])([H:9])[H:10]>>[C:1](/[C:2](=[C:3](/[O:4][H:12])[H:11])[N:7]=[C:5]=[O:6])([H:8])([H:9])[H:10]"
C       -1.87871502       0.33681338       0.27586762
C       -0.43437830       0.09868927       0.02543767
C        0.15630443      -0.96698432      -0.55646957
O        1.47952452      -0.90999678      -0.70500403
C        1.67893369       0.87593375       0.13522986
O        2.90115465       0.68295456       0.32585029
N        0.53096012       1.02882066       0.49185710
H       -2.10447141       0.32763137       1.34460867
H       -2.20077561       1.30168278      -0.12208019
H       -2.46706191      -0.44179642      -0.21067425
H       -0.39148934      -1.73172768      -1.09670732
H        2.73001417      -0.60202057       0.09208415
12
Frame=9 idx=009511 GeodesicLength=0.846276279086215 rxn_smarts="[C:1]([c:2]1[c:3]([H:11])[o:4][c:5]([O:6][H:12])[n:7]1)([H:8])([H:9])[H:10]>>[C:1](/[C:2](=[C:3](/[O:4][H:12])[H:11])[N:7]=[C:5]=[O:6])([H:8])([H:9])[H:10]"
C       -1.87807994       0.33434293       0.28004128
C       -0.43471310       0.10442650       0.01602987
C        0.15203513      -0.96478048      -0.56035849
O        1.48153729      -0.90260683      -0.69304554
C        1.67758331       0.88068278       0.10567559
O        2.89592729       0.69300293       0.32598185
N        0.52878300       1.03772425       0.47319106
H       -2.09339609       0.31596013       1.35073601
H       -2.20508817       1.30232832      -0.10588934
H       -2.46862829      -0.44098846      -0.20899433
H       -0.38723086      -1.72581783      -1.11266872
H        2.73127044      -0.63427425       0.12930076
12
Frame=10 idx=009511 GeodesicLength=0.940669271387151 rxn_smarts="[C:1]([c:2]1[c:3]([H:11])[o:4][c:5]([O:6][H:12])[n:7]1)([H:8])([H:9])[H:10]>>[C:1](/[C:2](=[C:3](/[O:4][H:12])[H:11])[N:7]=[C:5]=[O:6])([H:8])([H:9])[H:10]"
C       -1.87700001       0.33152781       0.28489299
C       -0.43508667       0.11095342       0.00473318
C        0.14762174      -0.96196482      -0.56583923
O        1.48371621      -0.89707209      -0.67816329
C        1.67662091       0.88485467       0.07528588
O        2.89029874       0.70331584       0.32610648
N        0.52646282       1.04823235       0.45091489
H       -2.07991375       0.30385526       1.35772895
H       -2.21023605       1.30226407      -0.08835268
H       -2.47008716      -0.44093247      -0.20554833
H       -0.38264021      -1.71801484      -1.13198127
H        2.73024343      -0.66701919       0.17022243
12
Frame=11 idx=009511 GeodesicLength=1.0351305608037535 rxn_smarts="[C:1]([c:2]1[c:3]([H:11])[o:4][c:5]([O:6][H:12])[n:7]1)([H:8])([H:9])[H:10]>>[C:1](/[C:2](=[C:3](/[O:4][H:12])[H:11])[N:7]=[C:5]=[O:6])([H:8])([H:9])[H:10]"
C       -1.87538678       0.32836625       0.29041055
C       -0.43551027       0.11816556      -0.00834308
C        0.14309563      -0.95854843      -0.57293942
O        1.48586169      -0.89297810      -0.66075850
C        1.67605762       0.88836347       0.04413804
O        2.88422853       0.71389527       0.32619810
N        0.52399622       1.06014975       0.42517720
H       -2.06396368       0.29144751       1.36550360
H       -2.21598724       1.30146284      -0.06955702
H       -2.47135501      -0.44166741      -0.20029552
H       -0.37756820      -1.70845284      -1.15443298
H        2.72653149      -0.70020386       0.21489904
12
Frame=12 idx=009511 GeodesicLength=1.1296473063738524 rxn_smarts="[C:1]([c:2]1[c:3]([H:11])[o:4][c:5]([O:6][H:12])[n:7]1)([H:8])([H:9])[H:10]>>[C:1](/[C:2](=[C:3](/[O:4][H:12])[H:11])[N:7]=[C:5]=[O:6])([H:8])([H:9])[H:10]"
C       -1.87330974       0.32503763       0.29623088
C       -0.43598389       0.12560875      -0.02230223
C        0.13855730      -0.95484675      -0.58093507
O        1.48773465      -0.88949664      -0.64179972
C        1.67569016       0.89117397       0.01287693
O        2.87783019       0.72509095       0.32554186
N        0.52144327       1.07246247       0.39786254
H       -2.04654597       0.27872542       1.37346240
H       -2.22155623       1.30036394      -0.04986105
H       -2.47242705      -0.44259979      -0.19434029
H       -0.37188361      -1.69805823      -1.17838205
H        2.72045093      -0.73346172       0.26164582
12
Frame=13 idx=009511 GeodesicLength=1.224212044169815 rxn_smarts="[C:1]([c:2]1[c:3]([H:11])[o:4][c:5]([O:6][H:12])[n:7]1)([H:8])([H:9])[H:10]>>[C:1](/[C:2](=[C:3](/[O:4][H:12])[H:11])[N:7]=[C:5]=[O:6])([H:8])([H:9])[H:10]"
C       -1.87083406       0.32163905       0.30214146
C       -0.43649461       0.13301106      -0.03655224
C        0.13408812      -0.95102530      -0.58938110
O        1.48922651      -0.88607453      -0.62192848
C        1.67538117       0.89334356      -0.01813893
O        2.87120947       0.73710316       0.32374546
N        0.51884237       1.08460573       0.37013812
H       -2.02831967       0.26573236       1.38125745
H       -2.22651140       1.29918595      -0.02955998
H       -2.47330636      -0.44342468      -0.18828978
H       -0.36550687      -1.68736096      -1.20284722
H        2.71222533      -0.76673541       0.30941524
12
Frame=14 idx=009511 GeodesicLength=1.3188114045534893 rxn_smarts="[C:1]([c:2]1[c:3]([H:11])[o:4][c:5]([O:6][H:12])[n:7]1)([H:8])([H:9])[H:10]>>[C:1](/[C:2](=[C:3](/[O:4][H:12])[H:11])[N:7]=[C:5]=[O:6])([H:8])([H:9])[H:10]"
C       -1.86806039       0.31825179       0.30794627
C       -0.43702186       0.14018396      -0.05058711
C        0.12976776      -0.94719627      -0.59787290
O        1.49031802      -0.88226965      -0.60165356
C        1.67500140       0.89499250      -0.04859888
O        2.86453372       0.75011941       0.32037251
N        0.51623014       1.09614652       0.34307887
H       -2.00992200       0.25245874       1.38859484
H       -2.23056185       1.29811264      -0.00892556
H       -2.47402321      -0.44387977      -0.18270087
H       -0.35840643      -1.67680720      -1.22695617
H        2.70214472      -0.80011267       0.35730256
12
Frame=15 idx=009511 GeodesicLength=1.413434654040714 rxn_smarts="[C:1]([c:2]1[c:3]([H:11])[o:4][c:5]([O:6][H:12])[n:7]1)([H:8])([H:9])[H:10]>>[C:1](/[C:2](=[C:3](/[O:4][H:12])[H:11])[N:7]=[C:5]=[O:6])([H:8])([H:9])[H:10]"
C       -1.86508028       0.31491417       0.31353547
C       -0.43754304       0.14703130      -0.06408193
C        0.12565789      -0.94342120      -0.60612894
O        1.49105221      -0.87783724      -0.58122246
C        1.67445719       0.89625614      -0.07837542
O        2.85795743       0.76428760       0.31510520
N        0.51362938       1.10688346       0.31734636
H       -1.99178492       0.23890909       1.39532148
H       -2.23360093       1.29722198       0.01184470
H       -2.47461365      -0.44383753      -0.17787979
H       -0.35055701      -1.66658981      -1.25025839
H        2.69042573      -0.83381795       0.40479371
12
Frame=16 idx=009511 GeodesicLength=1.5080720924107756 rxn_smarts="[C:1]([c:2]1[c:3]([H:11])[o:4][c:5]([O:6][H:12])[n:7]1)([H:8])([H:9])[H:10]>>[C:1](/[C:2](=[C:3](/[O:4][H:12])[H:11])[N:7]=[C:5]=[O:6])([H:8])([H:9])[H:10]"
C       -1.86196978       0.31163428       0.31885342
C       -0.43802953       0.15352278      -0.07682788
C        0.12181647      -0.93970312      -0.61398006
O        1.49150769      -0.87261920      -0.56075655
C        1.67368529       0.89727999      -0.10743197
O        2.85162547       0.77971915       0.30769129
N        0.51105750       1.11676426       0.29333844
H       -1.97419304       0.22510701       1.40137294
H       -2.23563672       1.29651292       0.03258360
H       -2.47509647      -0.44327914      -0.17395600
H       -0.34193393      -1.65675895      -1.27252978
H        2.67716706      -0.86817998       0.45164255
