11
Frame=0 idx=011508 GeodesicLength=0.0 rxn_smarts="[N:1](=[c:2]1/[c:3]([H:9])[n:4][c:5]([H:10])[c:6]([H:11])[o:7]1)\[H:8]>>[N:1](=[C:2]1/[C@@:3]2([H:9])[N:4]3[C@@:5]2([H:10])[C@:6]3([H:11])[O:7]1)\[H:8]"
N        2.30559293       0.18772809       0.00242476
C        1.06927778       0.11225504       0.02663506
C        0.13876307      -1.06702216       0.03148482
N       -0.59972036      -1.11681295       1.17291982
C       -1.28159683      -0.42769900      -0.01244699
C       -1.00427920       0.92122485      -0.07199294
O        0.23488704       1.28702565       0.13629605
H        2.65277325       1.13349392       0.14283044
H        0.33016033      -1.89293405      -0.66379139
H       -2.15902468      -0.87099716      -0.46365497
H       -1.68683333       1.73373773      -0.30070468
11
Frame=1 idx=011508 GeodesicLength=0.07133899051774857 rxn_smarts="[N:1](=[c:2]1/[c:3]([H:9])[n:4][c:5]([H:10])[c:6]([H:11])[o:7]1)\[H:8]>>[N:1](=[C:2]1/[C@@:3]2([H:9])[N:4]3[C@@:5]2([H:10])[C@:6]3([H:11])[O:7]1)\[H:8]"
N        2.30910840       0.18588267      -0.00595399
C        1.07142829       0.11501726       0.01346576
C        0.14668075      -1.06646436       0.03408707
N       -0.62026832      -1.08940372       1.15847152
C       -1.28774634      -0.43108100      -0.04274745
C       -1.00900145       0.91857375      -0.05027197
O        0.24012428       1.28617618       0.11691008
H        2.65770118       1.12993303       0.14234552
H        0.35931594      -1.91393564      -0.62664261
H       -2.17199743      -0.86871924      -0.48452851
H       -1.69534529       1.73402107      -0.25513542
11
Frame=2 idx=011508 GeodesicLength=0.14270094765089975 rxn_smarts="[N:1](=[c:2]1/[c:3]([H:9])[n:4][c:5]([H:10])[c:6]([H:11])[o:7]1)\[H:8]>>[N:1](=[C:2]1/[C@@:3]2([H:9])[N:4]3[C@@:5]2([H:10])[C@:6]3([H:11])[O:7]1)\[H:8]"
N        2.31251758       0.18417324      -0.01278923
C        1.07353534       0.11753398       0.00158980
C        0.15434527      -1.06593133       0.03639116
N       -0.64045820      -1.06433693       1.14252829
C       -1.29361403      -0.43363203      -0.07204401
C       -1.01297328       0.91507834      -0.02953322
O        0.24468464       1.28489855       0.09732964
H        2.66201347       1.12710730       0.14045642
H        0.38769478      -1.93300404      -0.58934669
H       -2.18516052      -0.86499492      -0.50391811
H       -1.70258506       1.73310783      -0.21066407
11
Frame=3 idx=011508 GeodesicLength=0.2141166282866927 rxn_smarts="[N:1](=[c:2]1/[c:3]([H:9])[n:4][c:5]([H:10])[c:6]([H:11])[o:7]1)\[H:8]>>[N:1](=[C:2]1/[C@@:3]2([H:9])[N:4]3[C@@:5]2([H:10])[C@:6]3([H:11])[O:7]1)\[H:8]"
N        2.31574072       0.18265595      -0.01882840
C        1.07554305       0.11984755      -0.00949517
C        0.16176185      -1.06539925       0.03835203
N       -0.66001919      -1.04133435       1.12533939
C       -1.29933447      -0.43537958      -0.10027943
C       -1.01625340       0.91082257      -0.01016955
O        0.24860545       1.28320530       0.07803181
H        2.66569617       1.12484160       0.13787730
H        0.41526145      -1.95042055      -0.55161042
H       -2.19839141      -0.86005839      -0.52208584
H       -1.70861021       1.73121916      -0.16713172
11
Frame=4 idx=011508 GeodesicLength=0.2856025079389389 rxn_smarts="[N:1](=[c:2]1/[c:3]([H:9])[n:4][c:5]([H:10])[c:6]([H:11])[o:7]1)\[H:8]>>[N:1](=[C:2]1/[C@@:3]2([H:9])[N:4]3[C@@:5]2([H:10])[C@:6]3([H:11])[O:7]1)\[H:8]"
N        2.31888342       0.18118446      -0.02325868
C        1.07748784       0.12193772      -0.01901173
C        0.16886849      -1.06498617       0.04019938
N       -0.67947769      -1.02056989       1.10702752
C       -1.30505093      -0.43643647      -0.12766811
C       -1.01891446       0.90593883       0.00807052
O        0.25189979       1.28101907       0.06019784
H        2.66899183       1.12348641       0.13245507
H        0.44223143      -1.96617863      -0.51348691
H       -2.21152977      -0.85386263      -0.53984153
H       -1.71338995       1.72846729      -0.12468336
11
Frame=5 idx=011508 GeodesicLength=0.35718220371525267 rxn_smarts="[N:1](=[c:2]1/[c:3]([H:9])[n:4][c:5]([H:10])[c:6]([H:11])[o:7]1)\[H:8]>>[N:1](=[C:2]1/[C@@:3]2([H:9])[N:4]3[C@@:5]2([H:10])[C@:6]3([H:11])[O:7]1)\[H:8]"
N        2.32175853       0.17980745      -0.02703288
C        1.07926803       0.12386285      -0.02786065
C        0.17573891      -1.06461710       0.04180590
N       -0.69836604      -1.00163712       1.08774809
C       -1.31076948      -0.43680093      -0.15417867
C       -1.02110163       0.90049573       0.02491885
O        0.25476204       1.27852150       0.04363406
H        2.67180096       1.12262233       0.12568902
H        0.46851709      -1.98052925      -0.47453479
H       -2.22448897      -0.84671714      -0.55725176
H       -1.71711942       1.72499167      -0.08293716
11
Frame=6 idx=011508 GeodesicLength=0.4287326393264313 rxn_smarts="[N:1](=[c:2]1/[c:3]([H:9])[n:4][c:5]([H:10])[c:6]([H:11])[o:7]1)\[H:8]>>[N:1](=[C:2]1/[C@@:3]2([H:9])[N:4]3[C@@:5]2([H:10])[C@:6]3([H:11])[O:7]1)\[H:8]"
N        2.32442273       0.17861468      -0.03104704
C        1.08088260       0.12571034      -0.03610471
C        0.18238488      -1.06427070       0.04316319
N       -0.71654519      -0.98445759       1.06775274
C       -1.31660573      -0.43657364      -0.17963776
C       -1.02291387       0.89456649       0.04080783
O        0.25708308       1.27561033       0.02903994
H        2.67429207       1.12199570       0.11825441
H        0.49412599      -1.99326491      -0.43512649
H       -2.23732703      -0.83858957      -0.57402218
H       -1.71979953       1.72065887      -0.04307993
11
Frame=7 idx=011508 GeodesicLength=0.5004075862646202 rxn_smarts="[N:1](=[c:2]1/[c:3]([H:9])[n:4][c:5]([H:10])[c:6]([H:11])[o:7]1)\[H:8]>>[N:1](=[C:2]1/[C@@:3]2([H:9])[N:4]3[C@@:5]2([H:10])[C@:6]3([H:11])[O:7]1)\[H:8]"
N        2.32692402       0.17763508      -0.03605369
C        1.08235407       0.12752440      -0.04446314
C        0.18887480      -1.06397438       0.04416632
N       -0.73389619      -0.96870767       1.04715952
C       -1.32264493      -0.43582238      -0.20412802
C       -1.02449877       0.88827416       0.05559031
O        0.25911414       1.27257755       0.01594132
H        2.67655161       1.12137710       0.11140464
H        0.51911488      -2.00472048      -0.39486126
H       -2.25017459      -0.82986768      -0.59022242
H       -1.72171904       1.71570430      -0.00453359
11
Frame=8 idx=011508 GeodesicLength=0.5721742160491637 rxn_smarts="[N:1](=[c:2]1/[c:3]([H:9])[n:4][c:5]([H:10])[c:6]([H:11])[o:7]1)\[H:8]>>[N:1](=[C:2]1/[C@@:3]2([H:9])[N:4]3[C@@:5]2([H:10])[C@:6]3([H:11])[O:7]1)\[H:8]"
N        2.32932225       0.17672989      -0.04149068
C        1.08370553       0.12926636      -0.05248660
C        0.19519980      -1.06377234       0.04494847
N       -0.75076057      -0.95439852       1.02588939
C       -1.32886600      -0.43457271      -0.22800005
C       -1.02592346       0.88164783       0.06944892
O        0.26084951       1.26937138       0.00461859
H        2.67870686       1.12089014       0.10383900
H        0.54366952      -2.01486772      -0.35345830
H       -2.26289254      -0.82040714      -0.60643374
H       -1.72301091       1.71011285       0.03312502
11
Frame=9 idx=011508 GeodesicLength=0.6440530386434009 rxn_smarts="[N:1](=[c:2]1/[c:3]([H:9])[n:4][c:5]([H:10])[c:6]([H:11])[o:7]1)\[H:8]>>[N:1](=[C:2]1/[C@@:3]2([H:9])[N:4]3[C@@:5]2([H:10])[C@:6]3([H:11])[O:7]1)\[H:8]"
N        2.33154198       0.17578933      -0.04718216
C        1.08490446       0.13090807      -0.06000815
C        0.20136547      -1.06366729       0.04556289
N       -0.76730264      -0.94149518       1.00386344
C       -1.33519641      -0.43278976      -0.25152471
C       -1.02724705       0.87469747       0.08250036
O        0.26242444       1.26607015      -0.00476542
H        2.68075044       1.12051990       0.09484967
H        0.56787559      -2.02365912      -0.31047968
H       -2.27534615      -0.81022327      -0.62318762
H       -1.72377013       1.70384970       0.07037138
11
Frame=10 idx=011508 GeodesicLength=0.7160543734032955 rxn_smarts="[N:1](=[c:2]1/[c:3]([H:9])[n:4][c:5]([H:10])[c:6]([H:11])[o:7]1)\[H:8]>>[N:1](=[C:2]1/[C@@:3]2([H:9])[N:4]3[C@@:5]2([H:10])[C@:6]3([H:11])[O:7]1)\[H:8]"
N        2.33363138       0.17471581      -0.05243752
C        1.08597792       0.13243321      -0.06633853
C        0.20735343      -1.06371148       0.04618160
N       -0.78386490      -0.93013926       0.98092401
C       -1.34155395      -0.43042296      -0.27502402
C       -1.02854697       0.86738936       0.09502510
O        0.26383957       1.26254809      -0.01160885
H        2.68281403       1.12043832       0.08267589
H        0.59178552      -2.03100100      -0.26565272
H       -2.28732943      -0.79906312      -0.64117037
H       -1.72410660       1.69681302       0.10742542
11
Frame=11 idx=011508 GeodesicLength=0.7881513358609666 rxn_smarts="[N:1](=[c:2]1/[c:3]([H:9])[n:4][c:5]([H:10])[c:6]([H:11])[o:7]1)\[H:8]>>[N:1](=[C:2]1/[C@@:3]2([H:9])[N:4]3[C@@:5]2([H:10])[C@:6]3([H:11])[O:7]1)\[H:8]"
N        2.33563684       0.17357169      -0.05807575
C        1.08695060       0.13386723      -0.07205034
C        0.21322663      -1.06393273       0.04665540
N       -0.80021723      -0.92014366       0.95716399
C       -1.34796701      -0.42751134      -0.29842689
C       -1.02987979       0.85976757       0.10706001
O        0.26517511       1.25895799      -0.01634938
H        2.68491772       1.12039250       0.06875640
H        0.61531203      -2.03684776      -0.21893593
H       -2.29900469      -0.78711569      -0.65998866
H       -1.72415022       1.68899421       0.14419115
11
Frame=12 idx=011508 GeodesicLength=0.8603416315021362 rxn_smarts="[N:1](=[c:2]1/[c:3]([H:9])[n:4][c:5]([H:10])[c:6]([H:11])[o:7]1)\[H:8]>>[N:1](=[C:2]1/[C@@:3]2([H:9])[N:4]3[C@@:5]2([H:10])[C@:6]3([H:11])[O:7]1)\[H:8]"
N        2.33754593       0.17238625      -0.06463468
C        1.08781923       0.13521945      -0.07750918
C        0.21904654      -1.06432650       0.04689332
N       -0.81614221      -0.91135259       0.93262358
C       -1.35443737      -0.42406654      -0.32169923
C       -1.03125311       0.85181625       0.11864561
O        0.26646181       1.25529896      -0.01933647
H        2.68700789       1.12018518       0.05406431
H        0.63836354      -2.04103642      -0.17029884
H       -2.31045686      -0.77444391      -0.67935795
H       -1.72395540       1.68031987       0.18060952
11
Frame=13 idx=011508 GeodesicLength=0.9325628681711953 rxn_smarts="[N:1](=[c:2]1/[c:3]([H:9])[n:4][c:5]([H:10])[c:6]([H:11])[o:7]1)\[H:8]>>[N:1](=[C:2]1/[C@@:3]2([H:9])[N:4]3[C@@:5]2([H:10])[C@:6]3([H:11])[O:7]1)\[H:8]"
N        2.33939020       0.17106759      -0.07137304
C        1.08861743       0.13645348      -0.08216832
C        0.22481435      -1.06497044       0.04703226
N       -0.83188811      -0.90391760       0.90718305
C       -1.36084847      -0.42002529      -0.34505613
C       -1.03269933       0.84347934       0.13002741
O        0.26773768       1.25151814      -0.02007947
H        2.68913150       1.11998177       0.03709265
H        0.66084472      -2.04340562      -0.11968994
H       -2.32149359      -0.76087512      -0.69972267
H       -1.72360637       1.67069377       0.21675421
11
Frame=14 idx=011508 GeodesicLength=1.004858063956585 rxn_smarts="[N:1](=[c:2]1/[c:3]([H:9])[n:4][c:5]([H:10])[c:6]([H:11])[o:7]1)\[H:8]>>[N:1](=[C:2]1/[C@@:3]2([H:9])[N:4]3[C@@:5]2([H:10])[C@:6]3([H:11])[O:7]1)\[H:8]"
N        2.34112802       0.16971096      -0.07963472
C        1.08932423       0.13758968      -0.08701525
C        0.23063680      -1.06581829       0.04687515
N       -0.84694807      -0.89746764       0.88101985
C       -1.36729179      -0.41546793      -0.36825731
C       -1.03416795       0.83476019       0.14103784
O        0.26901853       1.24761599      -0.01956890
H        2.69115564       1.11941257       0.02051295
H        0.68260564      -2.04374127      -0.06720748
H       -2.33238027      -0.74667402      -0.72026998
H       -1.72308078       1.66007977       0.25250786
11
Frame=15 idx=011508 GeodesicLength=1.077160731186706 rxn_smarts="[N:1](=[c:2]1/[c:3]([H:9])[n:4][c:5]([H:10])[c:6]([H:11])[o:7]1)\[H:8]>>[N:1](=[C:2]1/[C@@:3]2([H:9])[N:4]3[C@@:5]2([H:10])[C@:6]3([H:11])[O:7]1)\[H:8]"
N        2.34283178       0.16824018      -0.08874557
C        1.08999755       0.13859516      -0.09158677
C        0.23653127      -1.06696640       0.04659397
N       -0.86155713      -0.89213189       0.85406879
C       -1.37367840      -0.41036377      -0.39145463
C       -1.03569108       0.82561778       0.15187034
O        0.27034569       1.24356198      -0.01741734
H        2.69316598       1.11866066       0.00306050
H        0.70350983      -2.04191545      -0.01295888
H       -2.34297920      -0.73173298      -0.74132938
H       -1.72247629       1.64843474       0.28789899
11
Frame=16 idx=011508 GeodesicLength=1.1494772256945742 rxn_smarts="[N:1](=[c:2]1/[c:3]([H:9])[n:4][c:5]([H:10])[c:6]([H:11])[o:7]1)\[H:8]>>[N:1](=[C:2]1/[C@@:3]2([H:9])[N:4]3[C@@:5]2([H:10])[C@:6]3([H:11])[O:7]1)\[H:8]"
N        2.34447803       0.16665460      -0.09895629
C        1.09063851       0.13945785      -0.09617994
C        0.24255992      -1.06841311       0.04619898
N       -0.87555587      -0.88776042       0.82638635
C       -1.38000604      -0.40473677      -0.41459518
C       -1.03723062       0.81602229       0.16248696
O        0.27173837       1.23931443      -0.01397774
H        2.69510442       1.11764189      -0.01456906
H        0.72338568      -2.03773155       0.04291286
H       -2.35333713      -0.71614680      -0.76264957
H       -1.72177527       1.63569759       0.32294261
