15
Frame=0 idx=007803 GeodesicLength=0.0 rxn_smarts="[C:1]([C:2]1([C:3]([H:11])([H:12])[H:13])[C:4]([H:14])([H:15])[C:5](=[O:6])[O:7]1)([H:8])([H:9])[H:10]>>[C:1]([C@:2]1([C:4]([C:5](=[O:6])[H:12])([H:14])[H:15])[C:3]([H:11])([H:13])[O:7]1)([H:8])([H:9])[H:10]"
C       -1.19061578       1.16142372      -0.81465911
C       -0.21321488       0.38629154       0.05861306
C       -0.79648397      -0.71447820       0.86436111
C        0.97899732      -0.24478964      -0.66933501
C        1.60838786      -0.84877207       0.56455116
O        2.70444415      -1.11573206       0.88052218
O        0.34979367       1.06026165       1.10080012
H       -0.66069746       2.01985573      -1.23042217
H       -1.59635490       0.56067930      -1.63246597
H       -2.01114411       1.53877851      -0.20465990
H       -0.87552664      -1.76221663       0.57584139
H        0.67851978      -1.14270067       1.29570245
H       -1.37984494      -0.39917399       1.72064220
H        0.75879494      -1.01033129      -1.42303035
H        1.64494501       0.51090405      -1.08646113
15
Frame=1 idx=007803 GeodesicLength=0.10085756715411102 rxn_smarts="[C:1]([C:2]1([C:3]([H:11])([H:12])[H:13])[C:4]([H:14])([H:15])[C:5](=[O:6])[O:7]1)([H:8])([H:9])[H:10]>>[C:1]([C@:2]1([C:4]([C:5](=[O:6])[H:12])([H:14])[H:15])[C:3]([H:11])([H:13])[O:7]1)([H:8])([H:9])[H:10]"
C       -1.18585215       1.16682994      -0.81021021
C       -0.21637284       0.37285116       0.05099103
C       -0.79792199      -0.71604683       0.87207417
C        0.98071016      -0.25021162      -0.67514071
C        1.61933537      -0.82751476       0.56857041
O        2.72333110      -1.08351283       0.87153712
O        0.35399966       1.03446247       1.10361123
H       -0.64875328       2.02119098      -1.22514902
H       -1.60200423       0.57305464      -1.62799026
H       -1.99872260       1.55054260      -0.19357646
H       -0.87347368      -1.76426982       0.58458811
H        0.67337078      -1.15755055       1.30918538
H       -1.42416120      -0.39781001       1.69636147
H        0.76267632      -1.02882732      -1.41548572
H        1.63383854       0.50681195      -1.10936657
15
Frame=2 idx=007803 GeodesicLength=0.20169524822150864 rxn_smarts="[C:1]([C:2]1([C:3]([H:11])([H:12])[H:13])[C:4]([H:14])([H:15])[C:5](=[O:6])[O:7]1)([H:8])([H:9])[H:10]>>[C:1]([C@:2]1([C:4]([C:5](=[O:6])[H:12])([H:14])[H:15])[C:3]([H:11])([H:13])[O:7]1)([H:8])([H:9])[H:10]"
C       -1.18085584       1.17213357      -0.80553149
C       -0.21962493       0.35930150       0.04350815
C       -0.79941475      -0.71730502       0.88028413
C        0.98232001      -0.25565072      -0.68084142
C        1.63002425      -0.80635878       0.57203011
O        2.74172699      -1.05075840       0.86224430
O        0.35797834       1.00902591       1.10617827
H       -0.63659386       2.02224146      -1.21987281
H       -1.60762661       0.58550222      -1.62311276
H       -1.98584453       1.56230289      -0.18226513
H       -0.87163783      -1.76597360       0.59365905
H        0.66806346      -1.17221676       1.32318915
H       -1.46769277      -0.39739543       1.67025818
H        0.76668277      -1.04712504      -1.40766671
H        1.62249529       0.50227620      -1.13206103
15
Frame=3 idx=007803 GeodesicLength=0.3025161664944868 rxn_smarts="[C:1]([C:2]1([C:3]([H:11])([H:12])[H:13])[C:4]([H:14])([H:15])[C:5](=[O:6])[O:7]1)([H:8])([H:9])[H:10]>>[C:1]([C@:2]1([C:4]([C:5](=[O:6])[H:12])([H:14])[H:15])[C:3]([H:11])([H:13])[O:7]1)([H:8])([H:9])[H:10]"
C       -1.17561839       1.17735409      -0.80062753
C       -0.22298132       0.34564822       0.03615536
C       -0.80101557      -0.71823291       0.88893638
C        0.98380277      -0.26112183      -0.68645121
C        1.64046559      -0.78525969       0.57493270
O        2.75962449      -1.01745632       0.85264860
O        0.36176016       0.98395687       1.10849978
H       -0.62421335       2.02303917      -1.21457265
H       -1.61319532       0.59807722      -1.61786063
H       -1.97250430       1.57405229      -0.17072802
H       -0.86999692      -1.76732640       0.60302972
H        0.66248535      -1.18665860       1.33782675
H       -1.51029172      -0.39807123       1.64237093
H        0.77079001      -1.06526223      -1.39956083
H        1.61088850       0.49726136      -1.15459936
15
Frame=4 idx=007803 GeodesicLength=0.4033226039704632 rxn_smarts="[C:1]([C:2]1([C:3]([H:11])([H:12])[H:13])[C:4]([H:14])([H:15])[C:5](=[O:6])[O:7]1)([H:8])([H:9])[H:10]>>[C:1]([C@:2]1([C:4]([C:5](=[O:6])[H:12])([H:14])[H:15])[C:3]([H:11])([H:13])[O:7]1)([H:8])([H:9])[H:10]"
C       -1.17012978       1.18250884      -0.79550168
C       -0.22644944       0.33189838       0.02892294
C       -0.80277709      -0.71881236       0.89797144
C        0.98513689      -0.26663910      -0.69198364
C        1.65066887      -0.76416980       0.57727753
O        2.77701711      -0.98359607       0.84273994
O        0.36537218       0.95925469       1.11057754
H       -0.61160492       2.02361589      -1.20922355
H       -1.61867795       0.61083256      -1.61226066
H       -1.95869781       1.58577605      -0.15896638
H       -0.86852790      -1.76832800       0.61267605
H        0.65651954      -1.20083858       1.35320987
H       -1.55182006      -0.39996074       1.61274664
H        0.77497831      -1.08327351      -1.39115366
H        1.59899205       0.49173175      -1.17703239
15
Frame=5 idx=007803 GeodesicLength=0.5041184273642861 rxn_smarts="[C:1]([C:2]1([C:3]([H:11])([H:12])[H:13])[C:4]([H:14])([H:15])[C:5](=[O:6])[O:7]1)([H:8])([H:9])[H:10]>>[C:1]([C@:2]1([C:4]([C:5](=[O:6])[H:12])([H:14])[H:15])[C:3]([H:11])([H:13])[O:7]1)([H:8])([H:9])[H:10]"
C       -1.16438125       1.18761410      -0.79015727
C       -0.23003417       0.31806206       0.02180105
C       -0.80475168      -0.71902475       0.90732708
C        0.98630502      -0.27221553      -0.69745217
C        1.66064527      -0.74304034       0.57906153
O        2.79390272      -0.94917844       0.83249281
O        0.36883807       0.93491335       1.11241884
H       -0.59876390       2.02400442      -1.20379713
H       -1.62403733       0.62381989      -1.60634306
H       -1.94442837       1.59745116      -0.14698201
H       -0.86720562      -1.76897829       0.62257501
H        0.65004561      -1.21471867       1.36945308
H       -1.59214993      -0.40317188       1.58143943
H        0.77923333      -1.10118948      -1.38243045
H        1.58678223       0.48565240      -1.19940673
15
Frame=6 idx=007803 GeodesicLength=0.6049068673230539 rxn_smarts="[C:1]([C:2]1([C:3]([H:11])([H:12])[H:13])[C:4]([H:14])([H:15])[C:5](=[O:6])[O:7]1)([H:8])([H:9])[H:10]>>[C:1]([C@:2]1([C:4]([C:5](=[O:6])[H:12])([H:14])[H:15])[C:3]([H:11])([H:13])[O:7]1)([H:8])([H:9])[H:10]"
C       -1.15836170       1.19268238      -0.78459531
C       -0.23373727       0.30414908       0.01477970
C       -0.80699188      -0.71885566       0.91693674
C        0.98729234      -0.27786334      -0.70287028
C        1.67040460      -0.72182177       0.58027562
O        2.81027975      -0.91419633       0.82187131
O        0.37217852       0.91091852       1.11403527
H       -0.58568282       2.02423643      -1.19825879
H       -1.62923029       0.63708531      -1.60013662
H       -1.92970167       1.60904631      -0.13477532
H       -0.86600816      -1.76927944       0.63270137
H        0.64293662      -1.22826814       1.38666696
H       -1.63115843      -0.40778572       1.54851066
H        0.78354412      -1.11903671      -1.37337692
H        1.57423628       0.47898910      -1.22176439
15
Frame=7 idx=007803 GeodesicLength=0.705691224045151 rxn_smarts="[C:1]([C:2]1([C:3]([H:11])([H:12])[H:13])[C:4]([H:14])([H:15])[C:5](=[O:6])[O:7]1)([H:8])([H:9])[H:10]>>[C:1]([C@:2]1([C:4]([C:5](=[O:6])[H:12])([H:14])[H:15])[C:3]([H:11])([H:13])[O:7]1)([H:8])([H:9])[H:10]"
C       -1.15206064       1.19772573      -0.77881652
C       -0.23755823       0.29017079       0.00784803
C       -0.80955031      -0.71829270       0.92672988
C        0.98808710      -0.28359473      -0.70825219
C        1.67995788      -0.70046689       0.58090608
O        2.82615089      -0.87864214       0.81083033
O        0.37541007       0.88724668       1.11544307
H       -0.57235416       2.02434413      -1.19257047
H       -1.63420959       0.65067517      -1.59367271
H       -1.91452864       1.62052545      -0.12234690
H       -0.86491258      -1.76923582       0.64302872
H        0.63505966      -1.24145657       1.40496517
H       -1.66872734      -0.41386796       1.51403104
H        0.78790452      -1.13683900      -1.36397862
H        1.56133136       0.47170786      -1.24414492
15
Frame=8 idx=007803 GeodesicLength=0.8064726655249206 rxn_smarts="[C:1]([C:2]1([C:3]([H:11])([H:12])[H:13])[C:4]([H:14])([H:15])[C:5](=[O:6])[O:7]1)([H:8])([H:9])[H:10]>>[C:1]([C@:2]1([C:4]([C:5](=[O:6])[H:12])([H:14])[H:15])[C:3]([H:11])([H:13])[O:7]1)([H:8])([H:9])[H:10]"
C       -1.14546505       1.20275353      -0.77282033
C       -0.24149401       0.27613772       0.00099364
C       -0.81248010      -0.71733015       0.93662952
C        0.98867963      -0.28942150      -0.71361324
C        1.68931393      -0.67893027       0.58093171
O        2.84151840      -0.84249480       0.79931805
O        0.37854475       0.86386315       1.11666095
H       -0.55876652       2.02435900      -1.18668907
H       -1.63892125       0.66463311      -1.58698261
H       -1.89892129       1.63184666      -0.10969708
H       -0.86389980      -1.76885730       0.65352604
H        0.62627247      -1.25425828       1.42446066
H       -1.70473785      -0.42146030       1.47808817
H        0.79231297      -1.15461702      -1.35422160
H        1.54804371       0.46377645      -1.26658480
15
Frame=9 idx=007803 GeodesicLength=0.9072592224881028 rxn_smarts="[C:1]([C:2]1([C:3]([H:11])([H:12])[H:13])[C:4]([H:14])([H:15])[C:5](=[O:6])[O:7]1)([H:8])([H:9])[H:10]>>[C:1]([C@:2]1([C:4]([C:5](=[O:6])[H:12])([H:14])[H:15])[C:3]([H:11])([H:13])[O:7]1)([H:8])([H:9])[H:10]"
C       -1.13856401       1.20776992      -0.76660561
C       -0.24553922       0.26205954      -0.00579595
C       -0.81583610      -0.71596767       0.94655288
C        0.98906600      -0.29535319      -0.71896875
C        1.69848760      -0.65716242       0.58032947
O        2.85639134      -0.80572892       0.78727633
O        0.38159181       0.84072041       1.11771694
H       -0.54490798       2.02430814      -1.18056568
H       -1.64331090       0.67899408      -1.58010136
H       -1.88290252       1.64296056      -0.09682674
H       -0.86295805      -1.76815248       0.66415251
H        0.61642192      -1.26666020       1.44525945
H       -1.73906690      -0.43056620       1.44078722
H        0.79677295      -1.17238486      -1.34409535
H        1.53435406       0.45516330      -1.28911536
15
Frame=10 idx=007803 GeodesicLength=1.008051807746264 rxn_smarts="[C:1]([C:2]1([C:3]([H:11])([H:12])[H:13])[C:4]([H:14])([H:15])[C:5](=[O:6])[O:7]1)([H:8])([H:9])[H:10]>>[C:1]([C@:2]1([C:4]([C:5](=[O:6])[H:12])([H:14])[H:15])[C:3]([H:11])([H:13])[O:7]1)([H:8])([H:9])[H:10]"
C       -1.13134484       1.21277925      -0.76017148
C       -0.24968629       0.24794556      -0.01253627
C       -0.81967082      -0.71421327       0.95641220
C        0.98924529      -0.30139979      -0.72433738
C        1.70749151      -0.63511929       0.57906725
O        2.87077816      -0.76831004       0.77463690
O        0.38455489       0.81776012       1.11863813
H       -0.53076433       2.02422329      -1.17414525
H       -1.64731174       0.69379614      -1.57306934
H       -1.86649956       1.65381211      -0.08373887
H       -0.86207710      -1.76714185       0.67486699
H        0.60534371      -1.27864547       1.46747617
H       -1.77159747      -0.44117208       1.40225938
H        0.80129825      -1.19015625      -1.33359051
H        1.52024035       0.44584158      -1.31176791
15
Frame=11 idx=007803 GeodesicLength=1.1088542093266995 rxn_smarts="[C:1]([C:2]1([C:3]([H:11])([H:12])[H:13])[C:4]([H:14])([H:15])[C:5](=[O:6])[O:7]1)([H:8])([H:9])[H:10]>>[C:1]([C@:2]1([C:4]([C:5](=[O:6])[H:12])([H:14])[H:15])[C:3]([H:11])([H:13])[O:7]1)([H:8])([H:9])[H:10]"
C       -1.12379258       1.21778041      -0.75351501
C       -0.25392506       0.23380113      -0.01924419
C       -0.82403408      -0.71208624       0.96611239
C        0.98921999      -0.30757023      -0.72973827
C        1.71634129      -0.61275149       0.57710768
O        2.88468995      -0.73018030       0.76132603
O        0.38743481       0.79490668       1.11945649
H       -0.51631482       2.02412852      -1.16736837
H       -1.65085621       0.70906995      -1.56592453
H       -1.84973878       1.66434533      -0.07043507
H       -0.86125425      -1.76584955       0.68561650
H        0.59286025      -1.29020946       1.49121987
H       -1.80221819      -0.45322815       1.36265598
H        0.80590808      -1.20794073      -1.32269820
H        1.50567959       0.43578414      -1.33457131
15
Frame=12 idx=007803 GeodesicLength=1.2096699172926337 rxn_smarts="[C:1]([C:2]1([C:3]([H:11])([H:12])[H:13])[C:4]([H:14])([H:15])[C:5](=[O:6])[O:7]1)([H:8])([H:9])[H:10]>>[C:1]([C@:2]1([C:4]([C:5](=[O:6])[H:12])([H:14])[H:15])[C:3]([H:11])([H:13])[O:7]1)([H:8])([H:9])[H:10]"
C       -1.11589029       1.22277037      -0.74663158
C       -0.25824353       0.21962786      -0.02593952
C       -0.82897242      -0.70961816       0.97555233
C        0.98899749      -0.31387461      -0.73519411
C        1.72505541      -0.59000760       0.57440543
O        2.89814253      -0.69125749       0.74726353
O        0.39022964       0.77206958       1.12020558
H       -0.50153170       2.02404360      -1.16017330
H       -1.65387578       0.72484472      -1.55870313
H       -1.83264308       1.67450907      -0.05691420
H       -0.86049266      -1.76431073       0.69633922
H        0.57877973      -1.30135068       1.51660345
H       -1.83083688      -0.46666150       1.32215402
H        0.81063297      -1.22574869      -1.31141209
H        1.49064857       0.42496427      -1.35755564
15
Frame=13 idx=007803 GeodesicLength=1.3105041067011594 rxn_smarts="[C:1]([C:2]1([C:3]([H:11])([H:12])[H:13])[C:4]([H:14])([H:15])[C:5](=[O:6])[O:7]1)([H:8])([H:9])[H:10]>>[C:1]([C@:2]1([C:4]([C:5](=[O:6])[H:12])([H:14])[H:15])[C:3]([H:11])([H:13])[O:7]1)([H:8])([H:9])[H:10]"
C       -1.10761697       1.22774115      -0.73951404
C       -0.26262651       0.20542287      -0.03264176
C       -0.83452426      -0.70685371       0.98462981
C        0.98858859      -0.32032110      -0.74072677
C        1.73365674      -0.56682419       0.57091155
O        2.91115031      -0.65143404       0.73235753
O        0.39293553       0.74913902       1.12092329
H       -0.48638008       2.02397845      -1.15249848
H       -1.65630226       0.74114193      -1.55143405
H       -1.81522805       1.68425607      -0.04317266
H       -0.85979967      -1.76256454       0.70696618
H        0.56289222      -1.31208239       1.54373385
H       -1.85737571      -0.48136769       1.28093763
H        0.81551053      -1.24358618      -1.29972083
H        1.47511960       0.41335435      -1.38075123
15
Frame=14 idx=007803 GeodesicLength=1.4113625613119842 rxn_smarts="[C:1]([C:2]1([C:3]([H:11])([H:12])[H:13])[C:4]([H:14])([H:15])[C:5](=[O:6])[O:7]1)([H:8])([H:9])[H:10]>>[C:1]([C@:2]1([C:4]([C:5](=[O:6])[H:12])([H:14])[H:15])[C:3]([H:11])([H:13])[O:7]1)([H:8])([H:9])[H:10]"
C       -1.09894697       1.23268463      -0.73215025
C       -0.26705718       0.19117815      -0.03937281
C       -0.84072224      -0.70384931       0.99324145
C        0.98800878      -0.32692240      -0.74636289
C        1.74217230      -0.54313079       0.56656605
O        2.92373324      -0.61056680       0.71650382
O        0.39555119       0.72599063       1.12164657
H       -0.47081314       2.02393742      -1.14427906
H       -1.65806847       0.75798538      -1.54413878
H       -1.79749674       1.69355023      -0.02919795
H       -0.85918543      -1.76066271       0.71742457
H        0.54496865      -1.32241384       1.57272891
H       -1.88179795      -0.49723555       1.23919782
H        0.82059107      -1.26146605      -1.28761328
H        1.45906289       0.40092101      -1.40419415
15
Frame=15 idx=007803 GeodesicLength=1.5122538286561458 rxn_smarts="[C:1]([C:2]1([C:3]([H:11])([H:12])[H:13])[C:4]([H:14])([H:15])[C:5](=[O:6])[O:7]1)([H:8])([H:9])[H:10]>>[C:1]([C@:2]1([C:4]([C:5](=[O:6])[H:12])([H:14])[H:15])[C:3]([H:11])([H:13])[O:7]1)([H:8])([H:9])[H:10]"
C       -1.08984592       1.23759166      -0.72452086
C       -0.27151614       0.17687953      -0.04615341
C       -0.84758981      -0.70067332       1.00128792
C        0.98727456      -0.33369527      -0.75212924
C        1.75063289      -0.51884042       0.56130096
O        2.93590871      -0.56846625       0.69957936
O        0.39807882       0.70247925       1.12241395
H       -0.45476941       2.02391433      -1.13544833
H       -1.65910891       0.77539988      -1.53682363
H       -1.77943108       1.70236770      -0.01496648
H       -0.85865836      -1.75866298       0.72764236
H        0.52475487      -1.33235957       1.60370962
H       -1.90409997      -0.51414686       1.19710272
H        0.82593126      -1.27940597      -1.27506730
H        1.44243849       0.38761831      -1.42792765
15
Frame=16 idx=007803 GeodesicLength=1.6131884333033528 rxn_smarts="[C:1]([C:2]1([C:3]([H:11])([H:12])[H:13])[C:4]([H:14])([H:15])[C:5](=[O:6])[O:7]1)([H:8])([H:9])[H:10]>>[C:1]([C@:2]1([C:4]([C:5](=[O:6])[H:12])([H:14])[H:15])[C:3]([H:11])([H:13])[O:7]1)([H:8])([H:9])[H:10]"
C       -1.08026974       1.24245469      -0.71659774
C       -0.27598237       0.16250644      -0.05300559
C       -0.85514378      -0.69740330       1.00867292
C        0.98640377      -0.34066422      -0.75805590
C        1.75907083      -0.49385107       0.55503530
O        2.94768911      -0.52489152       0.68144001
O        0.40052813       0.67843955       1.12326069
H       -0.43816987       2.02389569      -1.12593321
H       -1.65935640       0.79341912      -1.52948188
H       -1.76098968       1.71069654      -0.00043971
H       -0.85822253      -1.75663151       0.73755247
H        0.50196252      -1.34192645       1.63681039
H       -1.92431468      -0.53199454       1.15479849
H        0.83159861      -1.29743317      -1.26205189
H        1.42519609       0.37338377      -1.45200435
