16
Frame=0 idx=011332 GeodesicLength=0.0 rxn_smarts="[C:1]([c:2]1[c:3]([C:4]([H:11])([H:12])[H:13])[c:5]([H:14])[c:6]([H:15])[n:7]1[H:16])([H:8])([H:9])[H:10]>>[C:1]([C:2]1=[C:3]([C+:4]([H:11])[H:12])[C:5]([H:13])([H:14])[C-:6]([H:15])[N:7]1[H:16])([H:8])([H:9])[H:10]"
C       -1.32297472       1.43719486      -0.15182431
C       -0.09600249       0.62377182      -0.08152948
C       -0.03853624      -0.80355764       0.12154220
C       -1.16523196      -1.74239855      -0.01857184
C        1.40879902      -1.10679678       0.00560077
C        2.06646888       0.03776854      -0.24648036
N        1.15532400       1.07696786      -0.33167144
H       -1.83807340       1.25392728      -1.10399209
H       -1.12736294       2.50632570      -0.05792335
H       -2.02017977       1.13283499       0.63314056
H       -1.04121607      -2.67588387       0.52315448
H       -2.15336371      -1.30217649       0.09332368
H       -0.19643903      -0.62565594       1.23861855
H        1.84088413      -2.08935077       0.10196654
H        3.12167567       0.22832370      -0.36186588
H        1.40622861       2.04870533      -0.36348807
16
Frame=1 idx=011332 GeodesicLength=0.12920708787361637 rxn_smarts="[C:1]([c:2]1[c:3]([C:4]([H:11])([H:12])[H:13])[c:5]([H:14])[c:6]([H:15])[n:7]1[H:16])([H:8])([H:9])[H:10]>>[C:1]([C:2]1=[C:3]([C+:4]([H:11])[H:12])[C:5]([H:13])([H:14])[C-:6]([H:15])[N:7]1[H:16])([H:8])([H:9])[H:10]"
C       -1.32359331       1.44446475      -0.15569757
C       -0.09880796       0.62628480      -0.08972564
C       -0.04315855      -0.80106661       0.09015984
C       -1.16813153      -1.73861463      -0.00347847
C        1.40688829      -1.10208226       0.03752875
C        2.06635050       0.04194781      -0.23861437
N        1.15492280       1.07685335      -0.33493431
H       -1.86362202       1.23808111      -1.08872272
H       -1.12223808       2.51526666      -0.09974709
H       -2.00331252       1.16976958       0.65527872
H       -1.02751113      -2.69118331       0.49817163
H       -2.15687307      -1.29976284       0.10411796
H       -0.18198724      -0.67233443       1.24788899
H        1.83272013      -2.09129100       0.08228351
H        3.12296078       0.23493267      -0.33451579
H        1.40539291       2.04873434      -0.36999343
16
Frame=2 idx=011332 GeodesicLength=0.2584000125986683 rxn_smarts="[C:1]([c:2]1[c:3]([C:4]([H:11])([H:12])[H:13])[c:5]([H:14])[c:6]([H:15])[n:7]1[H:16])([H:8])([H:9])[H:10]>>[C:1]([C:2]1=[C:3]([C+:4]([H:11])[H:12])[C:5]([H:13])([H:14])[C-:6]([H:15])[N:7]1[H:16])([H:8])([H:9])[H:10]"
C       -1.32422469       1.45155445      -0.16010754
C       -0.10183971       0.62828158      -0.09922574
C       -0.04734155      -0.79859959       0.06061125
C       -1.17011945      -1.73405066       0.01329555
C        1.40320788      -1.09801881       0.06490350
C        2.06593592       0.04606350      -0.22880576
N        1.15442340       1.07655527      -0.33810446
H       -1.88988346       1.22189534      -1.07184996
H       -1.11772565       2.52278735      -0.14353014
H       -1.98458369       1.20795057       0.67655374
H       -1.01456122      -2.70618710       0.46963143
H       -2.15967693      -1.29692170       0.11608434
H       -0.16586074      -0.72027066       1.25804182
H        1.82425671      -2.09074163       0.06497014
H        3.12350291       0.24109031      -0.30731363
H        1.40449027       2.04861179      -0.37515457
16
Frame=3 idx=011332 GeodesicLength=0.38756860858848574 rxn_smarts="[C:1]([c:2]1[c:3]([C:4]([H:11])([H:12])[H:13])[c:5]([H:14])[c:6]([H:15])[n:7]1[H:16])([H:8])([H:9])[H:10]>>[C:1]([C:2]1=[C:3]([C+:4]([H:11])[H:12])[C:5]([H:13])([H:14])[C-:6]([H:15])[N:7]1[H:16])([H:8])([H:9])[H:10]"
C       -1.32490980       1.45848953      -0.16500276
C       -0.10511850       0.62983749      -0.11003744
C       -0.05128426      -0.79616010       0.03277474
C       -1.17121971      -1.72880276       0.03193663
C        1.39807513      -1.09463696       0.08789923
C        2.06521237       0.05029048      -0.21746464
N        1.15377181       1.07615787      -0.34114898
H       -1.91677655       1.20559131      -1.05322878
H       -1.11399201       2.52879410      -0.18908211
H       -1.96400052       1.24737742       0.69678285
H       -1.00282317      -2.72048744       0.43750448
H       -2.16180412      -1.29366859       0.12905309
H       -0.14782969      -0.76974166       1.26914559
H        1.81592105      -2.08857390       0.05011085
H        3.12341127       0.24709889      -0.27985554
H        1.40336671       2.04843433      -0.37938723
16
Frame=4 idx=011332 GeodesicLength=0.5166993072418731 rxn_smarts="[C:1]([c:2]1[c:3]([C:4]([H:11])([H:12])[H:13])[c:5]([H:14])[c:6]([H:15])[n:7]1[H:16])([H:8])([H:9])[H:10]>>[C:1]([C:2]1=[C:3]([C+:4]([H:11])[H:12])[C:5]([H:13])([H:14])[C-:6]([H:15])[N:7]1[H:16])([H:8])([H:9])[H:10]"
C       -1.32569014       1.46525664      -0.17049337
C       -0.10864125       0.63101787      -0.12205463
C       -0.05508668      -0.79375125       0.00677097
C       -1.17134301      -1.72297587       0.05278281
C        1.39186698      -1.09183984       0.10749707
C        2.06417119       0.05471174      -0.20490599
N        1.15296189       1.07575914      -0.34378896
H       -1.94406412       1.18923596      -1.03296072
H       -1.11122625       2.53317715      -0.23641579
H       -1.94173756       1.28804014       0.71552859
H       -0.99273650      -2.73359400       0.40199170
H       -2.16321300      -1.29007418       0.14282261
H       -0.12780497      -0.82096805       1.28144066
H        1.80783890      -2.08541530       0.03660983
H        3.12274541       0.25310507      -0.25227064
H        1.40195910       2.04831477      -0.38255414
16
Frame=5 idx=011332 GeodesicLength=0.6457954945534001 rxn_smarts="[C:1]([c:2]1[c:3]([C:4]([H:11])([H:12])[H:13])[c:5]([H:14])[c:6]([H:15])[n:7]1[H:16])([H:8])([H:9])[H:10]>>[C:1]([C:2]1=[C:3]([C+:4]([H:11])[H:12])[C:5]([H:13])([H:14])[C-:6]([H:15])[N:7]1[H:16])([H:8])([H:9])[H:10]"
C       -1.32656359       1.47179720      -0.17663515
C       -0.11239423       0.63183412      -0.13526734
C       -0.05880382      -0.79138681      -0.01739498
C       -1.17037006      -1.71664978       0.07601288
C        1.38485216      -1.08950409       0.12457486
C        2.06275580       0.05939757      -0.19119232
N        1.15196307       1.07538690      -0.34583232
H       -1.97151819       1.17294225      -1.01112159
H       -1.10955172       2.53576874      -0.28540207
H       -1.91780354       1.32984150       0.73247218
H       -0.98471114      -2.74486932       0.36346108
H       -2.16378874      -1.28624186       0.15710132
H       -0.10579087      -0.87427650       1.29503205
H        1.80007460      -2.08148816       0.02356523
H        3.12145947       0.25917138      -0.22469666
H        1.40019082       2.04827684      -0.38467718
16
Frame=6 idx=011332 GeodesicLength=0.7748311906094858 rxn_smarts="[C:1]([c:2]1[c:3]([C:4]([H:11])([H:12])[H:13])[c:5]([H:14])[c:6]([H:15])[n:7]1[H:16])([H:8])([H:9])[H:10]>>[C:1]([C:2]1=[C:3]([C+:4]([H:11])[H:12])[C:5]([H:13])([H:14])[C-:6]([H:15])[N:7]1[H:16])([H:8])([H:9])[H:10]"
C       -1.32757080       1.47808355      -0.18349148
C       -0.11635599       0.63232112      -0.14958896
C       -0.06246388      -0.78911808      -0.03981675
C       -1.16817493      -1.70992079       0.10164563
C        1.37728761      -1.08757642       0.13972117
C        2.06099672       0.06441713      -0.17625649
N        1.15077851       1.07512257      -0.34704439
H       -1.99891002       1.15680039      -0.98782174
H       -1.10909947       2.53647489      -0.33590544
H       -1.89246813       1.37265605       0.74721684
H       -0.97934269      -2.75359568       0.32249264
H       -2.16341276      -1.28226843       0.17174162
H       -0.08158879      -0.93022079       1.30986731
H        1.79265971      -2.07694758       0.01031342
H        3.11965711       0.26535524      -0.19739379
H        1.39800781       2.04841682      -0.38567959
16
Frame=7 idx=011332 GeodesicLength=0.9037838069540083 rxn_smarts="[C:1]([c:2]1[c:3]([C:4]([H:11])([H:12])[H:13])[c:5]([H:14])[c:6]([H:15])[n:7]1[H:16])([H:8])([H:9])[H:10]>>[C:1]([C:2]1=[C:3]([C+:4]([H:11])[H:12])[C:5]([H:13])([H:14])[C-:6]([H:15])[N:7]1[H:16])([H:8])([H:9])[H:10]"
C       -1.32870647       1.48406609      -0.19109027
C       -0.12050069       0.63247791      -0.16508281
C       -0.06608880      -0.78697793      -0.06082285
C       -1.16465395      -1.70283033       0.12931515
C        1.36931046      -1.08600039       0.15330713
C        2.05885472       0.06985938      -0.15980402
N        1.14938035       1.07499527      -0.34731896
H       -2.02611608       1.14087144      -0.96304885
H       -1.10994529       2.53515654      -0.38784659
H       -1.86572037       1.41640513       0.75955283
H       -0.97714315      -2.75901655       0.27984209
H       -2.16188007      -1.27821808       0.18699362
H       -0.05512206      -0.98955363       1.32556618
H        1.78564869      -2.07173949      -0.00369928
H        3.11734641       0.27174388      -0.17013004
H        1.39533627       2.04876075      -0.38573334
16
Frame=8 idx=011332 GeodesicLength=1.0326285846264396 rxn_smarts="[C:1]([c:2]1[c:3]([C:4]([H:11])([H:12])[H:13])[c:5]([H:14])[c:6]([H:15])[n:7]1[H:16])([H:8])([H:9])[H:10]>>[C:1]([C:2]1=[C:3]([C+:4]([H:11])[H:12])[C:5]([H:13])([H:14])[C-:6]([H:15])[N:7]1[H:16])([H:8])([H:9])[H:10]"
C       -1.32997739       1.48974232      -0.19948967
C       -0.12479832       0.63232929      -0.18186896
C       -0.06969000      -0.78500734      -0.08094101
C       -1.15973816      -1.69543150       0.15826327
C        1.36101241      -1.08475316       0.16555813
C        2.05630349       0.07585650      -0.14130211
N        1.14776324       1.07506704      -0.34654684
H       -2.05305057       1.12523037      -0.93678268
H       -1.11217357       2.53173733      -0.44118694
H       -1.83758936       1.46103985       0.76923778
H       -0.97858335      -2.76051813       0.23660316
H       -2.15897398      -1.27404371       0.20357782
H       -0.02633497      -1.05329395       1.34140810
H        1.77912191      -2.06575556      -0.01896254
H        3.11457464       0.27842429      -0.14255615
H        1.39213400       2.04937636      -0.38501136
16
Frame=9 idx=011332 GeodesicLength=1.1614494003936537 rxn_smarts="[C:1]([c:2]1[c:3]([C:4]([H:11])([H:12])[H:13])[c:5]([H:14])[c:6]([H:15])[n:7]1[H:16])([H:8])([H:9])[H:10]>>[C:1]([C:2]1=[C:3]([C+:4]([H:11])[H:12])[C:5]([H:13])([H:14])[C-:6]([H:15])[N:7]1[H:16])([H:8])([H:9])[H:10]"
C       -1.33130555       1.49511039      -0.20869890
C       -0.12920297       0.63188220      -0.20025980
C       -0.07324351      -0.78320425      -0.10089806
C       -1.15338482      -1.68771231       0.18741908
C        1.35232729      -1.08374681       0.17673524
C        2.05313655       0.08263934      -0.11991383
N        1.14587785       1.07530777      -0.34479015
H       -2.07964037       1.11002027      -0.90884555
H       -1.11583128       2.52610735      -0.49585486
H       -1.80774366       1.50652125       0.77620206
H       -0.98379695      -2.75774813       0.19369298
H       -2.15436764      -1.26950624       0.22268439
H        0.00435763      -1.12266282       1.35637855
H        1.77327810      -2.05869945      -0.03560037
H        3.11118407       0.28551302      -0.11417046
H        1.38835526       2.05017841      -0.38408030
16
Frame=10 idx=011332 GeodesicLength=1.2901694530579562 rxn_smarts="[C:1]([c:2]1[c:3]([C:4]([H:11])([H:12])[H:13])[c:5]([H:14])[c:6]([H:15])[n:7]1[H:16])([H:8])([H:9])[H:10]>>[C:1]([C:2]1=[C:3]([C+:4]([H:11])[H:12])[C:5]([H:13])([H:14])[C-:6]([H:15])[N:7]1[H:16])([H:8])([H:9])[H:10]"
C       -1.33269895       1.50024599      -0.21886234
C       -0.13367344       0.63122942      -0.22027703
C       -0.07675969      -0.78156843      -0.12129962
C       -1.14556771      -1.67967945       0.21604118
C        1.34322498      -1.08295684       0.18703507
C        2.04922768       0.09040259      -0.09462666
N        1.14370398       1.07583407      -0.34188836
H       -2.10563926       1.09538593      -0.87943113
H       -1.12096765       2.51831691      -0.55176144
H       -1.77646499       1.55280823       0.77997925
H       -0.99297968      -2.75075410       0.15223691
H       -2.14793766      -1.26414614       0.24562283
H        0.03711662      -1.19911594       1.36925545
H        1.76821278      -2.05027447      -0.05399383
H        3.10720486       0.29298356      -0.08482993
H        1.38399814       2.05128867      -0.38320036
16
Frame=11 idx=011332 GeodesicLength=1.4188588624438072 rxn_smarts="[C:1]([c:2]1[c:3]([C:4]([H:11])([H:12])[H:13])[c:5]([H:14])[c:6]([H:15])[n:7]1[H:16])([H:8])([H:9])[H:10]>>[C:1]([C:2]1=[C:3]([C+:4]([H:11])[H:12])[C:5]([H:13])([H:14])[C-:6]([H:15])[N:7]1[H:16])([H:8])([H:9])[H:10]"
C       -1.33410128       1.50520930      -0.23002569
C       -0.13816534       0.63042941      -0.24205166
C       -0.08022659      -0.78007510      -0.14267183
C       -1.13618854      -1.67122259       0.24387815
C        1.33356574      -1.08228605       0.19680639
C        2.04418123       0.09941547      -0.06422934
N        1.14116993       1.07660945      -0.33797936
H       -2.13080855       1.08154768      -0.84861476
H       -1.12759157       2.50840351      -0.60868576
H       -1.74376934       1.59980206       0.78033017
H       -1.00617062      -2.73965034       0.11266803
H       -2.13944223      -1.25738653       0.27351029
H        0.07195475      -1.28420539       1.37870728
H        1.76419865      -2.04000180      -0.07415237
H        3.10229251       0.30082108      -0.05420539
H        1.37910125       2.05258983      -0.38328416
16
Frame=12 idx=011332 GeodesicLength=1.5475120679977514 rxn_smarts="[C:1]([c:2]1[c:3]([C:4]([H:11])([H:12])[H:13])[c:5]([H:14])[c:6]([H:15])[n:7]1[H:16])([H:8])([H:9])[H:10]>>[C:1]([C:2]1=[C:3]([C+:4]([H:11])[H:12])[C:5]([H:13])([H:14])[C-:6]([H:15])[N:7]1[H:16])([H:8])([H:9])[H:10]"
C       -1.33547859       1.51007201      -0.24227574
C       -0.14265287       0.62952434      -0.26577751
C       -0.08368580      -0.77874668      -0.16552356
C       -1.12505345      -1.66214258       0.27130408
C        1.32320021      -1.08168556       0.20613490
C        2.03746963       0.10981347      -0.02801657
N        1.13820407       1.07753480      -0.33348342
H       -2.15492263       1.06874362      -0.81656035
H       -1.13570986       2.49649548      -0.66635695
H       -1.70977399       1.64733133       0.77698392
H       -1.02365039      -2.72444651       0.07558828
H       -2.12848906      -1.24856638       0.30753383
H        0.10937489      -1.37968330       1.38292924
H        1.76148785      -2.02733740      -0.09639691
H        3.09587745       0.30921077      -0.02066653
H        1.37380253       2.05388259      -0.38541672
16
Frame=13 idx=011332 GeodesicLength=1.6761673037890534 rxn_smarts="[C:1]([c:2]1[c:3]([C:4]([H:11])([H:12])[H:13])[c:5]([H:14])[c:6]([H:15])[n:7]1[H:16])([H:8])([H:9])[H:10]>>[C:1]([C:2]1=[C:3]([C+:4]([H:11])[H:12])[C:5]([H:13])([H:14])[C-:6]([H:15])[N:7]1[H:16])([H:8])([H:9])[H:10]"
C       -1.33673891       1.51481586      -0.25575757
C       -0.14715554       0.62843825      -0.29201446
C       -0.08729461      -0.77765287      -0.19052151
C       -1.11175298      -1.65206457       0.29928100
C        1.31186954      -1.08118040       0.21461061
C        2.02829790       0.12148461       0.01352488
N        1.13466453       1.07829101      -0.32949427
H       -2.17790091       1.05707057      -0.78313339
H       -1.14540673       2.48256872      -0.72475275
H       -1.67407395       1.69529070       0.76974764
H       -1.04611409      -2.70469522       0.04159765
H       -2.11415571      -1.23680738       0.34967307
H        0.15028651      -1.48757479       1.37918075
H        1.76025309      -2.01169042      -0.12141493
H        3.08697051       0.31901757       0.02033829
H        1.36825136       2.05468837      -0.39086502
16
Frame=14 idx=011332 GeodesicLength=1.8047044804855512 rxn_smarts="[C:1]([c:2]1[c:3]([C:4]([H:11])([H:12])[H:13])[c:5]([H:14])[c:6]([H:15])[n:7]1[H:16])([H:8])([H:9])[H:10]>>[C:1]([C:2]1=[C:3]([C+:4]([H:11])[H:12])[C:5]([H:13])([H:14])[C-:6]([H:15])[N:7]1[H:16])([H:8])([H:9])[H:10]"
C       -1.33794013       1.51942270      -0.27113183
C       -0.15171569       0.62710775      -0.32117926
C       -0.09131894      -0.77694685      -0.21821954
C       -1.09555406      -1.64054686       0.32935109
C        1.29941814      -1.08099458       0.22161645
C        2.01580069       0.13414147       0.05989294
N        1.13049354       1.07868387      -0.32654497
H       -2.19954317       1.04644915      -0.74892676
H       -1.15675274       2.46661107      -0.78444401
H       -1.63700090       1.74373469       0.75771034
H       -1.07488743      -2.67968344       0.01238343
H       -2.09504677      -1.22086961       0.40296071
H        0.19616113      -1.61048810       1.36323426
H        1.76070354      -1.99233204      -0.15074548
H        3.07453379       0.33093518       0.07318759
H        1.36264902       2.05477561      -0.39914496
16
Frame=15 idx=011332 GeodesicLength=1.9330511363790974 rxn_smarts="[C:1]([c:2]1[c:3]([C:4]([H:11])([H:12])[H:13])[c:5]([H:14])[c:6]([H:15])[n:7]1[H:16])([H:8])([H:9])[H:10]>>[C:1]([C:2]1=[C:3]([C+:4]([H:11])[H:12])[C:5]([H:13])([H:14])[C-:6]([H:15])[N:7]1[H:16])([H:8])([H:9])[H:10]"
C       -1.33913587       1.52366931      -0.28939187
C       -0.15631437       0.62542617      -0.35372720
C       -0.09602584      -0.77676570      -0.24895656
C       -1.07517838      -1.62703765       0.36331886
C        1.28555977      -1.08134336       0.22723566
C        1.99880563       0.14750782       0.11131261
N        1.12560992       1.07851429      -0.32431813
H       -2.21945063       1.03658879      -0.71516868
H       -1.16968306       2.44843862      -0.84612835
H       -1.59916642       1.79239979       0.73953853
H       -1.11154478      -2.64804846      -0.00981169
H       -2.06862796      -1.19917696       0.47070534
H        0.24781748      -1.75098091       1.32894281
H        1.76318176      -1.96819812      -0.18495820
H        3.05711349       0.34499257       0.13952018
H        1.35703927       2.05401379      -0.40811329
16
Frame=16 idx=011332 GeodesicLength=2.0609944646003084 rxn_smarts="[C:1]([c:2]1[c:3]([C:4]([H:11])([H:12])[H:13])[c:5]([H:14])[c:6]([H:15])[n:7]1[H:16])([H:8])([H:9])[H:10]>>[C:1]([C:2]1=[C:3]([C+:4]([H:11])[H:12])[C:5]([H:13])([H:14])[C-:6]([H:15])[N:7]1[H:16])([H:8])([H:9])[H:10]"
C       -1.34043678       1.52712700      -0.31157265
C       -0.16080604       0.62324927      -0.38987441
C       -0.10170366      -0.77726771      -0.28277101
C       -1.04872095      -1.61118387       0.40285546
C        1.26989107      -1.08257941       0.23219613
C        1.97609678       0.16099005       0.16794861
N        1.11991454       1.07756342      -0.32179258
H       -2.23720224       1.02688527      -0.68327989
H       -1.18404736       2.42769845      -0.91053519
H       -1.56154229       1.84085276       0.71383784
H       -1.15735130      -2.60810386      -0.02147663
H       -2.03102129      -1.17017132       0.55571542
H        0.30450756      -1.90974974       1.26757806
H        1.76790210      -1.93810321      -0.22348384
H        3.03320928       0.36039506       0.21921696
H        1.35131057       2.05239783      -0.41456229
