18
Frame=0 idx=008233 GeodesicLength=0.0 rxn_smarts="[C:1]([C:2]([C:3]([N:4]([C:5](=[O:6])[C:7]([H:16])([H:17])[H:18])[H:15])([H:13])[H:14])([H:11])[H:12])([H:8])([H:9])[H:10]>>[C:1]1([H:8])([H:9])[C:2]([H:11])([H:12])[C:3]([H:13])([H:14])[N:4]([H:15])[C@@:5]1([O:6][H:10])[C:7]([H:16])([H:17])[H:18]"
C       -1.07166980       0.45150898      -1.11850423
C       -1.71484140       0.53836429       0.24695082
C       -0.63127263       0.67322310       1.35850360
N        0.40139283      -0.29869548       1.06090757
C        1.11552831      -0.17475370      -0.04010373
O        1.46562956       1.02507681      -0.50191273
C        1.90515308      -1.33733946      -0.52917662
H       -1.34559079      -0.45382649      -1.66135954
H       -1.33631457       1.30528570      -1.75283927
H        0.52993112       1.14707768      -0.95430286
H       -2.38719372       1.39388057       0.36259327
H       -2.30952857      -0.35125963       0.48596698
H       -0.17844097       1.66354202       1.33863422
H       -1.01105665       0.48273395       2.36290255
H        0.21418221      -1.24679362       1.34760425
H        1.74829494      -1.43106038      -1.60235408
H        1.64327855      -2.27257862      -0.03580563
H        2.96251853      -1.11438575      -0.36770464
18
Frame=1 idx=008233 GeodesicLength=0.13059701286618977 rxn_smarts="[C:1]([C:2]([C:3]([N:4]([C:5](=[O:6])[C:7]([H:16])([H:17])[H:18])[H:15])([H:13])[H:14])([H:11])[H:12])([H:8])([H:9])[H:10]>>[C:1]1([H:8])([H:9])[C:2]([H:11])([H:12])[C:3]([H:13])([H:14])[N:4]([H:15])[C@@:5]1([O:6][H:10])[C:7]([H:16])([H:17])[H:18]"
C       -1.07544458       0.42660400      -1.11193133
C       -1.71276970       0.56127595       0.25204083
C       -0.63587509       0.65725972       1.36864874
N        0.40193217      -0.30336253       1.05840177
C        1.11065221      -0.17074593      -0.04871598
O        1.45959568       1.02818929      -0.51038169
C        1.91922583      -1.32654479      -0.52918711
H       -1.37946458      -0.48150045      -1.63410037
H       -1.33248986       1.26879516      -1.76432836
H        0.51416926       1.13384225      -1.01551792
H       -2.33941596       1.45314616       0.34848443
H       -2.35610536      -0.29176477       0.49747513
H       -0.18337553       1.64796822       1.38566512
H       -1.02706225       0.43469019       2.36260265
H        0.22575469      -1.25397458       1.34325506
H        1.79597314      -1.41132905      -1.60771947
H        1.64364984      -2.26952484      -0.05848335
H        2.97105009      -1.10302400      -0.33620814
18
Frame=2 idx=008233 GeodesicLength=0.2610549574025586 rxn_smarts="[C:1]([C:2]([C:3]([N:4]([C:5](=[O:6])[C:7]([H:16])([H:17])[H:18])[H:15])([H:13])[H:14])([H:11])[H:12])([H:8])([H:9])[H:10]>>[C:1]1([H:8])([H:9])[C:2]([H:11])([H:12])[C:3]([H:13])([H:14])[N:4]([H:15])[C@@:5]1([O:6][H:10])[C:7]([H:16])([H:17])[H:18]"
C       -1.07964826       0.40213881      -1.10483602
C       -1.70957580       0.58500219       0.25672888
C       -0.64112990       0.64036420       1.37889702
N        0.40256647      -0.30798695       1.05627541
C        1.10556150      -0.16656938      -0.05705972
O        1.45205610       1.03140361      -0.51979835
C        1.93336245      -1.31511873      -0.52871974
H       -1.41399787      -0.50768178      -1.60545596
H       -1.33056244       1.23178409      -1.77519494
H        0.49777372       1.11651590      -1.07955398
H       -2.28684929       1.51144572       0.33384840
H       -2.40130719      -0.22747460       0.50729863
H       -0.18911571       1.63004749       1.43512523
H       -1.04505986       0.38450939       2.36024653
H        0.23813005      -1.26106016       1.33943963
H        1.84288428      -1.39150287      -1.61135541
H        1.64609881      -2.26547354      -0.08029327
H        2.97881293      -1.09034338      -0.30559234
18
Frame=3 idx=008233 GeodesicLength=0.3913645599494483 rxn_smarts="[C:1]([C:2]([C:3]([N:4]([C:5](=[O:6])[C:7]([H:16])([H:17])[H:18])[H:15])([H:13])[H:14])([H:11])[H:12])([H:8])([H:9])[H:10]>>[C:1]1([H:8])([H:9])[C:2]([H:11])([H:12])[C:3]([H:13])([H:14])[N:4]([H:15])[C@@:5]1([O:6][H:10])[C:7]([H:16])([H:17])[H:18]"
C       -1.08428190       0.37825350      -1.09723732
C       -1.70516870       0.60946876       0.26101391
C       -0.64712184       0.62252343       1.38918623
N        0.40336213      -0.31242393       1.05459549
C        1.10021934      -0.16219621      -0.06513957
O        1.44297808       1.03467098      -0.53032379
C        1.94748954      -1.30303549      -0.52776881
H       -1.44923652      -0.53208519      -1.57553524
H       -1.33050471       1.19458301      -1.78523459
H        0.48060085       1.09465533      -1.14623172
H       -2.22937873       1.56832142       0.31882560
H       -2.44458958      -0.15836401       0.51533994
H       -0.19599960       1.60960169       1.48690817
H       -1.06517500       0.33217592       2.35548840
H        0.25157758      -1.26784595       1.33644479
H        1.88884968      -1.37160254      -1.61334888
H        1.65053739      -2.26042300      -0.10105578
H        2.98584199      -1.07627773      -0.27592684
18
Frame=4 idx=008233 GeodesicLength=0.5215227563111232 rxn_smarts="[C:1]([C:2]([C:3]([N:4]([C:5](=[O:6])[C:7]([H:16])([H:17])[H:18])[H:15])([H:13])[H:14])([H:11])[H:12])([H:8])([H:9])[H:10]>>[C:1]1([H:8])([H:9])[C:2]([H:11])([H:12])[C:3]([H:13])([H:14])[N:4]([H:15])[C@@:5]1([O:6][H:10])[C:7]([H:16])([H:17])[H:18]"
C       -1.08932489       0.35510718      -1.08917243
C       -1.69947185       0.63454014       0.26489697
C       -0.65393087       0.60375873       1.39943050
N        0.40441300      -0.31647303       1.05344658
C        1.09460120      -0.15759025      -0.07295784
O        1.43241963       1.03793144      -0.54208888
C        1.96149075      -1.29029868      -0.52634707
H       -1.48519117      -0.55437627      -1.54453393
H       -1.33222280       1.15760643      -1.79422862
H        0.46247839       1.06787895      -1.21522811
H       -2.16702613       1.62319790       0.30359228
H       -2.48531699      -0.08459774       0.52152253
H       -0.20443817       1.58651435       1.54081103
H       -1.08748561       0.27774464       2.34794124
H        0.26644632      -1.27404761       1.33464770
H        1.93363164      -1.35167080      -1.61381134
H        1.65678140      -2.25438706      -0.12061145
H        2.99214614      -1.06083833      -0.24730915
18
Frame=5 idx=008233 GeodesicLength=0.6515266118430041 rxn_smarts="[C:1]([C:2]([C:3]([N:4]([C:5](=[O:6])[C:7]([H:16])([H:17])[H:18])[H:15])([H:13])[H:14])([H:11])[H:12])([H:8])([H:9])[H:10]>>[C:1]1([H:8])([H:9])[C:2]([H:11])([H:12])[C:3]([H:13])([H:14])[N:4]([H:15])[C@@:5]1([O:6][H:10])[C:7]([H:16])([H:17])[H:18]"
C       -1.09473446       0.33286220      -1.08069360
C       -1.69244164       0.66003431       0.26837994
C       -0.66162393       0.58412610       1.40952518
N        0.40583966      -0.31988396       1.05292775
C        1.08870371      -0.15270507      -0.08051187
O        1.42055280       1.04112271      -0.55516597
C        1.97521227      -1.27694311      -0.52449324
H       -1.52181922      -0.57421457      -1.51271081
H       -1.33555293       1.12131994      -1.80196892
H        0.44320895       1.03589706      -1.28607398
H       -2.09997528       1.67543998       0.28833697
H       -2.52282907      -0.00653754       0.52580879
H       -0.21490317       1.56074864       1.59655006
H       -1.11199586       0.22132634       2.33718840
H        0.28315378      -1.27930592       1.33449919
H        1.97694206      -1.33176496      -1.61288888
H        1.66454458      -2.24740067      -0.13884044
H        2.99771774      -1.04412149      -0.21986858
18
Frame=6 idx=008233 GeodesicLength=0.7814002276163915 rxn_smarts="[C:1]([C:2]([C:3]([N:4]([C:5](=[O:6])[C:7]([H:16])([H:17])[H:18])[H:15])([H:13])[H:14])([H:11])[H:12])([H:8])([H:9])[H:10]>>[C:1]1([H:8])([H:9])[C:2]([H:11])([H:12])[C:3]([H:13])([H:14])[N:4]([H:15])[C@@:5]1([O:6][H:10])[C:7]([H:16])([H:17])[H:18]"
C       -1.10044095       0.31168896      -1.07187177
C       -1.68406433       0.68571968       0.27148214
C       -0.67025168       0.56371161       1.41934782
N        0.40776986      -0.32235943       1.05314089
C        1.08253057      -0.14748953      -0.08780262
O        1.40764470       1.04418396      -0.56955228
C        1.98847151      -1.26303697      -0.52226256
H       -1.55904615      -0.59122309      -1.48042977
H       -1.34023594       1.08625656      -1.80826263
H        0.42258666       0.99847664      -1.35824771
H       -2.02860638       1.72435913       0.27332261
H       -2.55644853       0.07523048       0.52822918
H       -0.22791197       1.53233490       1.65374578
H       -1.13860830       0.16310606       2.32280525
H        0.30215078      -1.28317381       1.33649046
H        2.01847207      -1.31197119      -1.61075145
H        1.67345768      -2.23950621      -0.15564295
H        3.00253041      -1.02630776      -0.19374039
18
Frame=7 idx=008233 GeodesicLength=0.9111720790049582 rxn_smarts="[C:1]([C:2]([C:3]([N:4]([C:5](=[O:6])[C:7]([H:16])([H:17])[H:18])[H:15])([H:13])[H:14])([H:11])[H:12])([H:8])([H:9])[H:10]>>[C:1]1([H:8])([H:9])[C:2]([H:11])([H:12])[C:3]([H:13])([H:14])[N:4]([H:15])[C@@:5]1([O:6][H:10])[C:7]([H:16])([H:17])[H:18]"
C       -1.10635498       0.29174961      -1.06278748
C       -1.67436515       0.71134684       0.27423428
C       -0.67983781       0.54262365       1.42877346
N        0.41033818      -0.32357126       1.05418795
C        1.07610370      -0.14188083      -0.09482585
O        1.39405243       1.04707860      -0.58515532
C        2.00106912      -1.24867340      -0.51972769
H       -1.59675098      -0.60504780      -1.44810591
H       -1.34593385       1.05295982      -1.81296106
H        0.40040085       0.95544223      -1.43117867
H       -1.95347874       1.76930014       0.25883333
H       -2.58556039       0.15993060       0.52887357
H       -0.24399073       1.50136738       1.71197684
H       -1.16710388       0.10331246       2.30437823
H        0.32388533      -1.28513644       1.34110635
H        2.05789511      -1.29239865      -1.60759150
H        1.68307844      -2.23075894      -0.17095864
H        3.00655334      -1.00764401      -0.16907189
18
Frame=8 idx=008233 GeodesicLength=1.0408861746429365 rxn_smarts="[C:1]([C:2]([C:3]([N:4]([C:5](=[O:6])[C:7]([H:16])([H:17])[H:18])[H:15])([H:13])[H:14])([H:11])[H:12])([H:8])([H:9])[H:10]>>[C:1]1([H:8])([H:9])[C:2]([H:11])([H:12])[C:3]([H:13])([H:14])[N:4]([H:15])[C@@:5]1([O:6][H:10])[C:7]([H:16])([H:17])[H:18]"
C       -1.11237829       0.27319921      -1.05352759
C       -1.66340923       0.73667114       0.27668830
C       -0.69037678       0.52097720       1.43768282
N        0.41367036      -0.32318222       1.05615923
C        1.06945741      -0.13580889      -0.10157811
O        1.38018644       1.04980610      -0.60180717
C        2.01281455      -1.23396315      -0.51696580
H       -1.63479609      -0.61535600      -1.41619600
H       -1.35223277       1.02197312      -1.81597240
H        0.37644265       0.90661808      -1.50431796
H       -1.87530954       1.80970149       0.24519130
H       -2.60966660       0.24663831       0.52790265
H       -0.26363623       1.46797299       1.77079716
H       -1.19712812       0.04220241       2.28152899
H        0.34874567      -1.28463223       1.34876933
H        2.09490697      -1.27318045      -1.60360975
H        1.69293967      -2.22122392      -0.18474528
H        3.00976993      -0.98841319      -0.14599971
18
Frame=9 idx=008233 GeodesicLength=1.170602452944979 rxn_smarts="[C:1]([C:2]([C:3]([N:4]([C:5](=[O:6])[C:7]([H:16])([H:17])[H:18])[H:15])([H:13])[H:14])([H:11])[H:12])([H:8])([H:9])[H:10]>>[C:1]1([H:8])([H:9])[C:2]([H:11])([H:12])[C:3]([H:13])([H:14])[N:4]([H:15])[C@@:5]1([O:6][H:10])[C:7]([H:16])([H:17])[H:18]"
C       -1.11842008       0.25616571      -1.04416427
C       -1.65129396       0.76150106       0.27891182
C       -0.70183344       0.49886732       1.44596501
N        0.41786246      -0.32087960       1.05910706
C        1.06262664      -0.12920206      -0.10806201
O        1.36644075       1.05239873      -0.61927445
C        2.02355620      -1.21900947      -0.51404682
H       -1.67303586      -0.62187546      -1.38511590
H       -1.35866056       0.99377136      -1.81726155
H        0.35046614       0.85175802      -1.57715654
H       -1.79486670       1.84518956       0.23269854
H       -2.62845443       0.33443437       0.52557083
H       -0.28726972       1.43225434       1.82977312
H       -1.22819275      -0.01999884       2.25391640
H        0.37699024      -1.28109364       1.35973062
H        2.12928801      -1.25444210      -1.59899972
H        1.70261035      -2.21096215      -0.19698000
H        3.01218669      -0.96887714      -0.12461215
18
Frame=10 idx=008233 GeodesicLength=1.3003793487549458 rxn_smarts="[C:1]([C:2]([C:3]([N:4]([C:5](=[O:6])[C:7]([H:16])([H:17])[H:18])[H:15])([H:13])[H:14])([H:11])[H:12])([H:8])([H:9])[H:10]>>[C:1]1([H:8])([H:9])[C:2]([H:11])([H:12])[C:3]([H:13])([H:14])[N:4]([H:15])[C@@:5]1([O:6][H:10])[C:7]([H:16])([H:17])[H:18]"
C       -1.12437756       0.24076980      -1.03477676
C       -1.63814175       0.78564911       0.28100231
C       -0.71413903       0.47637361       1.45352480
N        0.42299738      -0.31635537       1.06307954
C        1.05566282      -0.12197487      -0.11427215
O        1.35322701       1.05494493      -0.63728008
C        2.03315707      -1.20391643      -0.51102948
H       -1.71134449      -0.62432885      -1.35533614
H       -1.36463045       0.96881848      -1.81685935
H        0.32223375       0.79053239      -1.64922571
H       -1.71303157       1.87551518       0.22170649
H       -2.64176988       0.42229871       0.52217508
H       -0.31523559       1.39429977       1.88845337
H       -1.25966891      -0.08303475       2.22128224
H        0.40874213      -1.27393717       1.37411487
H        2.16079951      -1.23634000      -1.59394126
H        1.71168941      -2.20002875      -0.20760201
H        3.01383015      -0.94928580      -0.10501578
18
Frame=11 idx=008233 GeodesicLength=1.4302787384262983 rxn_smarts="[C:1]([C:2]([C:3]([N:4]([C:5](=[O:6])[C:7]([H:16])([H:17])[H:18])[H:15])([H:13])[H:14])([H:11])[H:12])([H:8])([H:9])[H:10]>>[C:1]1([H:8])([H:9])[C:2]([H:11])([H:12])[C:3]([H:13])([H:14])[N:4]([H:15])[C@@:5]1([O:6][H:10])[C:7]([H:16])([H:17])[H:18]"
C       -1.13016534       0.22710709      -1.02542588
C       -1.62409059       0.80897721       0.28307332
C       -0.72718845       0.45354816       1.46027525
N        0.42911704      -0.30935075       1.06808157
C        1.04861279      -0.11403636      -0.12020800
O        1.34089697       1.05758123      -0.65551389
C        2.04152982      -1.18875981      -0.50795155
H       -1.74962854      -0.62246175      -1.32728881
H       -1.36946709       0.94749866      -1.81485243
H        0.29142420       0.72245303      -1.72006066
H       -1.63067508       1.90061540       0.21253097
H       -2.64964188       0.50927445       0.51808216
H       -0.34773107       1.35413386       1.94638214
H       -1.29080368      -0.14664603       2.18345852
H        0.44391235      -1.26264079       1.39181162
H        2.18930144      -1.21899740      -1.58858824
H        1.71984665      -2.18846498      -0.21655877
H        3.01475047      -0.92983123      -0.08724732
18
Frame=12 idx=008233 GeodesicLength=1.560347886028562 rxn_smarts="[C:1]([C:2]([C:3]([N:4]([C:5](=[O:6])[C:7]([H:16])([H:17])[H:18])[H:15])([H:13])[H:14])([H:11])[H:12])([H:8])([H:9])[H:10]>>[C:1]1([H:8])([H:9])[C:2]([H:11])([H:12])[C:3]([H:13])([H:14])[N:4]([H:15])[C@@:5]1([O:6][H:10])[C:7]([H:16])([H:17])[H:18]"
C       -1.13569740       0.21524296      -1.01615866
C       -1.60929052       0.83136805       0.28525371
C       -0.74083609       0.43042692       1.46613977
N        0.43622796      -0.29965034       1.07409253
C        1.04153206      -0.10527964      -0.12586095
O        1.32978093       1.06049926      -0.67362178
C        2.04861651      -1.17358293      -0.50484187
H       -1.78782979      -0.61601321      -1.30139454
H       -1.37235226       0.93010510      -1.81139097
H        0.25763359       0.64688388      -1.78913446
H       -1.54867623       1.92057099       0.20545298
H       -2.65226734       0.59442758       0.51368456
H       -0.38479447       1.31173976       2.00307654
H       -1.32073931      -0.21052670       2.14041060
H        0.48218732      -1.24676889       1.41250284
H        2.21469036      -1.20249179      -1.58307921
H        1.72680152      -2.17628801      -0.22381264
H        3.01501316      -0.91066298      -0.07131847
18
Frame=13 idx=008233 GeodesicLength=1.6906325331953418 rxn_smarts="[C:1]([C:2]([C:3]([N:4]([C:5](=[O:6])[C:7]([H:16])([H:17])[H:18])[H:15])([H:13])[H:14])([H:11])[H:12])([H:8])([H:9])[H:10]>>[C:1]1([H:8])([H:9])[C:2]([H:11])([H:12])[C:3]([H:13])([H:14])[N:4]([H:15])[C@@:5]1([O:6][H:10])[C:7]([H:16])([H:17])[H:18]"
C       -1.14091392       0.20515944      -1.00698318
C       -1.59387926       0.85276788       0.28766541
C       -0.75490518       0.40702466       1.47104038
N        0.44426590      -0.28714586       1.08103191
C        1.03446248      -0.09558188      -0.13121742
O        1.32010522       1.06396758      -0.69118687
C        2.05441474      -1.15835534      -0.50171473
H       -1.82593614      -0.60477210      -1.27796300
H       -1.37234226       0.91671008      -1.80669520
H        0.22026376       0.56300512      -1.85578790
H       -1.46775720       1.93563003       0.20062588
H       -2.64997937       0.67708818       0.50942329
H       -0.42624367       1.26702505       2.05803453
H       -1.34857818      -0.27432141       2.09224519
H        0.52296952      -1.22613412       1.43553330
H        2.23700569      -1.18674385      -1.57751340
H        1.73237775      -2.16347613      -0.22941638
H        3.01467013      -0.89184734      -0.05712180
18
Frame=14 idx=008233 GeodesicLength=1.8211525594707982 rxn_smarts="[C:1]([C:2]([C:3]([N:4]([C:5](=[O:6])[C:7]([H:16])([H:17])[H:18])[H:15])([H:13])[H:14])([H:11])[H:12])([H:8])([H:9])[H:10]>>[C:1]1([H:8])([H:9])[C:2]([H:11])([H:12])[C:3]([H:13])([H:14])[N:4]([H:15])[C@@:5]1([O:6][H:10])[C:7]([H:16])([H:17])[H:18]"
C       -1.14571359       0.19677879      -0.99790545
C       -1.57800850       0.87307948       0.29042545
C       -0.76917097       0.38339088       1.47492334
N        0.45312830      -0.27179553       1.08884198
C        1.02748677      -0.08477798      -0.13621884
O        1.31217964       1.06836013      -0.70766540
C        2.05891423      -1.14300838      -0.49863153
H       -1.86395545      -0.58846343      -1.25737027
H       -1.36823692       0.90722168      -1.80108429
H        0.17861973       0.46992262      -1.91913167
H       -1.38871708       1.94609003       0.19814950
H       -2.64323098       0.75648108       0.50565537
H       -0.47169321       1.21997577       2.11067670
H       -1.37342093      -0.33748021       2.03935693
H        0.56543879      -1.20076704       1.46016851
H        2.25622278      -1.17155710      -1.57204895
H        1.73636997      -2.14997650      -0.23353926
H        3.01378743      -0.87347430      -0.04460210
18
Frame=15 idx=008233 GeodesicLength=1.9519187126432849 rxn_smarts="[C:1]([C:2]([C:3]([N:4]([C:5](=[O:6])[C:7]([H:16])([H:17])[H:18])[H:15])([H:13])[H:14])([H:11])[H:12])([H:8])([H:9])[H:10]>>[C:1]1([H:8])([H:9])[C:2]([H:11])([H:12])[C:3]([H:13])([H:14])[N:4]([H:15])[C@@:5]1([O:6][H:10])[C:7]([H:16])([H:17])[H:18]"
C       -1.14997198       0.18988189      -0.98888316
C       -1.56180009       0.89224074       0.29359350
C       -0.78339048       0.35960431       1.47773577
N        0.46262442      -0.25371577       1.09742816
C        1.02069643      -0.07265159      -0.14076044
O        1.30629156       1.07419824      -0.72229743
C        2.06211318      -1.12738497      -0.49570621
H       -1.90184299      -0.56688509      -1.23985754
H       -1.35866050       0.90112782      -1.79496716
H        0.13178049       0.36672553      -1.97794886
H       -1.31218657       1.95234482       0.19791305
H       -2.63253725       0.83208879       0.50265954
H       -0.52051766       1.17062804       2.16039069
H       -1.39449841      -0.39933069       1.98236776
H        0.60855922      -1.17108470       1.48545492
H        2.27236740      -1.15647137      -1.56687553
H        1.73858618      -2.13568206      -0.23659677
H        3.01238706      -0.85563394      -0.03365029
18
Frame=16 idx=008233 GeodesicLength=2.08293767256637 rxn_smarts="[C:1]([C:2]([C:3]([N:4]([C:5](=[O:6])[C:7]([H:16])([H:17])[H:18])[H:15])([H:13])[H:14])([H:11])[H:12])([H:8])([H:9])[H:10]>>[C:1]1([H:8])([H:9])[C:2]([H:11])([H:12])[C:3]([H:13])([H:14])[N:4]([H:15])[C@@:5]1([O:6][H:10])[C:7]([H:16])([H:17])[H:18]"
C       -1.15348973       0.18409298      -0.97984246
C       -1.54533955       0.91018060       0.29714550
C       -0.79730253       0.33582147       1.47944607
N        0.47248958      -0.23319528       1.10671135
C        1.01422574      -0.05891067      -0.14465610
O        1.30283137       1.08220472      -0.73399733
C        2.06397091      -1.11125336      -0.49315356
H       -1.93942158      -0.53992557      -1.22556705
H       -1.34207411       0.89740471      -1.78886076
H        0.07867103       0.25269031      -2.03063558
H       -1.23870624       1.95482783       0.19958485
H       -2.61843138       0.90348915       0.50053609
H       -0.57187274       1.11920693       2.20653150
H       -1.41126269      -0.45903879       1.92218346
H        0.65113242      -1.13791859       1.51036539
H        2.28538631      -1.14074503      -1.56228502
H        1.73874391      -2.12043218      -0.23931261
H        3.01044928      -0.83849924      -0.02419373
