13
Frame=0 idx=004536 GeodesicLength=0.0 rxn_smarts="[C:1]([C@@:2]1([H:10])[C:3]([H:11])([H:12])[N:4]=[C:5]([H:13])[O:6]1)([H:7])([H:8])[H:9]>>[C:1]([C@@:2]([C:3](=[N+:4]=[C-:5][H:13])[H:11])([O:6][H:12])[H:10])([H:7])([H:8])[H:9]"
C        1.69961591       0.27536942       0.08252263
C        0.30099334      -0.01343134      -0.36999696
C       -0.48747230      -1.13529664       0.21837635
N       -1.80325264      -0.86093880      -0.11488095
C       -1.90692849       0.40567967      -0.24392433
O       -0.66202219       1.01250809       0.20331141
H        2.06261356       1.21888151      -0.32491914
H        1.76946655       0.29473769       1.17052052
H        2.34631233      -0.52479470      -0.28198243
H        0.16637414       0.10633519      -1.45735954
H       -0.15790921      -2.16537396       0.19629030
H       -0.55255235       0.34538339       1.11424881
H       -2.77523868       1.04094047      -0.19220665
13
Frame=1 idx=004536 GeodesicLength=0.11613813718864437 rxn_smarts="[C:1]([C@@:2]1([H:10])[C:3]([H:11])([H:12])[N:4]=[C:5]([H:13])[O:6]1)([H:7])([H:8])[H:9]>>[C:1]([C@@:2]([C:3](=[N+:4]=[C-:5][H:13])[H:11])([O:6][H:12])[H:10])([H:7])([H:8])[H:9]"
C        1.70357217       0.27256539       0.08243093
C        0.30383435      -0.00696534      -0.37450013
C       -0.48957736      -1.12583705       0.22034206
N       -1.80409830      -0.85898878      -0.12361933
C       -1.92493865       0.40378352      -0.25700736
O       -0.65152143       1.02136333       0.19634289
H        2.07213964       1.21460671      -0.32347029
H        1.77258767       0.29414031       1.17057283
H        2.34686538      -0.53199010      -0.27847012
H        0.17868132       0.10683510      -1.46262308
H       -0.16051355      -2.15621080       0.20133629
H       -0.54625499       0.34048975       1.12356528
H       -2.80077624       1.02620794      -0.17489997
13
Frame=2 idx=004536 GeodesicLength=0.2322297017652078 rxn_smarts="[C:1]([C@@:2]1([H:10])[C:3]([H:11])([H:12])[N:4]=[C:5]([H:13])[O:6]1)([H:7])([H:8])[H:9]>>[C:1]([C@@:2]([C:3](=[N+:4]=[C-:5][H:13])[H:11])([O:6][H:12])[H:10])([H:7])([H:8])[H:9]"
C        1.70752828       0.26971656       0.08224922
C        0.30658942      -0.00021093      -0.37885130
C       -0.49177280      -1.11609984       0.22229593
N       -1.80504188      -0.85687432      -0.13178613
C       -1.94353870       0.40163607      -0.27019403
O       -0.64074130       1.03059345       0.18981906
H        2.08173659       1.21027103      -0.32199798
H        1.77599208       0.29325328       1.17051952
H        2.34718297      -0.53922974      -0.27535448
H        0.19081097       0.10765181      -1.46762128
H       -0.16319889      -2.14676822       0.20632554
H       -0.53948433       0.33523498       1.13360579
H       -2.82606241       1.01082587      -0.15900986
13
Frame=3 idx=004536 GeodesicLength=0.34828932086344067 rxn_smarts="[C:1]([C@@:2]1([H:10])[C:3]([H:11])([H:12])[N:4]=[C:5]([H:13])[O:6]1)([H:7])([H:8])[H:9]>>[C:1]([C@@:2]([C:3](=[N+:4]=[C-:5][H:13])[H:11])([O:6][H:12])[H:10])([H:7])([H:8])[H:9]"
C        1.71149053       0.26682048       0.08197374
C        0.30926115       0.00684337      -0.38303941
C       -0.49405414      -1.10607240       0.22425053
N       -1.80608754      -0.85459189      -0.13936852
C       -1.96274697       0.39920235      -0.28354497
O       -0.62966320       1.04021433       0.18375046
H        2.09141680       1.20586395      -0.32051186
H        1.77969494       0.29207449       1.17035660
H        2.34726336      -0.54651992      -0.27264168
H        0.20276386       0.10878837      -1.47234589
H       -0.16595897      -2.13703206       0.21127402
H       -0.53218999       0.32957510       1.14439743
H       -2.85118983       0.99483383      -0.14455044
13
Frame=4 idx=004536 GeodesicLength=0.46434451295311885 rxn_smarts="[C:1]([C@@:2]1([H:10])[C:3]([H:11])([H:12])[N:4]=[C:5]([H:13])[O:6]1)([H:7])([H:8])[H:9]>>[C:1]([C@@:2]([C:3](=[N+:4]=[C-:5][H:13])[H:11])([O:6][H:12])[H:10])([H:7])([H:8])[H:9]"
C        1.71546505       0.26387557       0.08159863
C        0.31185088       0.01421223      -0.38705063
C       -0.49641924      -1.09573830       0.22622143
N       -1.80724407      -0.85213165      -0.14634592
C       -1.98258270       0.39643699      -0.29713030
O       -0.61826782       1.05024437       0.17815873
H        2.10119071       1.20137794      -0.31902308
H        1.78371598       0.29059605       1.17007844
H        2.34710365      -0.55386485      -0.27034784
H        0.21453531       0.11025552      -1.47678463
H       -0.16879322      -2.12698469       0.21620296
H       -0.52431689       0.32345743       1.15597689
H       -2.87623764       0.97826340      -0.13155467
13
Frame=5 idx=004536 GeodesicLength=0.5804090869039762 rxn_smarts="[C:1]([C@@:2]1([H:10])[C:3]([H:11])([H:12])[N:4]=[C:5]([H:13])[O:6]1)([H:7])([H:8])[H:9]>>[C:1]([C@@:2]([C:3](=[N+:4]=[C-:5][H:13])[H:11])([O:6][H:12])[H:10])([H:7])([H:8])[H:9]"
C        1.71945537       0.26088027       0.08111796
C        0.31435852       0.02191084      -0.39087072
C       -0.49886883      -1.08508329       0.22822554
N       -1.80852010      -0.84948027      -0.15268694
C       -2.00306760       0.39328365      -0.31102032
O       -0.60653653       1.06070198       0.17306299
H        2.11106614       1.19680642      -0.31754043
H        1.78807190       0.28880912       1.16967885
H        2.34669688      -0.56126778      -0.26848805
H        0.22611923       0.11206650      -1.48092827
H       -0.17169698      -2.11660783       0.22112907
H       -0.51580496       0.31682930       1.16837976
H       -2.90127306       0.96115108      -0.12005946
13
Frame=6 idx=004536 GeodesicLength=0.6964925424823312 rxn_smarts="[C:1]([C@@:2]1([H:10])[C:3]([H:11])([H:12])[N:4]=[C:5]([H:13])[O:6]1)([H:7])([H:8])[H:9]>>[C:1]([C@@:2]([C:3](=[N+:4]=[C-:5][H:13])[H:11])([O:6][H:12])[H:10])([H:7])([H:8])[H:9]"
C        1.72346836       0.25783212       0.08052346
C        0.31678278       0.02995839      -0.39447842
C       -0.50140184      -1.07408321       0.23028649
N       -1.80992401      -0.84662680      -0.15836831
C       -2.02422282       0.38969662      -0.32529101
O       -0.59444566       1.07160969       0.16849745
H        2.12105388       1.19214029      -0.31607760
H        1.79279064       0.28670184       1.16914873
H        2.34603582      -0.56873371      -0.26708716
H        0.23750136       0.11423860      -1.48475618
H       -0.17467323      -2.10587868       0.22607616
H       -0.50658643       0.30962905       1.18164854
H       -2.92637888       0.94351581      -0.11012214
13
Frame=7 idx=004536 GeodesicLength=0.8125842014774066 rxn_smarts="[C:1]([C@@:2]1([H:10])[C:3]([H:11])([H:12])[N:4]=[C:5]([H:13])[O:6]1)([H:7])([H:8])[H:9]>>[C:1]([C@@:2]([C:3](=[N+:4]=[C-:5][H:13])[H:11])([O:6][H:12])[H:10])([H:7])([H:8])[H:9]"
C        1.72750630       0.25472982       0.07980765
C        0.31912090       0.03837414      -0.39785608
C       -0.50402036      -1.06271801       0.23242590
N       -1.81146814      -0.84356001      -0.16335733
C       -2.04606921       0.38561532      -0.34003454
O       -0.58197432       1.08299110       0.16448948
H        2.13116150       1.18737151      -0.31464569
H        1.79789199       0.28426212       1.16847975
H        2.34511052      -0.57626577      -0.26616633
H        0.24866674       0.11679173      -1.48825621
H       -0.17772190      -2.09477230       0.23106860
H       -0.49660282       0.30179968       1.19582280
H       -2.95160120       0.92538065      -0.10177800
13
Frame=8 idx=004536 GeodesicLength=0.9287255808811462 rxn_smarts="[C:1]([C@@:2]1([H:10])[C:3]([H:11])([H:12])[N:4]=[C:5]([H:13])[O:6]1)([H:7])([H:8])[H:9]>>[C:1]([C@@:2]([C:3](=[N+:4]=[C-:5][H:13])[H:11])([O:6][H:12])[H:10])([H:7])([H:8])[H:9]"
C        1.73157382       0.25157311       0.07895994
C        0.32136791       0.04718353      -0.40097272
C       -0.50672838      -1.05095846       0.23467986
N       -1.81316616      -0.84025414      -0.16760114
C       -2.06863538       0.38096230      -0.35533817
O       -0.56909660       1.09487495       0.16108610
H        2.14139685       1.18249349      -0.31326192
H        1.80340990       0.28147419       1.16765764
H        2.34390493      -0.58386478      -0.26576057
H        0.25959066       0.11975338      -1.49139875
H       -0.18084769      -2.08326351       0.23612435
H       -0.48575794       0.29325286       1.21095626
H       -2.97701190       0.90677307      -0.09513087
13
Frame=9 idx=004536 GeodesicLength=1.044870700712409 rxn_smarts="[C:1]([C@@:2]1([H:10])[C:3]([H:11])([H:12])[N:4]=[C:5]([H:13])[O:6]1)([H:7])([H:8])[H:9]>>[C:1]([C@@:2]([C:3](=[N+:4]=[C-:5][H:13])[H:11])([O:6][H:12])[H:10])([H:7])([H:8])[H:9]"
C        1.73566916       0.24836099       0.07797195
C        0.32351767       0.05640559      -0.40381060
C       -0.50953082      -1.03878244       0.23706788
N       -1.81503072      -0.83669733      -0.17105364
C       -2.09194361       0.37567038      -0.37132100
O       -0.55579380       1.10728471       0.15831557
H        2.15176056       1.17750029      -0.31193537
H        1.80936148       0.27832669       1.16667406
H        2.34240488      -0.59153280      -0.26589142
H        0.27025140       0.12314591      -1.49417222
H       -0.18404713      -2.07133013       0.24127236
H       -0.47398428       0.28392679       1.22709045
H       -3.00263480       0.88772136      -0.09020802
13
Frame=10 idx=004536 GeodesicLength=1.1610551530618012 rxn_smarts="[C:1]([C@@:2]1([H:10])[C:3]([H:11])([H:12])[N:4]=[C:5]([H:13])[O:6]1)([H:7])([H:8])[H:9]>>[C:1]([C@@:2]([C:3](=[N+:4]=[C-:5][H:13])[H:11])([O:6][H:12])[H:10])([H:7])([H:8])[H:9]"
C        1.73979778       0.24509245       0.07682779
C        0.32556255       0.06607762      -0.40632654
C       -0.51243790      -1.02614428       0.23964442
N       -1.81708216      -0.83285025      -0.17365606
C       -2.11601906       0.36963159      -0.38808022
O       -0.54202858       1.12025795       0.15625136
H        2.16226416       1.17238252      -0.31069021
H        1.81579316       0.27479216       1.16550566
H        2.34058499      -0.59927130      -0.26661161
H        0.28061065       0.12701541      -1.49653425
H       -0.18733827      -2.05892761       0.24654494
H       -0.46117061       0.27371176       1.24428096
H       -3.02853672       0.86823198      -0.08715623
13
Frame=11 idx=004536 GeodesicLength=1.2772674155904804 rxn_smarts="[C:1]([C@@:2]1([H:10])[C:3]([H:11])([H:12])[N:4]=[C:5]([H:13])[O:6]1)([H:7])([H:8])[H:9]>>[C:1]([C@@:2]([C:3](=[N+:4]=[C-:5][H:13])[H:11])([O:6][H:12])[H:10])([H:7])([H:8])[H:9]"
C        1.74395917       0.24176894       0.07551414
C        0.32749345       0.07623109      -0.40848594
C       -0.51545891      -1.01300584       0.24245587
N       -1.81934281      -0.82867863      -0.17533694
C       -2.14088649       0.36272449      -0.40573142
O       -0.52777191       1.13382948       0.15494770
H        2.17291057       1.16713389      -0.30954704
H        1.82273698       0.27085408       1.16413474
H        2.33842103      -0.60707849      -0.26795914
H        0.29063004       0.13139942      -1.49845451
H       -0.19073036      -2.04602333       0.25196521
H       -0.44722152       0.26250472       1.26257531
H       -3.05473924       0.84834017      -0.08607796
13
Frame=12 idx=004536 GeodesicLength=1.3935132906608976 rxn_smarts="[C:1]([C@@:2]1([H:10])[C:3]([H:11])([H:12])[N:4]=[C:5]([H:13])[O:6]1)([H:7])([H:8])[H:9]>>[C:1]([C@@:2]([C:3](=[N+:4]=[C-:5][H:13])[H:11])([O:6][H:12])[H:10])([H:7])([H:8])[H:9]"
C        1.74815264       0.23839013       0.07401204
C        0.32929720       0.08690698      -0.41023902
C       -0.51860817      -0.99931762       0.24556397
N       -1.82183445      -0.82413719      -0.17600919
C       -2.16656935       0.35481141      -0.42440770
O       -0.51298600       1.14804113       0.15448707
H        2.18370446       1.16174504      -0.30853148
H        1.83023873       0.26648242       1.16253492
H        2.33587709      -0.61495343      -0.26999228
H        0.30025777       0.13635405      -1.49988902
H       -0.19423770      -2.03257123       0.25757077
H       -0.43201131       0.25018087       1.28202944
H       -3.08128093       0.82806744      -0.08712951
13
Frame=13 idx=004536 GeodesicLength=1.509764717232165 rxn_smarts="[C:1]([C@@:2]1([H:10])[C:3]([H:11])([H:12])[N:4]=[C:5]([H:13])[O:6]1)([H:7])([H:8])[H:9]>>[C:1]([C@@:2]([C:3](=[N+:4]=[C-:5][H:13])[H:11])([O:6][H:12])[H:10])([H:7])([H:8])[H:9]"
C        1.75237532       0.23495789       0.07230290
C        0.33095906       0.09814688      -0.41153676
C       -0.52189913      -0.98502796       0.24902916
N       -1.82458360      -0.81917864      -0.17557892
C       -2.19308970       0.34571964      -0.44424173
O       -0.49763284       1.16293053       0.15495094
H        2.19464561       1.15620979      -0.30767067
H        1.83834052       0.26165091       1.16067949
H        2.33291654      -0.62289096      -0.27276771
H        0.30943666       0.14193594      -1.50079378
H       -0.19787481      -2.01852774       0.26340071
H       -0.41542382       0.23660937       1.30268930
H       -3.10816982       0.80746437      -0.09046293
13
Frame=14 idx=004536 GeodesicLength=1.6260085156312523 rxn_smarts="[C:1]([C@@:2]1([H:10])[C:3]([H:11])([H:12])[N:4]=[C:5]([H:13])[O:6]1)([H:7])([H:8])[H:9]>>[C:1]([C@@:2]([C:3](=[N+:4]=[C-:5][H:13])[H:11])([O:6][H:12])[H:10])([H:7])([H:8])[H:9]"
C        1.75662335       0.23147474       0.07036235
C        0.33246111       0.11000206      -0.41231268
C       -0.52535095      -0.97007110       0.25294358
N       -1.82762397      -0.81372810      -0.17392267
C       -2.22045855       0.33524600      -0.46537478
O       -0.48166969       1.17854885       0.15644369
H        2.20573408       1.15051907      -0.30700169
H        1.84709648       0.25632826       1.15853156
H        2.32949063      -0.63088588      -0.27635549
H        0.31809563       0.14821364      -1.50110966
H       -0.20166754      -2.00384251       0.26948483
H       -0.39730949       0.22162667       1.32460495
H       -3.13542109       0.78656830      -0.09629398
13
Frame=15 idx=004536 GeodesicLength=1.742224342591321 rxn_smarts="[C:1]([C@@:2]1([H:10])[C:3]([H:11])([H:12])[N:4]=[C:5]([H:13])[O:6]1)([H:7])([H:8])[H:9]>>[C:1]([C@@:2]([C:3](=[N+:4]=[C-:5][H:13])[H:11])([O:6][H:12])[H:10])([H:7])([H:8])[H:9]"
C        1.76088895       0.22794297       0.06816388
C        0.33378156       0.12252957      -0.41249537
C       -0.52898388      -0.95437735       0.25740199
N       -1.83099347      -0.80769255      -0.17088871
C       -2.24868491       0.32312729      -0.48796130
O       -0.46504781       1.19494863       0.15908212
H        2.21696595       1.14466503      -0.30656201
H        1.85656257       0.25047476       1.15605006
H        2.32554133      -0.63893132      -0.28083577
H        0.32615146       0.15527004      -1.50077232
H       -0.20564677      -1.98845506       0.27585687
H       -0.37751381       0.20506242       1.34782251
H       -3.16302115       0.76543557      -0.10486195
13
Frame=16 idx=004536 GeodesicLength=1.858387498896981 rxn_smarts="[C:1]([C@@:2]1([H:10])[C:3]([H:11])([H:12])[N:4]=[C:5]([H:13])[O:6]1)([H:7])([H:8])[H:9]>>[C:1]([C@@:2]([C:3](=[N+:4]=[C-:5][H:13])[H:11])([O:6][H:12])[H:10])([H:7])([H:8])[H:9]"
C        1.76516279       0.22436258       0.06567527
C        0.33489387       0.13579630      -0.41200204
C       -0.53282037      -0.93786269       0.26251917
N       -1.83473308      -0.80095995      -0.16630815
C       -2.27776644       0.30904937      -0.51215663
O       -0.44771283       1.21219409       0.16300329
H        2.22833610       1.13863591      -0.30639529
H        1.86680375       0.24403948       1.15318702
H        2.32099984      -0.64702232      -0.28630545
H        0.33350238       0.16320625      -1.49970964
H       -0.20985200      -1.97228756       0.28256050
H       -0.35586523       0.18672268       1.37238899
H       -3.19094879       0.74412584      -0.11645704
