14
Frame=0 idx=002698 GeodesicLength=0.0 rxn_smarts="[O:1]([C@@:2]1([H:8])[C:3]([H:9])([H:10])[C:4]([H:11])([H:12])[C@:5]1([O:6][H:14])[H:13])[H:7]>>[C:3](=[C:4]([H:11])[H:12])([H:9])[H:10].[O:1](/[C:2](=[C:5](\[O:6][H:14])[H:13])[H:8])[H:7]"
O       -0.17977358      -1.57326050       1.18021779
C       -0.08937715      -1.16153207      -0.15439657
C       -1.00980406       0.50097578      -0.36963959
C       -0.19074640       1.64902967      -0.21610796
C        1.07050911      -0.38140200      -0.38294209
O        1.95162876      -0.19678161       0.53830493
H       -0.96339187      -1.16999112       1.57668669
H       -0.33975860      -1.92029724      -0.89180404
H       -1.43332112       0.32015394      -1.35616454
H       -1.72655451       0.25091866       0.42584210
H        0.03160102       2.26232394      -1.07844893
H       -0.06753074       2.09923626       0.75912190
H        1.35410765      -0.06220528      -1.37484143
H        1.59241146      -0.61716843       1.34417176
14
Frame=1 idx=002698 GeodesicLength=0.0823280920429968 rxn_smarts="[O:1]([C@@:2]1([H:8])[C:3]([H:9])([H:10])[C:4]([H:11])([H:12])[C@:5]1([O:6][H:14])[H:13])[H:7]>>[C:3](=[C:4]([H:11])[H:12])([H:9])[H:10].[O:1](/[C:2](=[C:5](\[O:6][H:14])[H:13])[H:8])[H:7]"
O       -0.17144479      -1.58324214       1.18246888
C       -0.08422840      -1.15488766      -0.14702118
C       -1.02944207       0.51056680      -0.37510128
C       -0.19327065       1.64842234      -0.23835334
C        1.07567109      -0.37204133      -0.36788926
O        1.96759107      -0.20417922       0.55332890
H       -0.97872073      -1.22400670       1.57221351
H       -0.34023922      -1.90532900      -0.89085694
H       -1.46779987       0.33309814      -1.35566539
H       -1.73548845       0.26910626       0.43117940
H        0.00945417       2.26920947      -1.10052225
H       -0.02916098       2.08997729       0.73474976
H        1.36905743      -0.05356506      -1.35720069
H        1.60802140      -0.62312919       1.35866988
14
Frame=2 idx=002698 GeodesicLength=0.1645320732806209 rxn_smarts="[O:1]([C@@:2]1([H:8])[C:3]([H:9])([H:10])[C:4]([H:11])([H:12])[C@:5]1([O:6][H:14])[H:13])[H:7]>>[C:3](=[C:4]([H:11])[H:12])([H:9])[H:10].[O:1](/[C:2](=[C:5](\[O:6][H:14])[H:13])[H:8])[H:7]"
O       -0.16334515      -1.59341268       1.18479364
C       -0.07912257      -1.14771640      -0.13909499
C       -1.04921832       0.52070293      -0.38020598
C       -0.19576755       1.64779893      -0.26149655
C        1.08092864      -0.36224887      -0.35174264
O        1.98339367      -0.21141522       0.56939350
H       -0.99268916      -1.28030342       1.56635827
H       -0.34066243      -1.88935434      -0.88968984
H       -1.50350408       0.34695587      -1.35410378
H       -1.74401235       0.28855768       0.43719638
H       -0.01219510       2.27546333      -1.12334959
H        0.00638800       2.08276766       0.70736487
H        1.38438788      -0.04487469      -1.33841447
H        1.62541854      -0.63292076       1.37299118
14
Frame=3 idx=002698 GeodesicLength=0.24659017463935737 rxn_smarts="[O:1]([C@@:2]1([H:8])[C:3]([H:9])([H:10])[C:4]([H:11])([H:12])[C@:5]1([O:6][H:14])[H:13])[H:7]>>[C:3](=[C:4]([H:11])[H:12])([H:9])[H:10].[O:1](/[C:2](=[C:5](\[O:6][H:14])[H:13])[H:8])[H:7]"
O       -0.15547154      -1.60380540       1.18717815
C       -0.07407900      -1.14004321      -0.13059475
C       -1.06914471       0.53137990      -0.38496590
C       -0.19820668       1.64704012      -0.28558742
C        1.08625647      -0.35205986      -0.33450328
O        1.99907222      -0.21856810       0.58643766
H       -1.00511841      -1.33898487       1.55894921
H       -0.34105446      -1.87237200      -0.88828002
H       -1.54044681       0.36180188      -1.35143346
H       -1.75212554       0.30932341       0.44384512
H       -0.03331279       2.28099018      -1.14700844
H        0.03938959       2.07739036       0.67725240
H        1.40005057      -0.03620924      -1.31849618
H        1.64419110      -0.64588317       1.38720691
14
Frame=4 idx=002698 GeodesicLength=0.328490335296189 rxn_smarts="[O:1]([C@@:2]1([H:8])[C:3]([H:9])([H:10])[C:4]([H:11])([H:12])[C@:5]1([O:6][H:14])[H:13])[H:7]>>[C:3](=[C:4]([H:11])[H:12])([H:9])[H:10].[O:1](/[C:2](=[C:5](\[O:6][H:14])[H:13])[H:8])[H:7]"
O       -0.14782034      -1.61445978       1.18960727
C       -0.06912222      -1.13189303      -0.12149674
C       -1.08923872       0.54260080      -0.38938605
C       -0.20056361       1.64602234      -0.31066802
C        1.09162918      -0.34150929      -0.31616825
O        2.01464589      -0.22572536       0.60442384
H       -1.01579769      -1.40015421       1.54980522
H       -0.34144635      -1.85437593      -0.88660963
H       -1.57864627       0.37773461      -1.34759929
H       -1.75982832       0.33146950       0.45109072
H       -0.05387039       2.28569027      -1.17156949
H        0.07009881       2.07362518       0.64463568
H        1.41600339      -0.02763667      -1.29745301
H        1.66395663      -0.66138844       1.40138774
14
Frame=5 idx=002698 GeodesicLength=0.4101556105929769 rxn_smarts="[O:1]([C@@:2]1([H:8])[C:3]([H:9])([H:10])[C:4]([H:11])([H:12])[C@:5]1([O:6][H:14])[H:13])[H:7]>>[C:3](=[C:4]([H:11])[H:12])([H:9])[H:10].[O:1](/[C:2](=[C:5](\[O:6][H:14])[H:13])[H:8])[H:7]"
O       -0.14039154      -1.62542516       1.19204694
C       -0.06430782      -1.12327984      -0.11176966
C       -1.10953278       0.55435580      -0.39354055
C       -0.20285940       1.64460881      -0.33673618
C        1.09698463      -0.33061060      -0.29672662
O        2.03009184      -0.23294514       0.62330158
H       -1.02435330      -1.46361351       1.53894561
H       -0.34188874      -1.83536421      -0.88463296
H       -1.61802149       0.39487043      -1.34265233
H       -1.76719466       0.35500564       0.45875002
H       -0.07378856       2.28947834      -1.19700798
H        0.09860076       2.07120516       0.60976775
H        1.43216558      -0.01919476      -1.27527445
H        1.68449550      -0.67909094       1.41552883
14
Frame=6 idx=002698 GeodesicLength=0.49161856091642986 rxn_smarts="[O:1]([C@@:2]1([H:8])[C:3]([H:9])([H:10])[C:4]([H:11])([H:12])[C@:5]1([O:6][H:14])[H:13])[H:7]>>[C:3](=[C:4]([H:11])[H:12])([H:9])[H:10].[O:1](/[C:2](=[C:5](\[O:6][H:14])[H:13])[H:8])[H:7]"
O       -0.13317539      -1.63674352       1.19449369
C       -0.05965261      -1.11422199      -0.10137451
C       -1.13004401       0.56667471      -0.39738307
C       -0.20507037       1.64267841      -0.36385709
C        1.10230244      -0.31938794      -0.27615142
O        2.04540618      -0.24029967       0.64308639
H       -1.03060799      -1.52963529       1.52604120
H       -0.34240127      -1.81530577      -0.88233165
H       -1.65863781       0.41335010      -1.33645720
H       -1.77417450       0.38006877       0.46688933
H       -0.09308175       2.29222166      -1.22345984
H        0.12518489       2.06995583       0.57271499
H        1.44850412      -0.01094251      -1.25194563
H        1.70544807      -0.69841278       1.42973482
14
Frame=7 idx=002698 GeodesicLength=0.572836262578634 rxn_smarts="[O:1]([C@@:2]1([H:8])[C:3]([H:9])([H:10])[C:4]([H:11])([H:12])[C@:5]1([O:6][H:14])[H:13])[H:7]>>[C:3](=[C:4]([H:11])[H:12])([H:9])[H:10].[O:1](/[C:2](=[C:5](\[O:6][H:14])[H:13])[H:8])[H:7]"
O       -0.12617415      -1.64847044       1.19691743
C       -0.05520168      -1.10472752      -0.09026564
C       -1.15079689       0.57957896      -0.40091422
C       -0.20720898       1.64009254      -0.39206624
C        1.10752022      -0.30784400      -0.25440364
O        2.06053494      -0.24783165       0.66378038
H       -1.03421369      -1.59825670       1.51089387
H       -0.34302226      -1.79416204      -0.87966183
H       -1.70047580       0.43333548      -1.32894396
H       -1.78075453       0.40675275       0.47546479
H       -0.11171803       2.29377884      -1.25099562
H        0.15001036       2.06966168       0.53355190
H        1.46494232      -0.00290923      -1.22742585
H        1.72655817      -0.71899865       1.44406862
14
Frame=8 idx=002698 GeodesicLength=0.6538206352215419 rxn_smarts="[O:1]([C@@:2]1([H:8])[C:3]([H:9])([H:10])[C:4]([H:11])([H:12])[C@:5]1([O:6][H:14])[H:13])[H:7]>>[C:3](=[C:4]([H:11])[H:12])([H:9])[H:10].[O:1](/[C:2](=[C:5](\[O:6][H:14])[H:13])[H:8])[H:7]"
O       -0.11941352      -1.66063863       1.19930816
C       -0.05099286      -1.09479063      -0.07837309
C       -1.17183141       0.59310857      -0.40411325
C       -0.20931040       1.63672110      -0.42143330
C        1.11257655      -0.29595200      -0.23139722
O        2.07539485      -0.25550874       0.68545991
H       -1.03484530      -1.66957281       1.49320490
H       -0.34375696      -1.77188138      -0.87656224
H       -1.74355458       0.45500384      -1.32000130
H       -1.78690755       0.43520461       0.48447890
H       -0.12971274       2.29398196      -1.27975797
H        0.17323299       2.07016506       0.49224995
H        1.48142040       0.00489251      -1.20162455
H        1.74770054      -0.74073345       1.45856109
14
Frame=9 idx=002698 GeodesicLength=0.7345491325928827 rxn_smarts="[O:1]([C@@:2]1([H:8])[C:3]([H:9])([H:10])[C:4]([H:11])([H:12])[C@:5]1([O:6][H:14])[H:13])[H:7]>>[C:3](=[C:4]([H:11])[H:12])([H:9])[H:10].[O:1](/[C:2](=[C:5](\[O:6][H:14])[H:13])[H:8])[H:7]"
O       -0.11284820      -1.67333711       1.20161398
C       -0.04713243      -1.08445206      -0.06568248
C       -1.19320277       0.60725016      -0.40711033
C       -0.21142127       1.63236377      -0.45181970
C        1.11739256      -0.28376298      -0.20719522
O        2.09002283      -0.26346775       0.70796228
H       -1.03196477      -1.74314457       1.47317369
H       -0.34476233      -1.74849051      -0.87300251
H       -1.78766412       0.47858092      -1.30983227
H       -1.79280128       0.46538628       0.49363165
H       -0.14692115       2.29274142      -1.30954570
H        0.19486542       2.07101960       0.44915471
H        1.49778916       0.01242115      -1.17464252
H        1.76864836      -0.76310830       1.47329441
14
Frame=10 idx=002698 GeodesicLength=0.8150423130096877 rxn_smarts="[O:1]([C@@:2]1([H:8])[C:3]([H:9])([H:10])[C:4]([H:11])([H:12])[C@:5]1([O:6][H:14])[H:13])[H:7]>>[C:3](=[C:4]([H:11])[H:12])([H:9])[H:10].[O:1](/[C:2](=[C:5](\[O:6][H:14])[H:13])[H:8])[H:7]"
O       -0.10653189      -1.68655909       1.20385907
C       -0.04364424      -1.07370387      -0.05208083
C       -1.21494428       0.62206863      -0.40982515
C       -0.21357900       1.62687958      -0.48332318
C        1.12189409      -0.27123675      -0.18167261
O        2.10428499      -0.27162170       0.73141092
H       -1.02523153      -1.81923101       1.45023140
H       -0.34601736      -1.72393023      -0.86886164
H       -1.83285865       0.50430057      -1.29822511
H       -1.79833600       0.49752037       0.50302397
H       -0.16340047       2.28982429      -1.34058776
H        0.21510637       2.07211385       0.40408505
H        1.51396704       0.01966993      -1.14634250
H        1.78929093      -0.78609457       1.48830837
14
Frame=11 idx=002698 GeodesicLength=0.8952518287815044 rxn_smarts="[O:1]([C@@:2]1([H:8])[C:3]([H:9])([H:10])[C:4]([H:11])([H:12])[C@:5]1([O:6][H:14])[H:13])[H:7]>>[C:3](=[C:4]([H:11])[H:12])([H:9])[H:10].[O:1](/[C:2](=[C:5](\[O:6][H:14])[H:13])[H:8])[H:7]"
O       -0.10047791      -1.70033617       1.20601533
C       -0.04060629      -1.06256380      -0.03749309
C       -1.23709322       0.63759580      -0.41228451
C       -0.21584619       1.62007155      -0.51589164
C        1.12596718      -0.25838072      -0.15479077
O        2.11808003      -0.27998320       0.75577998
H       -1.01407510      -1.89764132       1.42415737
H       -0.34760111      -1.69818539      -0.86403100
H       -1.87899742       0.53243690      -1.28518452
H       -1.80352802       0.53170702       0.51252683
H       -0.17910337       2.28502262      -1.37286850
H        0.23402427       2.07313353       0.35711195
H        1.52978831       0.02661341      -1.11668689
H        1.80946885      -0.80949021       1.50363948
14
Frame=12 idx=002698 GeodesicLength=0.9752662967326354 rxn_smarts="[O:1]([C@@:2]1([H:8])[C:3]([H:9])([H:10])[C:4]([H:11])([H:12])[C@:5]1([O:6][H:14])[H:13])[H:7]>>[C:3](=[C:4]([H:11])[H:12])([H:9])[H:10].[O:1](/[C:2](=[C:5](\[O:6][H:14])[H:13])[H:8])[H:7]"
O       -0.09476252      -1.71469414       1.20808493
C       -0.03809386      -1.05103870      -0.02181334
C       -1.25971401       0.65391359      -0.41444447
C       -0.21830353       1.61176271      -0.54956715
C        1.12950660      -0.24516322      -0.12643008
O        2.13125532      -0.28845275       0.78121012
H       -0.99790183      -1.97846155       1.39449531
H       -0.34956363      -1.67120781      -0.85839143
H       -1.92606299       0.56332215      -1.27057483
H       -1.80831858       0.56816336       0.52214824
H       -0.19404377       2.27804171      -1.40657583
H        0.25174998       2.07389561       0.30808692
H        1.54514791       0.03325608      -1.08554309
H        1.82910492      -0.83333705       1.51931468
14
Frame=13 idx=002698 GeodesicLength=1.055021360232748 rxn_smarts="[O:1]([C@@:2]1([H:8])[C:3]([H:9])([H:10])[C:4]([H:11])([H:12])[C@:5]1([O:6][H:14])[H:13])[H:7]>>[C:3](=[C:4]([H:11])[H:12])([H:9])[H:10].[O:1](/[C:2](=[C:5](\[O:6][H:14])[H:13])[H:8])[H:7]"
O       -0.08922453      -1.72960957       1.21014285
C       -0.03630536      -1.03921689      -0.00501002
C       -1.28287490       0.67089368      -0.41677453
C       -0.22103031       1.60170318      -0.58376098
C        1.13239074      -0.23173887      -0.09692533
O        2.14407003      -0.29736757       0.80700688
H       -0.97604134      -2.06024543       1.36224030
H       -0.35229856      -1.64322475      -0.85175794
H       -1.97331158       0.59723741      -1.25539608
H       -1.81332582       0.60643517       0.53100632
H       -0.20787718       2.26912583      -1.44079717
H        0.26801778       2.07343199       0.25815896
H        1.55961848       0.03953696      -1.05342416
H        1.84819255      -0.85696113       1.53529090
14
Frame=14 idx=002698 GeodesicLength=1.1344697134186006 rxn_smarts="[O:1]([C@@:2]1([H:8])[C:3]([H:9])([H:10])[C:4]([H:11])([H:12])[C@:5]1([O:6][H:14])[H:13])[H:7]>>[C:3](=[C:4]([H:11])[H:12])([H:9])[H:10].[O:1](/[C:2](=[C:5](\[O:6][H:14])[H:13])[H:8])[H:7]"
O       -0.08401163      -1.74514503       1.21206879
C       -0.03526672      -1.02716105       0.01301698
C       -1.30657004       0.68867612      -0.41898204
C       -0.22408269       1.58970335      -0.61861903
C        1.13448763      -0.21814435      -0.06611879
O        2.15615691      -0.30657044       0.83340736
H       -0.94772000      -2.14355471       1.32617126
H       -0.35577989      -1.61420935      -0.84398701
H       -2.02088754       0.63463456      -1.23901594
H       -1.81811931       0.64699226       0.53948838
H       -0.22072138       2.25771808      -1.47597095
H        0.28319397       2.07177870       0.20675188
H        1.57310081       0.04533597      -1.02006601
H        1.86621988      -0.88005411       1.55185511
14
Frame=15 idx=002698 GeodesicLength=1.2137121727656464 rxn_smarts="[O:1]([C@@:2]1([H:8])[C:3]([H:9])([H:10])[C:4]([H:11])([H:12])[C@:5]1([O:6][H:14])[H:13])[H:7]>>[C:3](=[C:4]([H:11])[H:12])([H:9])[H:10].[O:1](/[C:2](=[C:5](\[O:6][H:14])[H:13])[H:8])[H:7]"
O       -0.07904184      -1.76141206       1.21386125
C       -0.03515123      -1.01498336       0.03230081
C       -1.33087603       0.70721929      -0.42133614
C       -0.22754489       1.57558677      -0.65372898
C        1.13569796      -0.20452683      -0.03425589
O        2.16765951      -0.31630545       0.85993046
H       -0.91220969      -2.22738855       1.28675459
H       -0.36036803      -1.58433192      -0.83492703
H       -2.06828461       0.67587949      -1.22205372
H       -1.82305052       0.68956620       0.54709404
H       -0.23237124       2.24391532      -1.51156386
H        0.29719024       2.06827535       0.15459602
H        1.58527473       0.05058033      -0.98585276
H        1.88307563      -0.90207457       1.56918122
14
Frame=16 idx=002698 GeodesicLength=1.2927397286713196 rxn_smarts="[O:1]([C@@:2]1([H:8])[C:3]([H:9])([H:10])[C:4]([H:11])([H:12])[C@:5]1([O:6][H:14])[H:13])[H:7]>>[C:3](=[C:4]([H:11])[H:12])([H:9])[H:10].[O:1](/[C:2](=[C:5](\[O:6][H:14])[H:13])[H:8])[H:7]"
O       -0.07431650      -1.77855900       1.21536346
C       -0.03610423      -1.00281686       0.05283915
C       -1.35580435       0.72656331      -0.42383215
C       -0.23147991       1.55916446      -0.68883082
C        1.13590134      -0.19108203      -0.00154131
O        2.17850511      -0.32678943       0.88623096
H       -0.86858370      -2.31132766       1.24372674
H       -0.36637326      -1.55370598      -0.82447591
H       -2.11517148       0.72142294      -1.20457635
H       -1.82806696       0.73415777       0.55375201
H       -0.24272777       2.22751145      -1.54736629
H        0.31015134       2.06249592       0.10195639
H        1.59587217       0.05507937      -0.95104316
H        1.89819819      -0.92211427       1.58779730
