15
Frame=0 idx=005965 GeodesicLength=0.0 rxn_smarts="[C:1]([C:2]([C:3](=[O:4])[N:5]([C:6]([H:13])([H:14])[H:15])[H:12])([H:10])[H:11])([H:7])([H:8])[H:9]>>[C:1](=[C:2]([H:10])[H:11])([H:8])[H:9].[C:3]([O:4][H:7])[N:5]([C:6]([H:13])([H:14])[H:15])[H:12]"
C        2.47391811      -0.12160765       0.52285303
C        1.85242571       0.84169776      -0.23948456
C       -0.21395827       0.14882656      -0.13965073
O       -0.03038101      -0.88224971       0.58778428
N       -1.46227574       0.37042937      -0.50778229
C       -2.60248995      -0.46187728      -0.15017189
H        1.03229291      -0.83897240       0.74845819
H        3.00636593      -0.93327127       0.04027989
H        2.73544821       0.08995940       1.55343015
H        1.63013908       1.82037114       0.16648874
H        1.89640136       0.81389453      -1.32093138
H       -1.62604374       1.17518414      -1.08396515
H       -3.50979603      -0.01795200      -0.55631682
H       -2.48660956      -1.46818575      -0.55461145
H       -2.69543700      -0.53624688       0.93362005
15
Frame=1 idx=005965 GeodesicLength=0.08119273155292228 rxn_smarts="[C:1]([C:2]([C:3](=[O:4])[N:5]([C:6]([H:13])([H:14])[H:15])[H:12])([H:10])[H:11])([H:7])([H:8])[H:9]>>[C:1](=[C:2]([H:10])[H:11])([H:8])[H:9].[C:3]([O:4][H:7])[N:5]([C:6]([H:13])([H:14])[H:15])[H:12]"
C        2.47968907      -0.13442205       0.50356758
C        1.84206431       0.85564541      -0.21501146
C       -0.21756974       0.15156906      -0.12244843
O       -0.03468501      -0.88327453       0.59965308
N       -1.45942879       0.35523328      -0.52430386
C       -2.60775678      -0.45608508      -0.14907031
H        1.05164491      -0.86284614       0.73587682
H        3.01160054      -0.91995379      -0.02118808
H        2.76503520       0.04805247       1.53350450
H        1.63970213       1.82213617       0.22955142
H        1.87299607       0.86580244      -1.29748124
H       -1.61457635       1.15396277      -1.11131286
H       -3.49667042      -0.07258720      -0.64748341
H       -2.47252364      -1.49714735      -0.44404914
H       -2.75952152      -0.42608546       0.93019539
15
Frame=2 idx=005965 GeodesicLength=0.16233735275729688 rxn_smarts="[C:1]([C:2]([C:3](=[O:4])[N:5]([C:6]([H:13])([H:14])[H:15])[H:12])([H:10])[H:11])([H:7])([H:8])[H:9]>>[C:1](=[C:2]([H:10])[H:11])([H:8])[H:9].[C:3]([O:4][H:7])[N:5]([C:6]([H:13])([H:14])[H:15])[H:12]"
C        2.48501423      -0.14646908       0.48353476
C        1.83160732       0.86829400      -0.19050436
C       -0.22196928       0.15552812      -0.10154217
O       -0.03847222      -0.88557115       0.61126659
N       -1.45620426       0.34085338      -0.53731736
C       -2.61296981      -0.45019582      -0.14866120
H        1.07110106      -0.88666405       0.72255517
H        3.01577287      -0.90422908      -0.08183807
H        2.79399923       0.00774165       1.51139218
H        1.65149544       1.82203218       0.29044519
H        1.84778271       0.91475612      -1.27261227
H       -1.60210635       1.13285439      -1.13587932
H       -3.47696172      -0.13643648      -0.73277914
H       -2.46207196      -1.51449610      -0.33045727
H       -2.82601726      -0.31799809       0.91239726
15
Frame=3 idx=005965 GeodesicLength=0.24304510285439462 rxn_smarts="[C:1]([C:2]([C:3](=[O:4])[N:5]([C:6]([H:13])([H:14])[H:15])[H:12])([H:10])[H:11])([H:7])([H:8])[H:9]>>[C:1](=[C:2]([H:10])[H:11])([H:8])[H:9].[C:3]([O:4][H:7])[N:5]([C:6]([H:13])([H:14])[H:15])[H:12]"
C        2.48994989      -0.15648984       0.46474457
C        1.82069306       0.88048714      -0.16431461
C       -0.22565696       0.15492815      -0.08562506
O       -0.04042497      -0.89480013       0.61397643
N       -1.45240733       0.32480997      -0.55080203
C       -2.61881704      -0.44206969      -0.14602410
H        1.09184731      -0.91330766       0.70368316
H        3.02301014      -0.88232286      -0.13921886
H        2.81835187      -0.03098193       1.49061513
H        1.66018804       1.81932454       0.35230794
H        1.82478353       0.96419879      -1.24456867
H       -1.58824537       1.10813598      -1.16315618
H       -3.45318240      -0.20577531      -0.80528670
H       -2.46024872      -1.51852911      -0.21001479
H       -2.88984104      -0.20760804       0.88368376
15
Frame=4 idx=005965 GeodesicLength=0.32413973257563405 rxn_smarts="[C:1]([C:2]([C:3](=[O:4])[N:5]([C:6]([H:13])([H:14])[H:15])[H:12])([H:10])[H:11])([H:7])([H:8])[H:9]>>[C:1](=[C:2]([H:10])[H:11])([H:8])[H:9].[C:3]([O:4][H:7])[N:5]([C:6]([H:13])([H:14])[H:15])[H:12]"
C        2.49439050      -0.16672405       0.44337654
C        1.80950026       0.89028656      -0.14021790
C       -0.23191963       0.16086320      -0.05507072
O       -0.04315903      -0.90241122       0.62278295
N       -1.44856126       0.31426005      -0.55416253
C       -2.62409934      -0.43559622      -0.14685361
H        1.11202019      -0.93733896       0.68846327
H        3.02582949      -0.86151659      -0.19757158
H        2.84548805      -0.06737291       1.46472691
H        1.67655008       1.81625632       0.40723772
H        1.79484927       1.00601599      -1.21770405
H       -1.57215023       1.08767437      -1.18168045
H       -3.41938512      -0.28506186      -0.87624966
H       -2.45785480      -1.51123910      -0.09389976
H       -2.96149844      -0.10809557       0.83682287
15
Frame=5 idx=005965 GeodesicLength=0.40394998603704163 rxn_smarts="[C:1]([C:2]([C:3](=[O:4])[N:5]([C:6]([H:13])([H:14])[H:15])[H:12])([H:10])[H:11])([H:7])([H:8])[H:9]>>[C:1](=[C:2]([H:10])[H:11])([H:8])[H:9].[C:3]([O:4][H:7])[N:5]([C:6]([H:13])([H:14])[H:15])[H:12]"
C        2.49899450      -0.17342471       0.42621270
C        1.79753181       0.90035608      -0.11222605
C       -0.23521978       0.15430686      -0.04329278
O       -0.04267993      -0.92342722       0.61052805
N       -1.44489792       0.29875971      -0.56433263
C       -2.63093467      -0.42419875      -0.14153611
H        1.13532190      -0.96741809       0.66087805
H        3.03774872      -0.82960950      -0.24859320
H        2.86322407      -0.10236519       1.44546208
H        1.68209764       1.80908892       0.46780750
H        1.77317738       1.05277036      -1.18526031
H       -1.55632124       1.05914637      -1.20984606
H       -3.38774224      -0.36635682      -0.92360722
H       -2.46805702      -1.48700549       0.03399890
H       -3.02224323      -0.00062250       0.78380707
15
Frame=6 idx=005965 GeodesicLength=0.4839915935899424 rxn_smarts="[C:1]([C:2]([C:3](=[O:4])[N:5]([C:6]([H:13])([H:14])[H:15])[H:12])([H:10])[H:11])([H:7])([H:8])[H:9]>>[C:1](=[C:2]([H:10])[H:11])([H:8])[H:9].[C:3]([O:4][H:7])[N:5]([C:6]([H:13])([H:14])[H:15])[H:12]"
C        2.50295497      -0.18050415       0.40720342
C        1.78535911       0.90738757      -0.08737648
C       -0.24081536       0.15316049      -0.01801427
O       -0.04354703      -0.94314575       0.60287405
N       -1.44190243       0.29137298      -0.56276101
C       -2.63708187      -0.41451711      -0.13962619
H        1.15792108      -0.99503650       0.63633925
H        3.04596472      -0.79958872      -0.29869290
H        2.88247915      -0.13435171       1.42244230
H        1.69497232       1.80200746       0.51908039
H        1.74540440       1.09006704      -1.15550424
H       -1.53897910       1.03833757      -1.22601655
H       -3.34513115      -0.45538321      -0.96737275
H       -2.47703416      -1.45103776       0.15426648
H       -3.09056466       0.09123179       0.71315852
15
Frame=7 idx=005965 GeodesicLength=0.5637024729179673 rxn_smarts="[C:1]([C:2]([C:3](=[O:4])[N:5]([C:6]([H:13])([H:14])[H:15])[H:12])([H:10])[H:11])([H:7])([H:8])[H:9]>>[C:1](=[C:2]([H:10])[H:11])([H:8])[H:9].[C:3]([O:4][H:7])[N:5]([C:6]([H:13])([H:14])[H:15])[H:12]"
C        2.50650172      -0.18703888       0.38861457
C        1.77314162       0.91253826      -0.06341258
C       -0.24659385       0.15105029       0.00809540
O       -0.04488224      -0.96514090       0.59122491
N       -1.43996951       0.28867179      -0.55610035
C       -2.64333135      -0.40465486      -0.13766250
H        1.18069788      -1.02281878       0.60923546
H        3.05477599      -0.76780088      -0.34539589
H        2.89936668      -0.16444745       1.39972639
H        1.70882769       1.79380005       0.56615699
H        1.71754325       1.12309451      -1.12601475
H       -1.52177227       1.02113679      -1.23730024
H       -3.29581665      -0.54957610      -0.99899364
H       -2.48894868      -1.40169444       0.27222578
H       -3.15954028       0.17288059       0.62960043
15
Frame=8 idx=005965 GeodesicLength=0.6420748115991383 rxn_smarts="[C:1]([C:2]([C:3](=[O:4])[N:5]([C:6]([H:13])([H:14])[H:15])[H:12])([H:10])[H:11])([H:7])([H:8])[H:9]>>[C:1](=[C:2]([H:10])[H:11])([H:8])[H:9].[C:3]([O:4][H:7])[N:5]([C:6]([H:13])([H:14])[H:15])[H:12]"
C        2.51014746      -0.19228100       0.37330743
C        1.76134580       0.91692991      -0.03704400
C       -0.25012278       0.14195881       0.01782054
O       -0.04589123      -0.99185792       0.56566957
N       -1.44023479       0.28548000      -0.55435307
C       -2.65019521      -0.39248799      -0.13156198
H        1.20458525      -1.05268013       0.57345886
H        3.06876579      -0.73020403      -0.38530254
H        2.91012239      -0.19486524       1.38203231
H        1.71616387       1.78186601       0.61701234
H        1.69745808       1.15873006      -1.09283993
H       -1.50929881       1.00067657      -1.25486426
H       -3.24945560      -0.64671473      -1.00640309
H       -2.50365324      -1.33518454       0.39325227
H       -3.21973700       0.25063423       0.53981556
15
Frame=9 idx=005965 GeodesicLength=0.7203883454545561 rxn_smarts="[C:1]([C:2]([C:3](=[O:4])[N:5]([C:6]([H:13])([H:14])[H:15])[H:12])([H:10])[H:11])([H:7])([H:8])[H:9]>>[C:1](=[C:2]([H:10])[H:11])([H:8])[H:9].[C:3]([O:4][H:7])[N:5]([C:6]([H:13])([H:14])[H:15])[H:12]"
C        2.51279372      -0.19882145       0.35688919
C        1.75036708       0.91915040      -0.01268753
C       -0.25467080       0.13661130       0.03253656
O       -0.04986405      -1.01340526       0.54598351
N       -1.44185058       0.28955032      -0.54592720
C       -2.65629992      -0.38235723      -0.12778167
H        1.22630614      -1.07983618       0.53984910
H        3.07854830      -0.69583785      -0.42417584
H        2.92173824      -0.22467162       1.36184738
H        1.72864585       1.76947689       0.66205224
H        1.67613565       1.18887747      -1.06136322
H       -1.49814444       0.98755978      -1.26450924
H       -3.19434881      -0.74608242      -1.00394658
H       -2.51729332      -1.25860302       0.50328940
H       -3.28206306       0.30838887       0.43794391
15
Frame=10 idx=005965 GeodesicLength=0.7985610951714448 rxn_smarts="[C:1]([C:2]([C:3](=[O:4])[N:5]([C:6]([H:13])([H:14])[H:15])[H:12])([H:10])[H:11])([H:7])([H:8])[H:9]>>[C:1](=[C:2]([H:10])[H:11])([H:8])[H:9].[C:3]([O:4][H:7])[N:5]([C:6]([H:13])([H:14])[H:15])[H:12]"
C        2.51450701      -0.20626151       0.34022299
C        1.74034119       0.91980510       0.01042673
C       -0.25954789       0.13323172       0.04722974
O       -0.05661852      -1.03012874       0.53111044
N       -1.44481863       0.29831261      -0.53454490
C       -2.66181518      -0.37375352      -0.12520699
H        1.24596322      -1.10491489       0.50713846
H        3.08552030      -0.66364956      -0.46113860
H        2.93306974      -0.25404811       1.34057762
H        1.74390074       1.75624326       0.70327762
H        1.65600770       1.21570516      -1.03075990
H       -1.48930658       0.97932214      -1.26990701
H       -3.13431929      -0.84328166      -0.98890945
H       -2.53103924      -1.17387130       0.60142523
H       -3.34184456       0.34728930       0.32905803
15
Frame=11 idx=005965 GeodesicLength=0.8766734074344285 rxn_smarts="[C:1]([C:2]([C:3](=[O:4])[N:5]([C:6]([H:13])([H:14])[H:15])[H:12])([H:10])[H:11])([H:7])([H:8])[H:9]>>[C:1](=[C:2]([H:10])[H:11])([H:8])[H:9].[C:3]([O:4][H:7])[N:5]([C:6]([H:13])([H:14])[H:15])[H:12]"
C        2.51515909      -0.21456938       0.32254106
C        1.73112633       0.91943864       0.03285860
C       -0.26492239       0.13213989       0.06262321
O       -0.06625196      -1.04084435       0.52534595
N       -1.44820818       0.30913974      -0.52257671
C       -2.66660169      -0.36710248      -0.12462084
H        1.26326243      -1.12753969       0.47725835
H        3.08797491      -0.63410882      -0.49818902
H        2.94576544      -0.28310863       1.31673445
H        1.76204802       1.74211937       0.74197432
H        1.63648874       1.24068345      -1.00027873
H       -1.48192257       0.97523586      -1.27191260
H       -3.07159778      -0.93544787      -0.96306046
H       -2.54612263      -1.08419391       0.68569931
H       -3.39619774       0.36815817       0.21560311
15
Frame=12 idx=005965 GeodesicLength=0.954734297676476 rxn_smarts="[C:1]([C:2]([C:3](=[O:4])[N:5]([C:6]([H:13])([H:14])[H:15])[H:12])([H:10])[H:11])([H:7])([H:8])[H:9]>>[C:1](=[C:2]([H:10])[H:11])([H:8])[H:9].[C:3]([O:4][H:7])[N:5]([C:6]([H:13])([H:14])[H:15])[H:12]"
C        2.51488620      -0.22329140       0.30399344
C        1.72254595       0.91850358       0.05566329
C       -0.27047311       0.13220949       0.07616208
O       -0.07805884      -1.04633354       0.52819135
N       -1.45157962       0.31899441      -0.51341592
C       -2.67070498      -0.36198373      -0.12564326
H        1.27867655      -1.14821133       0.44978745
H        3.08627976      -0.60602719      -0.53568122
H        2.95987931      -0.31205681       1.29040309
H        1.78143970       1.72638767       0.78049837
H        1.61833441       1.26580170      -0.96847110
H       -1.47621317       0.97333303      -1.27322749
H       -3.01015606      -1.02117252      -0.92596645
H       -2.56263787      -0.99042515       0.75690648
H       -3.44221824       0.37427178       0.10079988
15
Frame=13 idx=005965 GeodesicLength=1.0327527736620827 rxn_smarts="[C:1]([C:2]([C:3](=[O:4])[N:5]([C:6]([H:13])([H:14])[H:15])[H:12])([H:10])[H:11])([H:7])([H:8])[H:9]>>[C:1](=[C:2]([H:10])[H:11])([H:8])[H:9].[C:3]([O:4][H:7])[N:5]([C:6]([H:13])([H:14])[H:15])[H:12]"
C        2.51410389      -0.23178581       0.28528660
C        1.71451352       0.91723932       0.07977613
C       -0.27570578       0.13203010       0.08468725
O       -0.09099717      -1.04849790       0.53585011
N       -1.45484667       0.32580871      -0.50969869
C       -2.67451224      -0.35762313      -0.12695086
H        1.29321539      -1.16771484       0.42287801
H        3.08232786      -0.57742191      -0.57261823
H        2.97449960      -0.34096921       1.26272583
H        1.80014725       1.70831670       0.82095689
H        1.60275343       1.29250283      -0.93404844
H       -1.47257855       0.97079162      -1.27747374
H       -2.95422871      -1.09958419      -0.87659905
H       -2.57994594      -0.89240585       0.81694866
H       -3.47874589       0.36931358      -0.01172045
15
Frame=14 idx=005965 GeodesicLength=1.1116331223083948 rxn_smarts="[C:1]([C:2]([C:3](=[O:4])[N:5]([C:6]([H:13])([H:14])[H:15])[H:12])([H:10])[H:11])([H:7])([H:8])[H:9]>>[C:1](=[C:2]([H:10])[H:11])([H:8])[H:9].[C:3]([O:4][H:7])[N:5]([C:6]([H:13])([H:14])[H:15])[H:12]"
C        2.51065819      -0.24185259       0.26275723
C        1.70684712       0.91489819       0.10030992
C       -0.28370394       0.13899625       0.11144865
O       -0.10717596      -1.04247770       0.56420361
N       -1.45657252       0.33754129      -0.49682861
C       -2.67631288      -0.35742137      -0.13476701
H        1.30335012      -1.18421951       0.40518529
H        3.06808473      -0.55607357      -0.61428831
H        2.99279588      -0.36768383       1.22783253
H        1.82858611       1.69299790       0.85078534
H        1.58057804       1.31212282      -0.90381391
H       -1.46439735       0.97999285      -1.26670945
H       -2.88800361      -1.16920778      -0.83266567
H       -2.60432635      -0.80206326       0.85681574
H       -3.51040759       0.34445030      -0.13026535
15
Frame=15 idx=005965 GeodesicLength=1.1899289665969373 rxn_smarts="[C:1]([C:2]([C:3](=[O:4])[N:5]([C:6]([H:13])([H:14])[H:15])[H:12])([H:10])[H:11])([H:7])([H:8])[H:9]>>[C:1](=[C:2]([H:10])[H:11])([H:8])[H:9].[C:3]([O:4][H:7])[N:5]([C:6]([H:13])([H:14])[H:15])[H:12]"
C        2.50768294      -0.25031011       0.24253165
C        1.69951113       0.91248129       0.12331528
C       -0.29011500       0.14198776       0.12466020
O       -0.12249026      -1.03774700       0.58635853
N       -1.45861199       0.34298878      -0.49429357
C       -2.67857115      -0.35620840      -0.13955794
H        1.31498593      -1.20125557       0.38349426
H        3.05705082      -0.53012729      -0.65128840
H        3.00839040      -0.39392870       1.19580112
H        1.85144943       1.67439367       0.88547272
H        1.56432952       1.33520306      -0.86960704
H       -1.46064913       0.98387635      -1.26530341
H       -2.83575940      -1.23054249      -0.77369682
H       -2.62640090      -0.70702584       0.89040773
H       -3.53080234       0.31621448      -0.23829433
15
Frame=16 idx=005965 GeodesicLength=1.2685525489158127 rxn_smarts="[C:1]([C:2]([C:3](=[O:4])[N:5]([C:6]([H:13])([H:14])[H:15])[H:12])([H:10])[H:11])([H:7])([H:8])[H:9]>>[C:1](=[C:2]([H:10])[H:11])([H:8])[H:9].[C:3]([O:4][H:7])[N:5]([C:6]([H:13])([H:14])[H:15])[H:12]"
C        2.50252718      -0.25946815       0.22077355
C        1.69236836       0.90930427       0.14359681
C       -0.29818125       0.14912451       0.14881343
O       -0.13956435      -1.02830238       0.62026291
N       -1.45943470       0.35097630      -0.48641515
C       -2.67908909      -0.35774775      -0.14827535
H        1.32377452      -1.21681005       0.36702358
H        3.04001689      -0.50868239      -0.68936426
H        3.02438908      -0.41799187       1.16044807
H        1.87991874       1.65807411       0.91151047
H        1.54457356       1.35282261      -0.83884633
H       -1.45462358       0.99617556      -1.25355241
H       -2.77977968      -1.28292891      -0.71871913
H       -2.65319563      -0.62029283       0.90876027
H       -3.54370006       0.27574697      -0.34601646
