10
Frame=0 idx=006535 GeodesicLength=0.0 rxn_smarts="[O:1]=[c:2]1[n:3]([H:8])[n:4][c:5]([H:9])[c:6]([H:10])[n:7]1>>[O:1]=[c:2]1[n-:3][n:4]([H:8])[c+:5]([H:9])[c:6]([H:10])[n:7]1"
O        2.27414164      -1.34668037      -0.09311697
C        1.24157802      -0.79063066       0.15438475
N        1.20376618       0.55837304       0.54928188
N        0.06988896       1.25476461       0.22940635
C       -1.01059225       0.68900047      -0.21645055
C       -1.05416824      -0.73147783      -0.09774224
N       -0.00317946      -1.43581794       0.14301462
H        1.12494629       1.73094548       0.00722853
H       -1.83413949       1.31687904      -0.52288543
H       -2.01224164      -1.24535583      -0.15312094
10
Frame=1 idx=006535 GeodesicLength=0.030640200674669542 rxn_smarts="[O:1]=[c:2]1[n:3]([H:8])[n:4][c:5]([H:9])[c:6]([H:10])[n:7]1>>[O:1]=[c:2]1[n-:3][n:4]([H:8])[c+:5]([H:9])[c:6]([H:10])[n:7]1"
O        2.27533099      -1.34495713      -0.08644857
C        1.24036730      -0.79101084       0.15670141
N        1.20118150       0.55962247       0.54519964
N        0.06985987       1.25500749       0.23328515
C       -1.01264317       0.68886859      -0.20823698
C       -1.05525989      -0.73172601      -0.09544317
N       -0.00367741      -1.43716851       0.14022590
H        1.13167615       1.73100594      -0.00481855
H       -1.83506057       1.31716616      -0.51664151
H       -2.01177478      -1.24680815      -0.16382331
10
Frame=2 idx=006535 GeodesicLength=0.06131459155653676 rxn_smarts="[O:1]=[c:2]1[n:3]([H:8])[n:4][c:5]([H:9])[c:6]([H:10])[n:7]1>>[O:1]=[c:2]1[n-:3][n:4]([H:8])[c+:5]([H:9])[c:6]([H:10])[n:7]1"
O        2.27645615      -1.34315303      -0.08003147
C        1.23914386      -0.79138390       0.15904225
N        1.19862057       0.56087402       0.54108395
N        0.06977022       1.25522754       0.23737474
C       -1.01470072       0.68869187      -0.19987769
C       -1.05640367      -0.73199432      -0.09289726
N       -0.00416809      -1.43851241       0.13740572
H        1.13830884       1.73100947      -0.01676160
H       -1.83577748       1.31737134      -0.51086723
H       -2.01124970      -1.24813058      -0.17447142
10
Frame=3 idx=006535 GeodesicLength=0.0918833810419813 rxn_smarts="[O:1]=[c:2]1[n:3]([H:8])[n:4][c:5]([H:9])[c:6]([H:10])[n:7]1>>[O:1]=[c:2]1[n-:3][n:4]([H:8])[c+:5]([H:9])[c:6]([H:10])[n:7]1"
O        2.27756420      -1.34109091      -0.07420542
C        1.23791575      -0.79176015       0.16135072
N        1.19590646       0.56200311       0.53717194
N        0.06954011       1.25534446       0.24183971
C       -1.01670371       0.68843954      -0.19161015
C       -1.05754032      -0.73232116      -0.09049752
N       -0.00460224      -1.43990221       0.13410119
H        1.14473703       1.73100575      -0.02798150
H       -1.83596281       1.31747265      -0.50643114
H       -2.01085447      -1.24919107      -0.18373784
10
Frame=4 idx=006535 GeodesicLength=0.12248051541967873 rxn_smarts="[O:1]=[c:2]1[n:3]([H:8])[n:4][c:5]([H:9])[c:6]([H:10])[n:7]1>>[O:1]=[c:2]1[n-:3][n:4]([H:8])[c+:5]([H:9])[c:6]([H:10])[n:7]1"
O        2.27869531      -1.33882021      -0.06873374
C        1.23669595      -0.79213721       0.16362580
N        1.19308529       0.56303811       0.53346185
N        0.06917370       1.25536178       0.24659585
C       -1.01863975       0.68811893      -0.18359287
C       -1.05865338      -0.73271181      -0.08846599
N       -0.00497714      -1.44133140       0.13024033
H        1.15106618       1.73101872      -0.03855999
H       -1.83579355       1.31748330      -0.50298013
H       -2.01065262      -1.25002022      -0.19159112
10
Frame=5 idx=006535 GeodesicLength=0.1530803938104467 rxn_smarts="[O:1]=[c:2]1[n:3]([H:8])[n:4][c:5]([H:9])[c:6]([H:10])[n:7]1>>[O:1]=[c:2]1[n-:3][n:4]([H:8])[c+:5]([H:9])[c:6]([H:10])[n:7]1"
O        2.27985192      -1.33642094      -0.06340204
C        1.23548402      -0.79251947       0.16591364
N        1.19017304       0.56401494       0.52986533
N        0.06870589       1.25530095       0.25152305
C       -1.02049511       0.68774453      -0.17587855
C       -1.05971885      -0.73314529      -0.08681531
N       -0.00529834      -1.44277035       0.12592606
H        1.15732942       1.73102275      -0.04871168
H       -1.83543839       1.31743684      -0.50002830
H       -2.01059361      -1.25066396      -0.19839221
10
Frame=6 idx=006535 GeodesicLength=0.1836655016208608 rxn_smarts="[O:1]=[c:2]1[n:3]([H:8])[n:4][c:5]([H:9])[c:6]([H:10])[n:7]1>>[O:1]=[c:2]1[n-:3][n:4]([H:8])[c+:5]([H:9])[c:6]([H:10])[n:7]1"
O        2.28098952      -1.33395080      -0.05817793
C        1.23426928      -0.79289990       0.16824003
N        1.18723675       0.56497713       0.52625899
N        0.06817825       1.25519887       0.25661379
C       -1.02232214       0.68733178      -0.16822919
C       -1.06077322      -0.73359659      -0.08522254
N       -0.00558992      -1.44419248       0.12141525
H        1.16352697       1.73099312      -0.05870417
H       -1.83493693       1.31734489      -0.49738143
H       -2.01057857      -1.25120602      -0.20481280
10
Frame=7 idx=006535 GeodesicLength=0.2142511061349155 rxn_smarts="[O:1]=[c:2]1[n:3]([H:8])[n:4][c:5]([H:9])[c:6]([H:10])[n:7]1>>[O:1]=[c:2]1[n-:3][n:4]([H:8])[c+:5]([H:9])[c:6]([H:10])[n:7]1"
O        2.28212918      -1.33145761      -0.05286904
C        1.23305547      -0.79327658       0.17060185
N        1.18428640       0.56594037       0.52260048
N        0.06760374       1.25506302       0.26179829
C       -1.02411720       0.68688875      -0.16068300
C       -1.06180846      -0.73406013      -0.08375399
N       -0.00584782      -1.44558686       0.11667374
H        1.16968652       1.73091465      -0.06865006
H       -1.83440065       1.31722675      -0.49476246
H       -2.01058718      -1.25165236      -0.21095582
10
Frame=8 idx=006535 GeodesicLength=0.2448356113405149 rxn_smarts="[O:1]=[c:2]1[n:3]([H:8])[n:4][c:5]([H:9])[c:6]([H:10])[n:7]1>>[O:1]=[c:2]1[n-:3][n:4]([H:8])[c+:5]([H:9])[c:6]([H:10])[n:7]1"
O        2.28327352      -1.32898770      -0.04732320
C        1.23184329      -0.79364988       0.17302810
N        1.18134617       0.56692765       0.51882045
N        0.06700877       1.25491050       0.26701755
C       -1.02588414       0.68642403      -0.15322134
C       -1.06282317      -0.73452749      -0.08236216
N       -0.00607195      -1.44694212       0.11174707
H        1.17582221       1.73076067      -0.07872081
H       -1.83393804       1.31710455      -0.49188184
H       -2.01057666      -1.25202019      -0.21710383
10
Frame=9 idx=006535 GeodesicLength=0.2754175660419973 rxn_smarts="[O:1]=[c:2]1[n:3]([H:8])[n:4][c:5]([H:9])[c:6]([H:10])[n:7]1>>[O:1]=[c:2]1[n-:3][n:4]([H:8])[c+:5]([H:9])[c:6]([H:10])[n:7]1"
O        2.28437010      -1.32659233      -0.04155691
C        1.23061972      -0.79401416       0.17554789
N        1.17848682       0.56798218       0.51479431
N        0.06643091       1.25477513       0.27228221
C       -1.02767577       0.68594948      -0.14556459
C       -1.06387581      -0.73497228      -0.08063895
N       -0.00629382      -1.44823196       0.10691262
H        1.18191224       1.73050016      -0.08918456
H       -1.83356298       1.31696209      -0.48860734
H       -2.01041140      -1.25235829      -0.22398468
10
Frame=10 idx=006535 GeodesicLength=0.30600430692165337 rxn_smarts="[O:1]=[c:2]1[n:3]([H:8])[n:4][c:5]([H:9])[c:6]([H:10])[n:7]1>>[O:1]=[c:2]1[n-:3][n:4]([H:8])[c+:5]([H:9])[c:6]([H:10])[n:7]1"
O        2.28541255      -1.32431215      -0.03545548
C        1.22938336      -0.79436816       0.17820165
N        1.17573845       0.56913315       0.51044258
N        0.06590101       1.25467782       0.27753560
C       -1.02950046       0.68546543      -0.13763976
C       -1.06498848      -0.73540304      -0.07840923
N       -0.00652176      -1.44945200       0.10226222
H        1.18795541       1.73009566      -0.10025004
H       -1.83337458       1.31680711      -0.48466529
H       -2.01000552      -1.25264383      -0.23202225
10
Frame=11 idx=006535 GeodesicLength=0.33660552432200613 rxn_smarts="[O:1]=[c:2]1[n:3]([H:8])[n:4][c:5]([H:9])[c:6]([H:10])[n:7]1>>[O:1]=[c:2]1[n-:3][n:4]([H:8])[c+:5]([H:9])[c:6]([H:10])[n:7]1"
O        2.28636563      -1.32221315      -0.02892342
C        1.22812714      -0.79471049       0.18104158
N        1.17316395       0.57042363       0.50562498
N        0.06546453       1.25465331       0.28273632
C       -1.03139528       0.68497889      -0.12922030
C       -1.06620623      -0.73581312      -0.07534448
N       -0.00678526      -1.45058564       0.09805512
H        1.19392183       1.72948944      -0.11225944
H       -1.83347385       1.31663373      -0.47972762
H       -2.00918244      -1.25285659      -0.24198275
10
Frame=12 idx=006535 GeodesicLength=0.36719817572607155 rxn_smarts="[O:1]=[c:2]1[n:3]([H:8])[n:4][c:5]([H:9])[c:6]([H:10])[n:7]1>>[O:1]=[c:2]1[n-:3][n:4]([H:8])[c+:5]([H:9])[c:6]([H:10])[n:7]1"
O        2.28717995      -1.32036401      -0.02182423
C        1.22682161      -0.79505224       0.18413879
N        1.17075350       0.57186319       0.50024548
N        0.06512995       1.25471158       0.28778485
C       -1.03335597       0.68447237      -0.12029858
C       -1.06759106      -0.73621277      -0.07126199
N       -0.00713076      -1.45161148       0.09441716
H        1.19976362       1.72857729      -0.12547033
H       -1.83403273       1.31640455      -0.47337507
H       -2.00753811      -1.25278848      -0.25435608
10
Frame=13 idx=006535 GeodesicLength=0.3977963673390038 rxn_smarts="[O:1]=[c:2]1[n:3]([H:8])[n:4][c:5]([H:9])[c:6]([H:10])[n:7]1>>[O:1]=[c:2]1[n-:3][n:4]([H:8])[c+:5]([H:9])[c:6]([H:10])[n:7]1"
O        2.28815303      -1.31842005      -0.01425636
C        1.22555775      -0.79539263       0.18723278
N        1.16822156       0.57323074       0.49494563
N        0.06471527       1.25468167       0.29293281
C       -1.03522942       0.68393216      -0.11180166
C       -1.06883716      -0.73665170      -0.06803877
N       -0.00731776      -1.45263432       0.08967289
H        1.20558285       1.72761724      -0.13836916
H       -1.83456684       1.31622563      -0.46715967
H       -2.00627928      -1.25258873      -0.26515848
10
Frame=14 idx=006535 GeodesicLength=0.4284004840405252 rxn_smarts="[O:1]=[c:2]1[n:3]([H:8])[n:4][c:5]([H:9])[c:6]([H:10])[n:7]1>>[O:1]=[c:2]1[n-:3][n:4]([H:8])[c+:5]([H:9])[c:6]([H:10])[n:7]1"
O        2.28919454      -1.31650525      -0.00606926
C        1.22430708      -0.79573636       0.19043269
N        1.16565711       0.57459641       0.48950290
N        0.06428304       1.25461289       0.29807492
C       -1.03705810       0.68336253      -0.10346993
C       -1.06999587      -0.73711693      -0.06530379
N       -0.00740796      -1.45360925       0.08428739
H        1.21135464       1.72651891      -0.15146747
H       -1.83529016       1.31608857      -0.46045563
H       -2.00504431      -1.25221152      -0.27553183
10
Frame=15 idx=006535 GeodesicLength=0.45900967052202757 rxn_smarts="[O:1]=[c:2]1[n:3]([H:8])[n:4][c:5]([H:9])[c:6]([H:10])[n:7]1>>[O:1]=[c:2]1[n-:3][n:4]([H:8])[c+:5]([H:9])[c:6]([H:10])[n:7]1"
O        2.29029438      -1.31464902       0.00283846
C        1.22306765      -0.79608244       0.19377300
N        1.16309237       0.57598101       0.48384168
N        0.06385901       1.25452509       0.30318927
C       -1.03886969       0.68277259      -0.09516923
C       -1.07108292      -0.73759438      -0.06296423
N       -0.00740475      -1.45452457       0.07831042
H        1.21706803       1.72524423      -0.16494340
H       -1.83625072       1.31599298      -0.45309241
H       -2.00377336      -1.25166549      -0.28578356
10
Frame=16 idx=006535 GeodesicLength=0.4896267541304566 rxn_smarts="[O:1]=[c:2]1[n:3]([H:8])[n:4][c:5]([H:9])[c:6]([H:10])[n:7]1>>[O:1]=[c:2]1[n-:3][n:4]([H:8])[c+:5]([H:9])[c:6]([H:10])[n:7]1"
O        2.29141251      -1.31291939       0.01264706
C        1.22182686      -0.79643526       0.19733879
N        1.16057417       0.57742177       0.47782543
N        0.06348188       1.25444352       0.30820581
C       -1.04069310       0.68216037      -0.08671917
C       -1.07210971      -0.73808153      -0.06084896
N       -0.00730025      -1.45534174       0.07185836
H        1.22269095       1.72372111      -0.17912255
H       -1.83756980       1.31594446      -0.44468933
H       -2.00231351      -1.25091333      -0.29649545
