14
Frame=0 idx=005323 GeodesicLength=0.0 rxn_smarts="[O:1]([C:2]([C:3]([C@@:4]1([H:12])[C:5]([H:13])([H:14])[O:6]1)([H:10])[H:11])([H:8])[H:9])[H:7]>>[C-:4]1=[O+:6][C:5]1([H:13])[H:14].[C:2](=[C:3]([H:10])[H:11])([H:8])[H:9].[O:1]([H:7])[H:12]"
O        1.55797342       1.05772887      -1.16950414
C        1.55251965      -0.70829924       0.06576797
C        0.20790613      -0.97675870       0.30427054
C       -0.76650724       0.47588231      -0.19876603
C       -2.16410041       0.25297146       0.21127081
O       -1.26849787       1.10884349       0.91601938
H        1.85981809       1.81399062      -0.66180149
H        2.07976675      -1.13578965      -0.77343301
H        2.16917055      -0.25486387       0.83108644
H       -0.23890895      -1.75081707      -0.31050085
H       -0.08462583      -0.99600384       1.34841770
H        0.51082459       1.00283334      -0.98752204
H       -2.45271303      -0.64527174       0.75055008
H       -2.96262580       0.75555400      -0.32585534
14
Frame=1 idx=005323 GeodesicLength=0.09929925059598413 rxn_smarts="[O:1]([C:2]([C:3]([C@@:4]1([H:12])[C:5]([H:13])([H:14])[O:6]1)([H:10])[H:11])([H:8])[H:9])[H:7]>>[C-:4]1=[O+:6][C:5]1([H:13])[H:14].[C:2](=[C:3]([H:10])[H:11])([H:8])[H:9].[O:1]([H:7])[H:12]"
O        1.56168125       1.05557127      -1.16284593
C        1.55972198      -0.70451211       0.06835716
C        0.21525656      -0.98467838       0.30178454
C       -0.77503508       0.47421768      -0.20975929
C       -2.16971775       0.26282256       0.21358898
O       -1.26460530       1.12712023       0.89736212
H        1.84054426       1.82008705      -0.65449119
H        2.09149322      -1.12820058      -0.77074440
H        2.17688438      -0.27850159       0.84915677
H       -0.22088363      -1.75990696      -0.31970831
H       -0.07712912      -1.01839540       1.34593289
H        0.48743569       0.99959953      -1.00424721
H       -2.45502391      -0.62593559       0.76976155
H       -2.97062255       0.76071230      -0.32414768
14
Frame=2 idx=005323 GeodesicLength=0.1984722719056129 rxn_smarts="[O:1]([C:2]([C:3]([C@@:4]1([H:12])[C:5]([H:13])([H:14])[O:6]1)([H:10])[H:11])([H:8])[H:9])[H:7]>>[C-:4]1=[O+:6][C:5]1([H:13])[H:14].[C:2](=[C:3]([H:10])[H:11])([H:8])[H:9].[O:1]([H:7])[H:12]"
O        1.56526706       1.05329570      -1.15637648
C        1.56693088      -0.70018301       0.07177905
C        0.22266244      -0.99274905       0.29900946
C       -0.78373810       0.47269179      -0.22050888
C       -2.17528602       0.27304756       0.21628199
O       -1.26065988       1.14549277       0.87852611
H        1.82087081       1.82601032      -0.64824295
H        2.10392765      -1.12020080      -0.76672831
H        2.18399622      -0.30243055       0.86774378
H       -0.20209760      -1.76855345      -0.33021416
H       -0.06989764      -1.04247117       1.34284129
H        0.46365431       0.99578853      -1.02157096
H       -2.45692707      -0.60590311       0.78934802
H       -2.97870306       0.76616449      -0.32188796
14
Frame=3 idx=005323 GeodesicLength=0.297549491220284 rxn_smarts="[O:1]([C:2]([C:3]([C@@:4]1([H:12])[C:5]([H:13])([H:14])[O:6]1)([H:10])[H:11])([H:8])[H:9])[H:7]>>[C-:4]1=[O+:6][C:5]1([H:13])[H:14].[C:2](=[C:3]([H:10])[H:11])([H:8])[H:9].[O:1]([H:7])[H:12]"
O        1.56878158       1.05091010      -1.15005865
C        1.57411378      -0.69530139       0.07606275
C        0.23011981      -1.00097153       0.29593583
C       -0.79262898       0.47131078      -0.23103703
C       -2.18079330       0.28364612       0.21936788
O       -1.25666939       1.16400205       0.85945529
H        1.80080890       1.83176798      -0.64307345
H        2.11703127      -1.11176101      -0.76134382
H        2.19046588      -0.32670080       0.88683677
H       -0.18251826      -1.77672208      -0.34201349
H       -0.06290849      -1.06827011       1.33905753
H        0.43944469       0.99137444      -1.03949420
H       -2.45836751      -0.58514424       0.80936727
H       -2.98687997       0.77185970      -0.31906269
14
Frame=4 idx=005323 GeodesicLength=0.39659289604411835 rxn_smarts="[O:1]([C:2]([C:3]([C@@:4]1([H:12])[C:5]([H:13])([H:14])[O:6]1)([H:10])[H:11])([H:8])[H:9])[H:7]>>[C-:4]1=[O+:6][C:5]1([H:13])[H:14].[C:2](=[C:3]([H:10])[H:11])([H:8])[H:9].[O:1]([H:7])[H:12]"
O        1.57228500       1.04842494      -1.14384487
C        1.58123274      -0.68985655       0.08124478
C        0.23762442      -1.00935025       0.29254580
C       -0.80172055       0.47007964      -0.24136809
C       -2.18622392       0.29461757       0.22286775
O       -1.25263414       1.18269340       0.84008192
H        1.78037016       1.83735815      -0.63901106
H        2.13075781      -1.10284351      -0.75452962
H        2.19622809      -0.35135521       0.90642615
H       -0.16210242      -1.78436641      -0.35510807
H       -0.05613682      -1.09584534       1.33447446
H        0.41476203       0.98632142      -1.05802059
H       -2.45927620      -0.56362312       0.82988837
H       -2.99516619       0.77774527      -0.31564694
14
Frame=5 idx=005323 GeodesicLength=0.49559799484016376 rxn_smarts="[O:1]([C:2]([C:3]([C@@:4]1([H:12])[C:5]([H:13])([H:14])[O:6]1)([H:10])[H:11])([H:8])[H:9])[H:7]>>[C-:4]1=[O+:6][C:5]1([H:13])[H:14].[C:2](=[C:3]([H:10])[H:11])([H:8])[H:9].[O:1]([H:7])[H:12]"
O        1.57581582       1.04583802      -1.13770985
C        1.58825597      -0.68384321       0.08736555
C        0.24517406      -1.01788514       0.28883542
C       -0.81102155       0.46900478      -0.25151424
C       -2.19156413       0.30596538       0.22679774
O       -1.24856781       1.20160207       0.82035136
H        1.75955765       1.84279267      -0.63604769
H        2.14507607      -1.09343252      -0.74624630
H        2.20124746      -0.37643814       0.92648804
H       -0.14082406      -1.79144891      -0.36948343
H       -0.04954895      -1.12522758       1.32900043
H        0.38956455       0.98060392      -1.07716250
H       -2.45959149      -0.54130464       0.85095556
H       -3.00357359       0.78377331      -0.31163012
14
Frame=6 idx=005323 GeodesicLength=0.5946315562153158 rxn_smarts="[O:1]([C:2]([C:3]([C@@:4]1([H:12])[C:5]([H:13])([H:14])[O:6]1)([H:10])[H:11])([H:8])[H:9])[H:7]>>[C-:4]1=[O+:6][C:5]1([H:13])[H:14].[C:2](=[C:3]([H:10])[H:11])([H:8])[H:9].[O:1]([H:7])[H:12]"
O        1.57944683       1.04316776      -1.13157570
C        1.59512920      -0.67725349       0.09447016
C        0.25276506      -1.02657708       0.28478474
C       -0.82054788       0.46809312      -0.26150395
C       -2.19679216       0.31768558       0.23118168
O       -1.24448539       1.22078128       0.80016909
H        1.73838818       1.84806029      -0.63419986
H        2.15991092      -1.08348858      -0.73643403
H        2.20545517      -0.40200702       0.94700041
H       -0.11862884      -1.79790786      -0.38513109
H       -0.04311223      -1.15645133       1.32250551
H        0.36380349       0.97417192      -1.09693613
H       -2.45921426      -0.51814363       0.87264900
H       -3.01211810       0.78986904      -0.30697984
14
Frame=7 idx=005323 GeodesicLength=0.693726580415389 rxn_smarts="[O:1]([C:2]([C:3]([C@@:4]1([H:12])[C:5]([H:13])([H:14])[O:6]1)([H:10])[H:11])([H:8])[H:9])[H:7]>>[C-:4]1=[O+:6][C:5]1([H:13])[H:14].[C:2](=[C:3]([H:10])[H:11])([H:8])[H:9].[O:1]([H:7])[H:12]"
O        1.58323351       1.04041784      -1.12538484
C        1.60181148      -0.67008844       0.10261255
C        0.26039547      -1.03542779       0.28038689
C       -0.83030906       0.46735142      -0.27134726
C       -2.20188848       0.32978318       0.23604446
O       -1.24041177       1.24027581       0.77945934
H        1.71686625       1.85314899      -0.63346753
H        2.17521861      -1.07298844      -0.72503082
H        2.20879102      -0.42809448       0.96793044
H       -0.09547991      -1.80368940      -0.40204828
H       -0.03678063      -1.18954830       1.31485889
H        0.33742336       0.96697739      -1.11736995
H       -2.45805770      -0.49409313       0.89502295
H       -3.02081215       0.79597535      -0.30166685
14
Frame=8 idx=005323 GeodesicLength=0.7928757961770657 rxn_smarts="[O:1]([C:2]([C:3]([C@@:4]1([H:12])[C:5]([H:13])([H:14])[O:6]1)([H:10])[H:11])([H:8])[H:9])[H:7]>>[C-:4]1=[O+:6][C:5]1([H:13])[H:14].[C:2](=[C:3]([H:10])[H:11])([H:8])[H:9].[O:1]([H:7])[H:12]"
O        1.58722903       1.03760251      -1.11905605
C        1.60824166      -0.66235431       0.11184301
C        0.26806356      -1.04444447       0.27562246
C       -0.84031610       0.46678719      -0.28106376
C       -2.20682817       0.34225650       0.24140845
O       -1.23637720       1.26012622       0.75812445
H        1.69502501       1.85802833      -0.63385718
H        2.19091440      -1.06189829      -0.71197194
H        2.21117341      -0.45473284       0.98923042
H       -0.07132224      -1.80872238      -0.42021413
H       -0.03050578      -1.22452797       1.30591364
H        0.31037647       0.95896488      -1.13846171
H       -2.45600280      -0.46909892       0.91813935
H       -3.02967124       0.80201357      -0.29565701
14
Frame=9 idx=005323 GeodesicLength=0.8920703745717906 rxn_smarts="[O:1]([C:2]([C:3]([C@@:4]1([H:12])[C:5]([H:13])([H:14])[O:6]1)([H:10])[H:11])([H:8])[H:9])[H:7]>>[C-:4]1=[O+:6][C:5]1([H:13])[H:14].[C:2](=[C:3]([H:10])[H:11])([H:8])[H:9].[O:1]([H:7])[H:12]"
O        1.59151608       1.03473739      -1.11246637
C        1.61432202      -0.65410357       0.12215668
C        0.27576994      -1.05361248       0.27045555
C       -0.85057167       0.46639755      -0.29070962
C       -2.21155902       0.35506627       0.24728775
O       -1.23248887       1.28042655       0.73597192
H        1.67288658       1.86265174      -0.63517797
H        2.20684882      -1.05025487      -0.69738727
H        2.21267108      -0.48201146       1.01092835
H       -0.04613587      -1.81291530      -0.43952122
H       -0.02429587      -1.26115972       1.29548285
H        0.28261292       0.95010723      -1.16020861
H       -2.45287068      -0.44308738       0.94211363
H       -3.03870545       0.80775804      -0.28892565
14
Frame=10 idx=005323 GeodesicLength=0.9913044316272667 rxn_smarts="[O:1]([C:2]([C:3]([C@@:4]1([H:12])[C:5]([H:13])([H:14])[O:6]1)([H:10])[H:11])([H:8])[H:9])[H:7]>>[C-:4]1=[O+:6][C:5]1([H:13])[H:14].[C:2](=[C:3]([H:10])[H:11])([H:8])[H:9].[O:1]([H:7])[H:12]"
O        1.59612525       1.03180896      -1.10555556
C        1.62000558      -0.64532779       0.13367875
C        0.28350362      -1.06296577       0.26486540
C       -0.86109954       0.46619580      -0.30027249
C       -2.21606342       0.36825642       0.25372916
O       -1.22871316       1.30115606       0.71297419
H        1.65047180       1.86700153      -0.63761673
H        2.22304299      -1.03799645      -0.68099940
H        2.21303649      -0.50984002       1.03291655
H       -0.01984130      -1.81621628      -0.46006593
H       -0.01804177      -1.29967509       1.28343987
H        0.25406910       0.94033077      -1.18265806
H       -2.44856728      -0.41600234       0.96692479
H       -3.04792836       0.81327419      -0.28136053
14
Frame=11 idx=005323 GeodesicLength=1.090579924893713 rxn_smarts="[O:1]([C:2]([C:3]([C@@:4]1([H:12])[C:5]([H:13])([H:14])[O:6]1)([H:10])[H:11])([H:8])[H:9])[H:7]>>[C-:4]1=[O+:6][C:5]1([H:13])[H:14].[C:2](=[C:3]([H:10])[H:11])([H:8])[H:9].[O:1]([H:7])[H:12]"
O        1.60111056       1.02879391      -1.09825566
C        1.62522796      -0.63606661       0.14647142
C        0.29125434      -1.07252894       0.25881310
C       -0.87190535       0.46618343      -0.30976450
C       -2.22030076       0.38183645       0.26076708
O       -1.22506604       1.32233189       0.68905189
H        1.62779338       1.87103871      -0.64117370
H        2.23947012      -1.02513205      -0.66270461
H        2.21216266      -0.53813345       1.05516871
H        0.00759871      -1.81855250      -0.48186525
H       -0.01169855      -1.34007673       1.26960610
H        0.22466218       0.92958187      -1.20583954
H       -2.44296880      -0.38778784       0.99260001
H       -3.05734040       0.81851186      -0.27287507
14
Frame=12 idx=005323 GeodesicLength=1.189875587079055 rxn_smarts="[O:1]([C:2]([C:3]([C@@:4]1([H:12])[C:5]([H:13])([H:14])[O:6]1)([H:10])[H:11])([H:8])[H:9])[H:7]>>[C-:4]1=[O+:6][C:5]1([H:13])[H:14].[C:2](=[C:3]([H:10])[H:11])([H:8])[H:9].[O:1]([H:7])[H:12]"
O        1.60653195       1.02567246      -1.09045803
C        1.62988644      -0.62636714       0.16060062
C        0.29901530      -1.08232424       0.25224005
C       -0.88300091       0.46636204      -0.31921544
C       -2.22421613       0.39580968       0.26844984
O       -1.22158277       1.34398137       0.66407354
H        1.60489672       1.87468581      -0.64585862
H        2.25606333      -1.01166517      -0.64238715
H        2.20988940      -0.56678266       1.07767297
H        0.03625513      -1.81982775      -0.50494690
H       -0.00521642      -1.38237120       1.25375673
H        0.19431303       0.91780303      -1.22977555
H       -2.43588853      -0.35836063       1.01919587
H       -3.06694652       0.82338439      -0.26334793
14
Frame=13 idx=005323 GeodesicLength=1.2891595220174688 rxn_smarts="[O:1]([C:2]([C:3]([C@@:4]1([H:12])[C:5]([H:13])([H:14])[O:6]1)([H:10])[H:11])([H:8])[H:9])[H:7]>>[C-:4]1=[O+:6][C:5]1([H:13])[H:14].[C:2](=[C:3]([H:10])[H:11])([H:8])[H:9].[O:1]([H:7])[H:12]"
O        1.61244406       1.02243267      -1.08205453
C        1.63389469      -0.61630509       0.17610420
C        0.30677737      -1.09237606       0.24511085
C       -0.89439656       0.46672871      -0.32864138
C       -2.22776425       0.41018182       0.27680398
O       -1.21831064       1.36611398       0.63793079
H        1.58180439       1.87788027      -0.65162470
H        2.27277706      -0.99763254      -0.61999614
H        2.20613725      -0.59567442       1.10040429
H        0.06614752      -1.81996360      -0.52929107
H        0.00148080      -1.42650109       1.23571722
H        0.16292994       0.90494347      -1.25448783
H       -2.42717819      -0.32764941       1.04671507
H       -3.07674343       0.82782130      -0.25269076
14
Frame=14 idx=005323 GeodesicLength=1.3883971304819143 rxn_smarts="[O:1]([C:2]([C:3]([C@@:4]1([H:12])[C:5]([H:13])([H:14])[O:6]1)([H:10])[H:11])([H:8])[H:9])[H:7]>>[C-:4]1=[O+:6][C:5]1([H:13])[H:14].[C:2](=[C:3]([H:10])[H:11])([H:8])[H:9].[O:1]([H:7])[H:12]"
O        1.61891348       1.01905640      -1.07289927
C        1.63711993      -0.60595701       0.19303152
C        0.31453640      -1.10272724       0.23732108
C       -0.90610915       0.46727403      -0.33808795
C       -2.23086567       0.42495779       0.28589230
O       -1.21528789       1.38873474       0.61046455
H        1.55857019       1.88051931      -0.65848848
H        2.28953331      -0.98304141      -0.59538104
H        2.20067271      -0.62461633       1.12339150
H        0.09736026      -1.81886693      -0.55494518
H        0.00845132      -1.47246308       1.21522751
H        0.13041730       0.89093327      -1.28001921
H       -2.41659175      -0.29554269       1.07521263
H       -3.08672042       0.83173915      -0.24071995
14
Frame=15 idx=005323 GeodesicLength=1.4875313471642961 rxn_smarts="[O:1]([C:2]([C:3]([C@@:4]1([H:12])[C:5]([H:13])([H:14])[O:6]1)([H:10])[H:11])([H:8])[H:9])[H:7]>>[C-:4]1=[O+:6][C:5]1([H:13])[H:14].[C:2](=[C:3]([H:10])[H:11])([H:8])[H:9].[O:1]([H:7])[H:12]"
O        1.62599213       1.01553967      -1.06284486
C        1.63944563      -0.59543172       0.21138876
C        0.32228867      -1.11341547       0.22879633
C       -0.91814967       0.46798659      -0.34758488
C       -2.23344930       0.44014904       0.29574793
O       -1.21257900       1.41182552       0.58153968
H        1.53523013       1.88250764      -0.66639320
H        2.30626912      -0.96794150      -0.56848677
H        2.19336872      -0.65342405       1.14664972
H        0.12992501      -1.81646125      -0.58189029
H        0.01578148      -1.52016637       1.19209849
H        0.09666126       0.87571340      -1.30639513
H       -2.40392965      -0.26195057       1.10467190
H       -3.09685454       0.83506908      -0.22729767
14
Frame=16 idx=005323 GeodesicLength=1.5865196788972142 rxn_smarts="[O:1]([C:2]([C:3]([C@@:4]1([H:12])[C:5]([H:13])([H:14])[O:6]1)([H:10])[H:11])([H:8])[H:9])[H:7]>>[C-:4]1=[O+:6][C:5]1([H:13])[H:14].[C:2](=[C:3]([H:10])[H:11])([H:8])[H:9].[O:1]([H:7])[H:12]"
O        1.63373868       1.01188260      -1.05171560
C        1.64071415      -0.58483503       0.23119157
C        0.33002806      -1.12449427       0.21941455
C       -0.93054609       0.46884599      -0.35719067
C       -2.23541904       0.45577498       0.30643293
O       -1.21024794       1.43537461       0.55096515
H        1.51181767       1.88372998      -0.67533407
H        2.32292739      -0.95236363      -0.53918846
H        2.18401286      -0.68189045       1.17028828
H        0.16391339      -1.81264916      -0.61017577
H        0.02355801      -1.56956758       1.16606279
H        0.06153665       0.85919800      -1.33366875
H       -2.38891260      -0.22673262       1.13512162
H       -3.10712119       0.83772657      -0.21220356
