18
Frame=0 idx=006811 GeodesicLength=0.0 rxn_smarts="[C:1]([C:2]([C:3]([C@@:4]([C:5]([H:16])([H:17])[H:18])([C:6]#[N:7])[H:15])([H:13])[H:14])([H:11])[H:12])([H:8])([H:9])[H:10]>>[C:1]([C@:2]1([H:12])[C:3]([H:13])([H:14])[C@@:4]([C:5]([H:16])([H:17])[H:18])([H:15])/[C:6]1=[N:7]\[H:11])([H:8])([H:9])[H:10]"
C       -2.21912322       0.33995298      -0.88515391
C       -1.22002403      -0.25547220       0.08443269
C        0.06509783      -0.84380683      -0.49666787
C        1.05112242      -0.40080612       0.59421939
C        2.45375127       0.01943196       0.19585232
C        0.15958144       0.71690623       1.06923741
N       -0.02283200       1.80491418       1.57878196
H       -3.07417974       0.78377313      -0.37002751
H       -1.75828498       1.12015585      -1.49741481
H       -2.61416361      -0.41979798      -1.56802211
H       -0.99935000       1.12443182       0.94277922
H       -1.69255440      -0.93947148       0.79325357
H        0.04348385      -1.92120379      -0.66787773
H        0.31253761      -0.35241587      -1.44176416
H        1.08741898      -1.15039585       1.39135520
H        3.00617250      -0.83556194      -0.19732810
H        2.41835680       0.79150771      -0.57493255
H        3.00298933       0.41785820       1.04927696
18
Frame=1 idx=006811 GeodesicLength=0.08646810089436584 rxn_smarts="[C:1]([C:2]([C:3]([C@@:4]([C:5]([H:16])([H:17])[H:18])([C:6]#[N:7])[H:15])([H:13])[H:14])([H:11])[H:12])([H:8])([H:9])[H:10]>>[C:1]([C@:2]1([H:12])[C:3]([H:13])([H:14])[C@@:4]([C:5]([H:16])([H:17])[H:18])([H:15])/[C:6]1=[N:7]\[H:11])([H:8])([H:9])[H:10]"
C       -2.22506206       0.33246774      -0.88678303
C       -1.21900715      -0.24575367       0.08669459
C        0.06586982      -0.83239667      -0.49943796
C        1.05298262      -0.39958642       0.59519969
C        2.45828981       0.01259067       0.19809708
C        0.17109720       0.72202914       1.07373617
N       -0.01855979       1.80827492       1.58282040
H       -3.08272211       0.77256640      -0.37287179
H       -1.77172854       1.11250546      -1.50472767
H       -2.61522239      -0.43564576      -1.56275773
H       -1.01463616       1.13813907       0.94070879
H       -1.68682933      -0.93527971       0.79375314
H        0.04426470      -1.90867780      -0.67707026
H        0.31464787      -0.33551854      -1.44129730
H        1.08359086      -1.15246047       1.38940881
H        3.00403504      -0.84503855      -0.19875492
H        2.42885747       0.78778085      -0.56979985
H        3.01013214       0.40400336       1.05308186
18
Frame=2 idx=006811 GeodesicLength=0.17281782113360886 rxn_smarts="[C:1]([C:2]([C:3]([C@@:4]([C:5]([H:16])([H:17])[H:18])([C:6]#[N:7])[H:15])([H:13])[H:14])([H:11])[H:12])([H:8])([H:9])[H:10]>>[C:1]([C@:2]1([H:12])[C:3]([H:13])([H:14])[C@@:4]([C:5]([H:16])([H:17])[H:18])([H:15])/[C:6]1=[N:7]\[H:11])([H:8])([H:9])[H:10]"
C       -2.23088971       0.32484120      -0.88839553
C       -1.21794976      -0.23568729       0.08901751
C        0.06663964      -0.82076273      -0.50212703
C        1.05491643      -0.39842635       0.59618556
C        2.46284526       0.00562881       0.20026889
C        0.18294399       0.72701900       1.07853762
N       -0.01464454       1.81145177       1.58692694
H       -3.09123088       0.76114857      -0.37581157
H       -1.78518057       1.10456064      -1.51215982
H       -2.61597003      -0.45171598      -1.55728885
H       -1.03058935       1.15233391       0.93845272
H       -1.68101102      -0.93076669       0.79426719
H        0.04495747      -1.89587532      -0.68627316
H        0.31679479      -0.31834483      -1.44066813
H        1.07979747      -1.15464670       1.38734542
H        3.00179052      -0.85454790      -0.20045007
H        2.43940790       0.78398270      -0.56462137
H        3.01737239       0.38980719       1.05679369
18
Frame=3 idx=006811 GeodesicLength=0.2590957554313753 rxn_smarts="[C:1]([C:2]([C:3]([C@@:4]([C:5]([H:16])([H:17])[H:18])([C:6]#[N:7])[H:15])([H:13])[H:14])([H:11])[H:12])([H:8])([H:9])[H:10]>>[C:1]([C@:2]1([H:12])[C:3]([H:13])([H:14])[C@@:4]([C:5]([H:16])([H:17])[H:18])([H:15])/[C:6]1=[N:7]\[H:11])([H:8])([H:9])[H:10]"
C       -2.23659452       0.31707143      -0.88998829
C       -1.21684701      -0.22524898       0.09140594
C        0.06740905      -0.80889456      -0.50472658
C        1.05693116      -0.39733111       0.59717764
C        2.46742262      -0.00146150       0.20235989
C        0.19514850       0.73186781       1.08365949
N       -0.01113738       1.81442359       1.59108565
H       -3.09970027       0.74951021      -0.37885059
H       -1.79863148       1.09631485      -1.51970874
H       -2.61638523      -0.46801108      -1.55160208
H       -1.04727819       1.16703377       0.93600402
H       -1.67509426      -0.92590631       0.79480200
H        0.04555816      -1.88278323      -0.69547904
H        0.31898370      -0.30088624      -1.43986612
H        1.07604315      -1.15696239       1.38516005
H        2.99943692      -0.86409423      -0.20242972
H        2.45001367       0.78010578      -0.55940188
H        3.02472139       0.37525219       1.06039838
18
Frame=4 idx=006811 GeodesicLength=0.3453615347993818 rxn_smarts="[C:1]([C:2]([C:3]([C@@:4]([C:5]([H:16])([H:17])[H:18])([C:6]#[N:7])[H:15])([H:13])[H:14])([H:11])[H:12])([H:8])([H:9])[H:10]>>[C:1]([C@:2]1([H:12])[C:3]([H:13])([H:14])[C@@:4]([C:5]([H:16])([H:17])[H:18])([H:15])/[C:6]1=[N:7]\[H:11])([H:8])([H:9])[H:10]"
C       -2.24216314       0.30915559      -0.89155546
C       -1.21569264      -0.21440877       0.09386385
C        0.06818049      -0.79677647      -0.50722765
C        1.05903457      -0.39630485       0.59817612
C        2.47202781      -0.00869147       0.20436109
C        0.20774294       0.73657020       1.08911996
N       -0.00809790       1.81716652       1.59527386
H       -3.10812519       0.73763631      -0.38199131
H       -1.81207252       1.08775658      -1.52737138
H       -2.61644082      -0.48453580      -1.54567923
H       -1.06478429       1.18225740       0.93335646
H       -1.66907076      -0.92066762       0.79536315
H        0.04606313      -1.86938258      -0.70468085
H        0.32122130      -0.28312742      -1.43887893
H        1.07233021      -1.15941384       1.38284595
H        2.99697015      -0.87368542      -0.20471171
H        2.46068496       0.77614027      -0.55414456
H        3.03219171       0.36031137       1.06388062
18
Frame=5 idx=006811 GeodesicLength=0.4316356860477976 rxn_smarts="[C:1]([C:2]([C:3]([C@@:4]([C:5]([H:16])([H:17])[H:18])([C:6]#[N:7])[H:15])([H:13])[H:14])([H:11])[H:12])([H:8])([H:9])[H:10]>>[C:1]([C@:2]1([H:12])[C:3]([H:13])([H:14])[C@@:4]([C:5]([H:16])([H:17])[H:18])([H:15])/[C:6]1=[N:7]\[H:11])([H:8])([H:9])[H:10]"
C       -2.24758658       0.30109291      -0.89308974
C       -1.21448134      -0.20314133       0.09639637
C        0.06895757      -0.78439388      -0.50962423
C        1.06123446      -0.39535060       0.59918121
C        2.47666975      -0.01607414       0.20626695
C        0.22075799       0.74112453       1.09493116
N       -0.00558065       1.81965653       1.59946339
H       -3.11650354       0.72551196      -0.38523225
H       -1.82550010       1.07887756      -1.53514394
H       -2.61611879      -0.50129172      -1.53950708
H       -1.08318775       1.19802009       0.93050349
H       -1.66293104      -0.91502387       0.79596009
H        0.04647221      -1.85565624      -0.71387719
H        0.32351321      -0.26505095      -1.43769708
H        1.06865866      -1.16200520       1.38039937
H        2.99439042      -0.88333230      -0.20730596
H        2.47143718       0.77207431      -0.54885350
H        3.03979836       0.34496234       1.06722894
18
Frame=6 idx=006811 GeodesicLength=0.5179656198115813 rxn_smarts="[C:1]([C:2]([C:3]([C@@:4]([C:5]([H:16])([H:17])[H:18])([C:6]#[N:7])[H:15])([H:13])[H:14])([H:11])[H:12])([H:8])([H:9])[H:10]>>[C:1]([C@:2]1([H:12])[C:3]([H:13])([H:14])[C@@:4]([C:5]([H:16])([H:17])[H:18])([H:15])/[C:6]1=[N:7]\[H:11])([H:8])([H:9])[H:10]"
C       -2.25284956       0.29287709      -0.89458354
C       -1.21320600      -0.19141048       0.09900639
C        0.06974490      -0.77172446      -0.51190719
C        1.06353822      -0.39446949       0.60019295
C        2.48135525      -0.02362469       0.20806898
C        0.23423225       0.74552958       1.10111157
N       -0.00365377       1.82186388       1.60362081
H       -3.12482724       0.71311668      -0.38857182
H       -1.83890864       1.06966495      -1.54302268
H       -2.61538725      -0.51828745      -1.53305823
H       -1.10258552       1.21433859       0.92743601
H       -1.65666308      -0.90893831       0.79659863
H        0.04678428      -1.84157616      -0.72306456
H        0.32586911      -0.24663273      -1.43630590
H        1.06502621      -1.16473965       1.37781228
H        2.99168933      -0.89304757      -0.21023100
H        2.48228614       0.76789177      -0.54353129
H        3.04755536       0.32916846       1.07042860
18
Frame=7 idx=006811 GeodesicLength=0.604357011661611 rxn_smarts="[C:1]([C:2]([C:3]([C@@:4]([C:5]([H:16])([H:17])[H:18])([C:6]#[N:7])[H:15])([H:13])[H:14])([H:11])[H:12])([H:8])([H:9])[H:10]>>[C:1]([C@:2]1([H:12])[C:3]([H:13])([H:14])[C@@:4]([C:5]([H:16])([H:17])[H:18])([H:15])/[C:6]1=[N:7]\[H:11])([H:8])([H:9])[H:10]"
C       -2.25794202       0.28450447      -0.89602663
C       -1.21186092      -0.17918623       0.10169798
C        0.07054782      -0.75874796      -0.51407080
C        1.06595347      -0.39366049       0.60121124
C        2.48609376      -0.03136061       0.20976079
C        0.24820221       0.74978985       1.10767131
N       -0.00237817       1.82375680       1.60770778
H       -3.13309412       0.70043065      -0.39200481
H       -1.85229485       1.06010764      -1.55100080
H       -2.61422283      -0.53552350      -1.52631560
H       -1.12307370       1.23122392       0.92414727
H       -1.65025414      -0.90237882       0.79728966
H        0.04700343      -1.82711937      -0.73224345
H        0.32829643      -0.22784730      -1.43469390
H        1.06142863      -1.16761657       1.37508062
H        2.98886323      -0.90284780      -0.21349580
H        2.49325330       0.76357526      -0.53818187
H        3.05547847       0.31290004       1.07346700
18
Frame=8 idx=006811 GeodesicLength=0.690838850173388 rxn_smarts="[C:1]([C:2]([C:3]([C@@:4]([C:5]([H:16])([H:17])[H:18])([C:6]#[N:7])[H:15])([H:13])[H:14])([H:11])[H:12])([H:8])([H:9])[H:10]>>[C:1]([C@:2]1([H:12])[C:3]([H:13])([H:14])[C@@:4]([C:5]([H:16])([H:17])[H:18])([H:15])/[C:6]1=[N:7]\[H:11])([H:8])([H:9])[H:10]"
C       -2.26284996       0.27597021      -0.89740809
C       -1.21043809      -0.16642747       0.10447359
C        0.07137320      -0.74543426      -0.51610717
C        1.06848764      -0.39292035       0.60223631
C        2.49089466      -0.03930277       0.21133531
C        0.26271321       0.75391361       1.11462402
N       -0.00182477       1.82529785       1.61167772
H       -3.14129834       0.68742470      -0.39552495
H       -1.86565712       1.05018973      -1.55907245
H       -2.61259101      -0.55300785      -1.51925030
H       -1.14476686       1.24868467       0.92063178
H       -1.64368767      -0.89530497       0.79804068
H        0.04713389      -1.81225134      -0.74141424
H        0.33080681      -0.20865985      -1.43284589
H        1.05785775      -1.17063181       1.37219812
H        2.98590051      -0.91275366      -0.21711487
H        2.50436361       0.75910095      -0.53280912
H        3.06358254       0.29611262       1.07632953
18
Frame=9 idx=006811 GeodesicLength=0.7773890012077344 rxn_smarts="[C:1]([C:2]([C:3]([C@@:4]([C:5]([H:16])([H:17])[H:18])([C:6]#[N:7])[H:15])([H:13])[H:14])([H:11])[H:12])([H:8])([H:9])[H:10]>>[C:1]([C@:2]1([H:12])[C:3]([H:13])([H:14])[C@@:4]([C:5]([H:16])([H:17])[H:18])([H:15])/[C:6]1=[N:7]\[H:11])([H:8])([H:9])[H:10]"
C       -2.26756269       0.26727176      -0.89871445
C       -1.20893221      -0.15310356       0.10733466
C        0.07222808      -0.73175883      -0.51801210
C        1.07114552      -0.39224094       0.60326529
C        2.49577080      -0.04747133       0.21278789
C        0.27780565       0.75791800       1.12196998
N       -0.00205648       1.82644209       1.61548245
H       -3.14943681       0.67407409      -0.39912270
H       -1.87899619       1.03990465      -1.56722646
H       -2.61047078      -0.57074081      -1.51184048
H       -1.16777673       1.26672105       0.91688731
H       -1.63694800      -0.88768445       0.79886094
H        0.04718376      -1.79694367      -0.75058063
H        0.33340849      -0.18903891      -1.43075177
H        1.05430295      -1.17377482       1.36916234
H        2.98279787      -0.92279216      -0.22108634
H        2.51564891       0.75444321      -0.52741995
H        3.07188787       0.27877464       1.07900402
18
Frame=10 idx=006811 GeodesicLength=0.8640153806105566 rxn_smarts="[C:1]([C:2]([C:3]([C@@:4]([C:5]([H:16])([H:17])[H:18])([C:6]#[N:7])[H:15])([H:13])[H:14])([H:11])[H:12])([H:8])([H:9])[H:10]>>[C:1]([C@:2]1([H:12])[C:3]([H:13])([H:14])[C@@:4]([C:5]([H:16])([H:17])[H:18])([H:15])/[C:6]1=[N:7]\[H:11])([H:8])([H:9])[H:10]"
C       -2.27206260       0.25840124      -0.89993339
C       -1.20733754      -0.13916899       0.11028254
C        0.07312116      -0.71768685      -0.51977624
C        1.07393413      -0.39161157       0.60430054
C        2.50072809      -0.05589137       0.21410824
C        0.29352932       0.76182053       1.12971950
N       -0.00314190       1.82713880       1.61907395
H       -3.15750148       0.66034520      -0.40278969
H       -1.89230632       1.02923362      -1.57545467
H       -2.60781831      -0.58872878      -1.50405780
H       -1.19223016       1.28532931       0.91290759
H       -1.63001690      -0.87947066       0.79976048
H        0.04716221      -1.78115566      -0.75974211
H        0.33611426      -0.16894252      -1.42839265
H        1.05075082      -1.17703073       1.36596950
H        2.97953503      -0.93298753      -0.22542559
H        2.52713593       0.74957152      -0.52202259
H        3.08040427       0.26083445       1.08147237
18
Frame=11 idx=006811 GeodesicLength=0.9506953390764982 rxn_smarts="[C:1]([C:2]([C:3]([C@@:4]([C:5]([H:16])([H:17])[H:18])([C:6]#[N:7])[H:15])([H:13])[H:14])([H:11])[H:12])([H:8])([H:9])[H:10]>>[C:1]([C@:2]1([H:12])[C:3]([H:13])([H:14])[C@@:4]([C:5]([H:16])([H:17])[H:18])([H:15])/[C:6]1=[N:7]\[H:11])([H:8])([H:9])[H:10]"
C       -2.27633673       0.24935663      -0.90105173
C       -1.20564962      -0.12458324       0.11331717
C        0.07406130      -0.70318448      -0.52139351
C        1.07685736      -0.39101770       0.60534101
C        2.50577657      -0.06458880       0.21528943
C        0.30993298       0.76564774       1.13787120
N       -0.00514222       1.82733214       1.62240005
H       -3.16548708       0.64620404      -0.40651548
H       -1.90558573       1.01816630      -1.58374605
H       -2.60460175      -0.60697347      -1.49587884
H       -1.21825572       1.30448973       0.90869523
H       -1.62287565      -0.87062203       0.80074946
H        0.04708120      -1.76484894      -0.76890180
H        0.33893530      -0.14833099      -1.42575393
H        1.04718570      -1.18037741       1.36262095
H        2.97609801      -0.94337156      -0.23013261
H        2.53885971       0.74445009      -0.51662802
H        3.08914637       0.24225195       1.08371747
18
Frame=12 idx=006811 GeodesicLength=1.0373954962325918 rxn_smarts="[C:1]([C:2]([C:3]([C@@:4]([C:5]([H:16])([H:17])[H:18])([C:6]#[N:7])[H:15])([H:13])[H:14])([H:11])[H:12])([H:8])([H:9])[H:10]>>[C:1]([C@:2]1([H:12])[C:3]([H:13])([H:14])[C@@:4]([C:5]([H:16])([H:17])[H:18])([H:15])/[C:6]1=[N:7]\[H:11])([H:8])([H:9])[H:10]"
C       -2.28036497       0.24013458      -0.90205423
C       -1.20386642      -0.10930851       0.11643502
C        0.07505812      -0.68821871      -0.52285541
C        1.07991782      -0.39043852       0.60638792
C        2.51092135      -0.07358803       0.21632189
C        0.32706351       0.76943353       1.14641996
N       -0.00811445       1.82695967       1.62540498
H       -3.17337942       0.63161724      -0.41028559
H       -1.91882628       1.00669154      -1.59208500
H       -2.60077812      -0.62546793      -1.48727983
H       -1.24598639       1.32416937       0.90425469
H       -1.61550714      -0.86109809       0.80183496
H        0.04695654      -1.74798489      -0.77805669
H        0.34188328      -0.12716535      -1.42281919
H        1.04358693      -1.18378408       1.35911833
H        2.97246295      -0.95397577      -0.23520940
H        2.55085084       0.73904081      -0.51125214
H        3.09812186       0.22298314       1.08571972
18
Frame=13 idx=006811 GeodesicLength=1.124076789440894 rxn_smarts="[C:1]([C:2]([C:3]([C@@:4]([C:5]([H:16])([H:17])[H:18])([C:6]#[N:7])[H:15])([H:13])[H:14])([H:11])[H:12])([H:8])([H:9])[H:10]>>[C:1]([C@:2]1([H:12])[C:3]([H:13])([H:14])[C@@:4]([C:5]([H:16])([H:17])[H:18])([H:15])/[C:6]1=[N:7]\[H:11])([H:8])([H:9])[H:10]"
C       -2.28413308       0.23073509      -0.90292635
C       -1.20198777      -0.09331049       0.11963223
C        0.07612164      -0.67275555      -0.52415644
C        1.08311668      -0.38984839       0.60744190
C        2.51616960      -0.08291578       0.21719858
C        0.34496758       0.77322055       1.15535172
N       -0.01209893       1.82595384       1.62802845
H       -3.18117427       0.61654908      -0.41408654
H       -1.93202290       0.99480610      -1.60045225
H       -2.59631403      -0.64420160      -1.47824632
H       -1.27555559       1.34431951       0.89960078
H       -1.60789368      -0.85086320       0.80302469
H        0.04680797      -1.73052695      -0.78720796
H        0.34496908      -0.10540581      -1.41957494
H        1.03993235      -1.18721065       1.35547046
H        2.96860945      -0.96483880      -0.24064500
H        2.56314566       0.73329951      -0.50591512
H        3.10734025       0.20299354       1.08746211
18
Frame=14 idx=006811 GeodesicLength=1.2107144928122615 rxn_smarts="[C:1]([C:2]([C:3]([C@@:4]([C:5]([H:16])([H:17])[H:18])([C:6]#[N:7])[H:15])([H:13])[H:14])([H:11])[H:12])([H:8])([H:9])[H:10]>>[C:1]([C@:2]1([H:12])[C:3]([H:13])([H:14])[C@@:4]([C:5]([H:16])([H:17])[H:18])([H:15])/[C:6]1=[N:7]\[H:11])([H:8])([H:9])[H:10]"
C       -2.28761893       0.22115828      -0.90365455
C       -1.20001590      -0.07655169       0.12290196
C        0.07726238      -0.65675828      -0.52528650
C        1.08645227      -0.38921603       0.60850513
C        2.52152051      -0.09259999       0.21790822
C        0.36369294       0.77705728       1.16465211
N       -0.01713104       1.82424908       1.63020367
H       -3.18885438       0.60095996      -0.41790249
H       -1.94516074       0.98250580      -1.60882536
H       -2.59115798      -0.66316199      -1.46875993
H       -1.30710287       1.36486684       0.89475502
H       -1.60002066      -0.83987856       0.80432222
H        0.04665646      -1.71243220      -0.79635073
H        0.34820494      -0.08301036      -1.41600304
H        1.03619439      -1.19060843       1.35168747
H        2.96450439      -0.97599719      -0.24643409
H        2.57577547       0.72717741      -0.50063964
H        3.11679874       0.18224007       1.08892053
18
Frame=15 idx=006811 GeodesicLength=1.297278100668308 rxn_smarts="[C:1]([C:2]([C:3]([C@@:4]([C:5]([H:16])([H:17])[H:18])([C:6]#[N:7])[H:15])([H:13])[H:14])([H:11])[H:12])([H:8])([H:9])[H:10]>>[C:1]([C@:2]1([H:12])[C:3]([H:13])([H:14])[C@@:4]([C:5]([H:16])([H:17])[H:18])([H:15])/[C:6]1=[N:7]\[H:11])([H:8])([H:9])[H:10]"
C       -2.29080347       0.21140971      -0.90422571
C       -1.19795805      -0.05900430       0.12623408
C        0.07849034      -0.64019542      -0.52623837
C        1.08991938      -0.38850398       0.60957978
C        2.52697224      -0.10266563       0.21844165
C        0.38327995       0.78100171       1.17429387
N       -0.02321919       1.82177702       1.63186725
H       -3.19640646       0.58481295      -0.42171729
H       -1.95822346       0.96979638      -1.61717747
H       -2.58526750      -0.68232580      -1.45881542
H       -1.34075849       1.38571311       0.88975021
H       -1.59187548      -0.82811392       0.80572967
H        0.04652744      -1.69366644      -0.80547979
H        0.35160064      -0.05994496      -1.41209025
H        1.03234301      -1.19391700       1.34778666
H        2.96011555      -0.98749170      -0.25255670
H        2.58877053       0.72062216      -0.49545611
H        3.12649303       0.16069611       1.09007392
18
Frame=16 idx=006811 GeodesicLength=1.383753303036576 rxn_smarts="[C:1]([C:2]([C:3]([C@@:4]([C:5]([H:16])([H:17])[H:18])([C:6]#[N:7])[H:15])([H:13])[H:14])([H:11])[H:12])([H:8])([H:9])[H:10]>>[C:1]([C@:2]1([H:12])[C:3]([H:13])([H:14])[C@@:4]([C:5]([H:16])([H:17])[H:18])([H:15])/[C:6]1=[N:7]\[H:11])([H:8])([H:9])[H:10]"
C       -2.29366502       0.20149748      -0.90462850
C       -1.19582590      -0.04064704       0.12961429
C        0.07981428      -0.62303856      -0.52700487
C        1.09350991      -0.38766854       0.61066940
C        2.53251750      -0.11313539       0.21878998
C        0.40376156       0.78511964       1.18424197
N       -0.03034616       1.81847337       1.63295410
H       -3.20381138       0.56807216      -0.42551354
H       -1.97119011       0.95669036      -1.62547797
H       -2.57859729      -0.70166172      -1.44841315
H       -1.37664583       1.40673152       0.88462897
H       -1.58345000      -0.81554552       0.80724435
H        0.04644878      -1.67419897      -0.81458635
H        0.35516432      -0.03617995      -1.40782351
H        1.02834494      -1.19706553       1.34379121
H        2.95540487      -0.99936227      -0.25898836
H        2.60215597       0.71357867      -0.49039928
H        3.13640956       0.13834028       1.09090124
