17
Frame=0 idx=011561 GeodesicLength=0.0 rxn_smarts="[C:1]([O:2][C:3]([C:4]([H:11])([H:12])[H:13])([C:5]([H:14])([H:15])[H:16])[C:6]#[C:7][H:17])([H:8])([H:9])[H:10]>>[C:1]([O:2][C:3]([C:4]([H:11])([H:12])[H:13])([C:5]([H:14])([H:15])[H:16])[C:7](=[C:6])[H:17])([H:8])([H:9])[H:10]"
C       -2.15286999      -0.10251689      -0.10694479
O       -0.90224758      -0.56997849      -0.57611136
C        0.24461462      -0.00106453      -0.08187361
C        1.37475800      -0.92496925      -0.55287435
C        0.31099421       0.13369075       1.43385304
C        0.03904067       1.84178928      -0.43094975
C        0.92544417       1.44073199      -1.20468219
H       -2.21201104       0.98485613      -0.18676301
H       -2.90222534      -0.56725849      -0.74441600
H       -2.32897846      -0.40616593       0.92867854
H        1.23510471      -1.88119234      -0.04457730
H        2.35590972      -0.53224902      -0.29052827
H        1.31852577      -1.10637195      -1.62481382
H        1.24901182       0.60657055       1.71897076
H        0.27504691      -0.86978995       1.87071494
H       -0.50203937       0.73485350       1.82885565
H        1.67192115       1.21906463      -1.93653855
17
Frame=1 idx=011561 GeodesicLength=0.14122144070784207 rxn_smarts="[C:1]([O:2][C:3]([C:4]([H:11])([H:12])[H:13])([C:5]([H:14])([H:15])[H:16])[C:6]#[C:7][H:17])([H:8])([H:9])[H:10]>>[C:1]([O:2][C:3]([C:4]([H:11])([H:12])[H:13])([C:5]([H:14])([H:15])[H:16])[C:7](=[C:6])[H:17])([H:8])([H:9])[H:10]"
C       -2.16876353      -0.13134637      -0.07995468
O       -0.91845009      -0.57367885      -0.57147678
C        0.23739115       0.00996783      -0.10452332
C        1.34893485      -0.94270641      -0.56437027
C        0.31414758       0.15296221       1.41108402
C       -0.01120224       1.82601321      -0.54992371
C        1.00183351       1.46787921      -1.16530924
H       -2.24389591       0.95519807      -0.16425076
H       -2.92210518      -0.60853025      -0.70307673
H       -2.32005752      -0.42726037       0.96169172
H        1.19079428      -1.89691491      -0.05754185
H        2.34024923      -0.58478634      -0.29090746
H        1.29491456      -1.11953715      -1.63715038
H        1.26100422       0.61050660       1.69180512
H        0.26806467      -0.84397858       1.86156156
H       -0.48863023       0.76681925       1.80787641
H        1.81577066       1.33939285      -1.84553364
17
Frame=2 idx=011561 GeodesicLength=0.2773194269653938 rxn_smarts="[C:1]([O:2][C:3]([C:4]([H:11])([H:12])[H:13])([C:5]([H:14])([H:15])[H:16])[C:6]#[C:7][H:17])([H:8])([H:9])[H:10]>>[C:1]([O:2][C:3]([C:4]([H:11])([H:12])[H:13])([C:5]([H:14])([H:15])[H:16])[C:7](=[C:6])[H:17])([H:8])([H:9])[H:10]"
C       -2.18256748      -0.15603289      -0.05400830
O       -0.93511708      -0.58511041      -0.56243683
C        0.22960118       0.01536901      -0.12711876
C        1.32534144      -0.96055606      -0.57722484
C        0.31807370       0.17026103       1.38775487
C       -0.05156745       1.79402666      -0.68536287
C        1.06284269       1.49338877      -1.12212943
H       -2.26830241       0.92944510      -0.14777616
H       -2.94126815      -0.64458045      -0.66134322
H       -2.31258566      -0.43748787       0.99442217
H        1.15475570      -1.91193088      -0.06894914
H        2.32463258      -0.63070425      -0.29773618
H        1.27101214      -1.13531987      -1.65029953
H        1.27449632       0.60982852       1.66458924
H        0.26090260      -0.81911152       1.85324684
H       -0.47256057       0.80097196       1.78290277
H        1.94231046       1.46754316      -1.72853061
17
Frame=3 idx=011561 GeodesicLength=0.40857426743527503 rxn_smarts="[C:1]([O:2][C:3]([C:4]([H:11])([H:12])[H:13])([C:5]([H:14])([H:15])[H:16])[C:6]#[C:7][H:17])([H:8])([H:9])[H:10]>>[C:1]([O:2][C:3]([C:4]([H:11])([H:12])[H:13])([C:5]([H:14])([H:15])[H:16])[C:7](=[C:6])[H:17])([H:8])([H:9])[H:10]"
C       -2.19353937      -0.17404819      -0.03078963
O       -0.95063503      -0.60316057      -0.54879246
C        0.22254145       0.01494691      -0.14800783
C        1.30542578      -0.97906365      -0.58990479
C        0.32335013       0.18360966       1.36565735
C       -0.07841224       1.74448196      -0.83186196
C        1.10580962       1.51744356      -1.07812698
H       -2.28350905       0.91006851      -0.14063046
H       -2.95872962      -0.67267783      -0.62130776
H       -2.30729192      -0.43367044       1.02510555
H        1.12891169      -1.92681628      -0.07678174
H        2.31103034      -0.66867094      -0.31088758
H        1.24747304      -1.15620592      -1.66238204
H        1.28961670       0.60300652       1.63947952
H        0.25374871      -0.79746697       1.84662629
H       -0.45377261       0.83390137       1.75634157
H        2.03798237       1.60432231      -1.59373707
17
Frame=4 idx=011561 GeodesicLength=0.5355962165190334 rxn_smarts="[C:1]([O:2][C:3]([C:4]([H:11])([H:12])[H:13])([C:5]([H:14])([H:15])[H:16])[C:6]#[C:7][H:17])([H:8])([H:9])[H:10]>>[C:1]([O:2][C:3]([C:4]([H:11])([H:12])[H:13])([C:5]([H:14])([H:15])[H:16])[C:7](=[C:6])[H:17])([H:8])([H:9])[H:10]"
C       -2.20122497      -0.18375535      -0.01160168
O       -0.96394138      -0.62565698      -0.53115877
C        0.21730421       0.00909517      -0.16609087
C        1.28965524      -0.99908873      -0.60119218
C        0.33067046       0.19190149       1.34605403
C       -0.08910194       1.67745495      -0.98355833
C        1.12990544       1.54037979      -1.03617129
H       -2.28887473       0.89852323      -0.14387780
H       -2.97383868      -0.69066751      -0.58494413
H       -2.30422407      -0.41514194       1.05194187
H        1.11309361      -1.94233165      -0.07977763
H        2.30047501      -0.69919472      -0.32968205
H        1.22447784      -1.18429832      -1.67188710
H        1.30659950       0.59000195       1.61738214
H        0.24748154      -0.78043394       1.84224318
H       -0.43221098       0.86267439       1.73071658
H        2.09375390       1.75053817      -1.44839598
17
Frame=5 idx=011561 GeodesicLength=0.658995554775696 rxn_smarts="[C:1]([O:2][C:3]([C:4]([H:11])([H:12])[H:13])([C:5]([H:14])([H:15])[H:16])[C:6]#[C:7][H:17])([H:8])([H:9])[H:10]>>[C:1]([O:2][C:3]([C:4]([H:11])([H:12])[H:13])([C:5]([H:14])([H:15])[H:16])[C:7](=[C:6])[H:17])([H:8])([H:9])[H:10]"
C       -2.20514572      -0.18423041       0.00239349
O       -0.97431820      -0.64961967      -0.51099971
C        0.21492350      -0.00130535      -0.18055728
C        1.27802221      -1.02136880      -0.60996473
C        0.34050480       0.19445440       1.33002349
C       -0.08135515       1.59512803      -1.13333794
C        1.13615673       1.56279512      -0.99743176
H       -2.28430903       0.89549221      -0.15708907
H       -2.98592311      -0.69697778      -0.55430095
H       -2.30266726      -0.38312358       1.07305036
H        1.10576079      -1.95912717      -0.07735470
H        2.29326742      -0.72399477      -0.35251198
H        1.20237344      -1.22067304      -1.67744710
H        1.32554724       0.57124059       1.59897568
H        0.24280046      -0.76907964       1.84037805
H       -0.40801995       0.88490968       1.70867472
H        2.10238184       1.90548018      -1.30250056
17
Frame=6 idx=011561 GeodesicLength=0.7792042639720042 rxn_smarts="[C:1]([O:2][C:3]([C:4]([H:11])([H:12])[H:13])([C:5]([H:14])([H:15])[H:16])[C:6]#[C:7][H:17])([H:8])([H:9])[H:10]>>[C:1]([O:2][C:3]([C:4]([H:11])([H:12])[H:13])([C:5]([H:14])([H:15])[H:16])[C:7](=[C:6])[H:17])([H:8])([H:9])[H:10]"
C       -2.20496221      -0.17550072       0.01061016
O       -0.98157103      -0.67210883      -0.49027210
C        0.21608646      -0.01503949      -0.19128933
C        1.27005018      -1.04631562      -0.61569417
C        0.35311983       0.19129852       1.31796434
C       -0.05409313       1.50192029      -1.27409394
C        1.12631870       1.58520803      -0.96248391
H       -2.27052382       0.90069833      -0.17894030
H       -2.99449660      -0.69147636      -0.53043363
H       -2.30126441      -0.33994716       1.08729046
H        1.10454084      -1.97760159      -0.06984797
H        2.28902568      -0.74544673      -0.37760079
H        1.18144716      -1.26513934      -1.67837310
H        1.34654038       0.54768114       1.58418036
H        0.24022589      -0.76373395       1.84081240
H       -0.38138034       0.89943020       1.69211527
H        2.06093640       2.06607327      -1.16394373
17
Frame=7 idx=011561 GeodesicLength=0.8964628355013479 rxn_smarts="[C:1]([O:2][C:3]([C:4]([H:11])([H:12])[H:13])([C:5]([H:14])([H:15])[H:16])[C:6]#[C:7][H:17])([H:8])([H:9])[H:10]>>[C:1]([O:2][C:3]([C:4]([H:11])([H:12])[H:13])([C:5]([H:14])([H:15])[H:16])[C:7](=[C:6])[H:17])([H:8])([H:9])[H:10]"
C       -2.20043367      -0.15832138       0.01287079
O       -0.98559893      -0.69059597      -0.47094242
C        0.22136637      -0.03080786      -0.19820832
C        1.26526415      -1.07389677      -0.61803568
C        0.36835056       0.18259851       1.31026885
C       -0.00751802       1.40438458      -1.39838203
C        1.10332600       1.60796435      -0.93063465
H       -2.24880053       0.91334544      -0.20729434
H       -2.99905388      -0.67460111      -0.51434714
H       -2.29871954      -0.28866260       1.09413975
H        1.10681900      -1.99802267      -0.05825841
H        2.28727948      -0.76614638      -0.40253850
H        1.16222028      -1.31595836      -1.67439559
H        1.36931073       0.52001761       1.57335599
H        0.23961458      -0.76468137       1.84321172
H       -0.35285888       0.90563910       1.68249864
H        1.96943228       2.22774488      -1.04330867
17
Frame=8 idx=011561 GeodesicLength=1.0100847976600613 rxn_smarts="[C:1]([O:2][C:3]([C:4]([H:11])([H:12])[H:13])([C:5]([H:14])([H:15])[H:16])[C:6]#[C:7][H:17])([H:8])([H:9])[H:10]>>[C:1]([O:2][C:3]([C:4]([H:11])([H:12])[H:13])([C:5]([H:14])([H:15])[H:16])[C:7](=[C:6])[H:17])([H:8])([H:9])[H:10]"
C       -2.19184353      -0.13477201       0.01036590
O       -0.98700754      -0.70362968      -0.45521871
C        0.23032373      -0.04711067      -0.20328453
C        1.26238563      -1.10380541      -0.61810910
C        0.38610318       0.17105927       1.30486036
C        0.05586445       1.30949586      -1.50402911
C        1.07004483       1.63034517      -0.90389137
H       -2.22159353       0.93136306      -0.23954378
H       -2.99986345      -0.65007359      -0.50336910
H       -2.29291767      -0.23330990       1.09487932
H        1.10990645      -2.01995930      -0.04395603
H        2.28698445      -0.78844096      -0.42671131
H        1.14423923      -1.37102898      -1.66685171
H        1.39384294       0.49150572       1.56379869
H        0.24140797      -0.76890731       1.84627190
H       -0.32256729       0.90645358       1.67773322
H        1.83469017       2.38081516      -0.93294465
17
Frame=9 idx=011561 GeodesicLength=1.122289223672113 rxn_smarts="[C:1]([O:2][C:3]([C:4]([H:11])([H:12])[H:13])([C:5]([H:14])([H:15])[H:16])[C:6]#[C:7][H:17])([H:8])([H:9])[H:10]>>[C:1]([O:2][C:3]([C:4]([H:11])([H:12])[H:13])([C:5]([H:14])([H:15])[H:16])[C:7](=[C:6])[H:17])([H:8])([H:9])[H:10]"
C       -2.17928442      -0.10571811       0.00348378
O       -0.98536645      -0.71028242      -0.44318870
C        0.24336575      -0.06301805      -0.20468588
C        1.26158566      -1.13461510      -0.61553701
C        0.40525603       0.15504956       1.30402839
C        0.13486209       1.22267139      -1.58587318
C        1.02951872       1.65436041      -0.87616468
H       -2.19020230       0.95433483      -0.27359295
H       -2.99642061      -0.61744738      -0.49943977
H       -2.28442323      -0.17566746       1.08996362
H        1.11211244      -2.04358199      -0.02950390
H        2.28840412      -0.81326450      -0.44662791
H        1.12880446      -1.42511223      -1.65638657
H        1.41897452       0.45987094       1.55909034
H        0.24394775      -0.77913262       1.85038571
H       -0.29197525       0.89993879       1.68039303
H        1.66084073       2.52161394      -0.85634432
17
Frame=10 idx=011561 GeodesicLength=1.2324899112400582 rxn_smarts="[C:1]([O:2][C:3]([C:4]([H:11])([H:12])[H:13])([C:5]([H:14])([H:15])[H:16])[C:6]#[C:7][H:17])([H:8])([H:9])[H:10]>>[C:1]([O:2][C:3]([C:4]([H:11])([H:12])[H:13])([C:5]([H:14])([H:15])[H:16])[C:7](=[C:6])[H:17])([H:8])([H:9])[H:10]"
C       -2.16352488      -0.07356988      -0.00588300
O       -0.98179162      -0.71115933      -0.43647993
C        0.25903028      -0.07771569      -0.20688212
C        1.26118793      -1.16645885      -0.61254796
C        0.42627780       0.14032349       1.30251418
C        0.22648205       1.14672300      -1.65109797
C        0.98315022       1.67699043      -0.85410739
H       -2.15779169       0.97936147      -0.30969153
H       -2.99020850      -0.58366992      -0.49488342
H       -2.27079665      -0.11694133       1.08193441
H        1.11221242      -2.06754382      -0.01456720
H        2.29040992      -0.84182545      -0.46489925
H        1.11390294      -1.47879519      -1.64517317
H        1.44543081       0.43142008       1.55258564
H        0.24846216      -0.78778639       1.85362158
H       -0.25994364       0.89347445       1.68347242
H        1.45751046       2.63717293      -0.77791530
17
Frame=11 idx=011561 GeodesicLength=1.3459617000736168 rxn_smarts="[C:1]([O:2][C:3]([C:4]([H:11])([H:12])[H:13])([C:5]([H:14])([H:15])[H:16])[C:6]#[C:7][H:17])([H:8])([H:9])[H:10]>>[C:1]([O:2][C:3]([C:4]([H:11])([H:12])[H:13])([C:5]([H:14])([H:15])[H:16])[C:7](=[C:6])[H:17])([H:8])([H:9])[H:10]"
C       -2.14475244      -0.03803933      -0.01729506
O       -0.97561779      -0.70601877      -0.43308303
C        0.27766618      -0.09073241      -0.20526992
C        1.26203289      -1.19686256      -0.60829896
C        0.44762573       0.12168891       1.30571593
C        0.33150358       1.08376338      -1.69297442
C        0.92894144       1.70279260      -0.82776789
H       -2.12449672       1.00759971      -0.34518079
H       -2.98060715      -0.54490520      -0.49424317
H       -2.25458036      -0.05785292       1.07109222
H        1.10946118      -2.09249032      -0.00331602
H        2.29380754      -0.87259727      -0.47740341
H        1.10188603      -1.52475517      -1.63427435
H        1.47159450       0.39992552       1.55144642
H        0.25290547      -0.80245561       1.85733483
H       -0.22879812       0.88038968       1.69394283
H        1.23142805       2.73054974      -0.74042521
17
Frame=12 idx=011561 GeodesicLength=1.4605042013274536 rxn_smarts="[C:1]([O:2][C:3]([C:4]([H:11])([H:12])[H:13])([C:5]([H:14])([H:15])[H:16])[C:6]#[C:7][H:17])([H:8])([H:9])[H:10]>>[C:1]([O:2][C:3]([C:4]([H:11])([H:12])[H:13])([C:5]([H:14])([H:15])[H:16])[C:7](=[C:6])[H:17])([H:8])([H:9])[H:10]"
C       -2.12392845      -0.00132148      -0.02959669
O       -0.96776272      -0.69555130      -0.43485258
C        0.29799048      -0.10171070      -0.20481315
C        1.26252718      -1.22670458      -0.60457934
C        0.46983537       0.10577926       1.30772594
C        0.44760435       1.03569507      -1.71849901
C        0.87200480       1.72591536      -0.80667578
H       -2.09372031       1.03598513      -0.38237113
H       -2.96929878      -0.50824896      -0.48982001
H       -2.23353014       0.00188280       1.05913989
H        1.10276479      -2.11690809       0.00629218
H        2.29759715      -0.90747890      -0.48646663
H        1.09051274      -1.56560986      -1.62514578
H        1.49821436       0.37240211       1.54862742
H        0.25802927      -0.81393039       1.85991409
H       -0.19690231       0.86983274       1.70303514
H        0.98806221       2.78997179      -0.70191454
17
Frame=13 idx=011561 GeodesicLength=1.5795616214152288 rxn_smarts="[C:1]([O:2][C:3]([C:4]([H:11])([H:12])[H:13])([C:5]([H:14])([H:15])[H:16])[C:6]#[C:7][H:17])([H:8])([H:9])[H:10]>>[C:1]([O:2][C:3]([C:4]([H:11])([H:12])[H:13])([C:5]([H:14])([H:15])[H:16])[C:7](=[C:6])[H:17])([H:8])([H:9])[H:10]"
C       -2.10225087       0.03558323      -0.04093608
O       -0.95829895      -0.67993214      -0.43944872
C        0.31920640      -0.10991424      -0.20069492
C        1.26301379      -1.25266811      -0.60115700
C        0.49082922       0.08734163       1.31403020
C        0.57431980       1.00445992      -1.71923374
C        0.80783909       1.75069775      -0.78272219
H       -2.06642939       1.06527993      -0.41478946
H       -2.95629566      -0.47081659      -0.48598660
H       -2.21101043       0.05703133       1.04780887
H        1.09155843      -2.14093899       0.00909003
H        2.30188672      -0.94320707      -0.48892760
H        1.08216033      -1.59298418      -1.61985259
H        1.52305656       0.34301943       1.55107807
H        0.26212361      -0.83025595       1.86246708
H       -0.16748555       0.85438996       1.71841273
H        0.74577692       2.82291411      -0.70913808
17
Frame=14 idx=011561 GeodesicLength=1.7003847429122576 rxn_smarts="[C:1]([O:2][C:3]([C:4]([H:11])([H:12])[H:13])([C:5]([H:14])([H:15])[H:16])[C:6]#[C:7][H:17])([H:8])([H:9])[H:10]>>[C:1]([O:2][C:3]([C:4]([H:11])([H:12])[H:13])([C:5]([H:14])([H:15])[H:16])[C:7](=[C:6])[H:17])([H:8])([H:9])[H:10]"
C       -2.08079863       0.07134672      -0.05112592
O       -0.94807440      -0.66036757      -0.44737206
C        0.34028487      -0.11558151      -0.19663174
C        1.26261263      -1.27549030      -0.59930677
C        0.51094472       0.07128429       1.32021581
C        0.70817927       0.98984667      -1.70028964
C        0.74443837       1.77143510      -0.76400165
H       -2.04488853       1.09289434      -0.44651872
H       -2.94307018      -0.43772024      -0.47748104
H       -2.18611161       0.11059318       1.03758298
H        1.07585002      -2.16308898       0.00717346
H        2.30592281      -0.98070056      -0.48702970
H        1.07545168      -1.60965394      -1.61901418
H        1.54671500       0.31619366       1.55395005
H        0.26491899      -0.84412751       1.86420762
H       -0.13879004       0.84181850       1.73268097
H        0.50641503       2.82131817      -0.72703948
17
Frame=15 idx=011561 GeodesicLength=1.8235981963981855 rxn_smarts="[C:1]([O:2][C:3]([C:4]([H:11])([H:12])[H:13])([C:5]([H:14])([H:15])[H:16])[C:6]#[C:7][H:17])([H:8])([H:9])[H:10]>>[C:1]([O:2][C:3]([C:4]([H:11])([H:12])[H:13])([C:5]([H:14])([H:15])[H:16])[C:7](=[C:6])[H:17])([H:8])([H:9])[H:10]"
C       -2.06131751       0.10417673      -0.05764060
O       -0.93805255      -0.63776922      -0.45657620
C        0.35961678      -0.11838013      -0.18971839
C        1.26133734      -1.29252408      -0.59948799
C        0.52844085       0.05445582       1.32941748
C        0.84693214       0.99169798      -1.65559559
C        0.67821029       1.79016241      -0.74769020
H       -2.02999136       1.11907513      -0.46993772
H       -2.93047605      -0.40795687      -0.46665994
H       -2.16200230       0.15575011       1.03110233
H        1.05634078      -2.18271201      -0.00305101
H        2.30917396      -1.01633168      -0.48058399
H        1.07174800      -1.61045136      -1.62405169
H        1.56736547       0.28842125       1.56112880
H        0.26550597      -0.86049977       1.86564141
H       -0.11322467       0.82766019       1.75032012
H        0.29039284       2.79522550      -0.78661681
17
Frame=16 idx=011561 GeodesicLength=1.9471603704316218 rxn_smarts="[C:1]([O:2][C:3]([C:4]([H:11])([H:12])[H:13])([C:5]([H:14])([H:15])[H:16])[C:6]#[C:7][H:17])([H:8])([H:9])[H:10]>>[C:1]([O:2][C:3]([C:4]([H:11])([H:12])[H:13])([C:5]([H:14])([H:15])[H:16])[C:7](=[C:6])[H:17])([H:8])([H:9])[H:10]"
C       -2.04457106       0.13377939      -0.06061368
O       -0.92914420      -0.61364120      -0.46611163
C        0.37641296      -0.11899055      -0.18159081
C        1.25922838      -1.30397480      -0.60238950
C        0.54337493       0.03877485       1.33968790
C        0.98581292       1.00772848      -1.58774160
C        0.61443594       1.80360081      -0.73867970
H       -2.02160035       1.14285939      -0.48727841
H       -2.91951889      -0.38279991      -0.45201948
H       -2.13909655       0.19519800       1.02827583
H        1.03436087      -2.19882669      -0.02053963
H        2.31127265      -1.04926002      -0.47175656
H        1.07085577      -1.59702148      -1.63468009
H        1.58522112       0.26095535       1.57064389
H        0.26345586      -0.87615162       1.86667520
H       -0.08969051       0.81561143       1.76777768
H        0.09919016       2.74215859      -0.86965938
