15
Frame=0 idx=011087 GeodesicLength=0.0 rxn_smarts="[C:1]([c:2]1[c:3]([H:11])[c:4]([N:5]([H:12])[H:13])[c:6]([H:14])[n:7]1[H:15])([H:8])([H:9])[H:10]>>[C+:1]([c:2]1[c:3]([H:11])[c:4]([N:5]([H:12])[H:13])[c-:6][n:7]1[H:15])([H:8])[H:9].[H:10][H:14]"
C        1.97782556      -0.27231772      -0.12019161
C        0.84717095      -0.49985957       0.66996300
C       -0.30806957      -1.14746955       0.16108588
C       -1.23508827      -0.13367958       0.08927525
N       -2.46186544      -0.13478821      -0.46971508
C       -0.68713588       1.12747793       0.66448348
N        0.43552435       0.62585577       1.33789016
H        2.78900059       0.34462100       0.25401202
H        2.25850815      -0.99934160      -0.87280957
H        1.08093241       0.74662704      -0.77094680
H       -0.32077359      -2.10631107      -0.33532001
H       -2.94078766       0.74657153      -0.51479516
H       -2.74560779      -0.86071169      -1.10000244
H        0.17587109       1.25957428      -0.58908525
H        1.13449509       1.30375139       1.59615607
15
Frame=1 idx=011087 GeodesicLength=0.10603156187025056 rxn_smarts="[C:1]([c:2]1[c:3]([H:11])[c:4]([N:5]([H:12])[H:13])[c:6]([H:14])[n:7]1[H:15])([H:8])([H:9])[H:10]>>[C+:1]([c:2]1[c:3]([H:11])[c:4]([N:5]([H:12])[H:13])[c-:6][n:7]1[H:15])([H:8])[H:9].[H:10][H:14]"
C        1.98287975      -0.27318979      -0.12483594
C        0.85047123      -0.49731434       0.66683617
C       -0.30756025      -1.14576984       0.16505524
C       -1.24023615      -0.13509136       0.09957137
N       -2.46275118      -0.13587295      -0.47277927
C       -0.68886399       1.12587750       0.66355995
N        0.43331314       0.62852363       1.33571795
H        2.80205323       0.32136962       0.26873648
H        2.27200780      -1.02220035      -0.85259739
H        1.08183055       0.76006515      -0.80218604
H       -0.31687650      -2.09833980      -0.34365883
H       -2.96097991       0.73559644      -0.48382582
H       -2.73676962      -0.85744026      -1.11218645
H        0.16196378       1.29012032      -0.61511887
H        1.12951811       1.30366605       1.60771146
15
Frame=2 idx=011087 GeodesicLength=0.21196597786294485 rxn_smarts="[C:1]([c:2]1[c:3]([H:11])[c:4]([N:5]([H:12])[H:13])[c:6]([H:14])[n:7]1[H:15])([H:8])([H:9])[H:10]>>[C+:1]([c:2]1[c:3]([H:11])[c:4]([N:5]([H:12])[H:13])[c-:6][n:7]1[H:15])([H:8])[H:9].[H:10][H:14]"
C        1.98818381      -0.27415801      -0.12934255
C        0.85385840      -0.49488590       0.66373721
C       -0.30692115      -1.14398834       0.16873642
C       -1.24509052      -0.13633581       0.10952220
N       -2.46330370      -0.13627945      -0.47604313
C       -0.69010654       1.12444173       0.66202387
N        0.43110429       0.63105981       1.33356766
H        2.81469796       0.29721343       0.28390073
H        2.28523347      -1.04442404      -0.83169690
H        1.08279191       0.77360148      -0.83427820
H       -0.31300887      -2.09008999      -0.35226805
H       -2.98090036       0.72337448      -0.45287377
H       -2.72844901      -0.85429817      -1.12310554
H        0.14752812       1.32167969      -0.64172132
H        1.12438219       1.30308908       1.61984138
15
Frame=3 idx=011087 GeodesicLength=0.3178182385032454 rxn_smarts="[C:1]([c:2]1[c:3]([H:11])[c:4]([N:5]([H:12])[H:13])[c:6]([H:14])[n:7]1[H:15])([H:8])([H:9])[H:10]>>[C+:1]([c:2]1[c:3]([H:11])[c:4]([N:5]([H:12])[H:13])[c-:6][n:7]1[H:15])([H:8])[H:9].[H:10][H:14]"
C        1.99376978      -0.27527188      -0.13361827
C        0.85733125      -0.49261074       0.66070581
C       -0.30615482      -1.14212131       0.17210729
C       -1.24962800      -0.13738058       0.11907453
N       -2.46348990      -0.13593105      -0.47958602
C       -0.69082232       1.12317251       0.65984977
N        0.42888948       0.63342641       1.33147964
H        2.82687678       0.27221972       0.29948241
H        2.29809455      -1.06591529      -0.81025977
H        1.08388344       0.78722861      -0.86721752
H       -0.30916994      -2.08155681      -0.36116583
H       -3.00038459       0.70999495      -0.42216613
H       -2.72083355      -0.85154833      -1.13244199
H        0.13258949       1.35435034      -0.66887922
H        1.11904835       1.30194345       1.63263531
15
Frame=4 idx=011087 GeodesicLength=0.42359788330496984 rxn_smarts="[C:1]([c:2]1[c:3]([H:11])[c:4]([N:5]([H:12])[H:13])[c:6]([H:14])[n:7]1[H:15])([H:8])([H:9])[H:10]>>[C+:1]([c:2]1[c:3]([H:11])[c:4]([N:5]([H:12])[H:13])[c-:6][n:7]1[H:15])([H:8])[H:9].[H:10][H:14]"
C        1.99967714      -0.27654511      -0.13758332
C        0.86089801      -0.49054473       0.65775332
C       -0.30525229      -1.14017306       0.17508744
C       -1.25382465      -0.13820719       0.12817334
N       -2.46329031      -0.13475020      -0.48346429
C       -0.69097871       1.12203228       0.65708870
N        0.42665954       0.63552056       1.32953386
H        2.83855203       0.24647464       0.31547937
H        2.31051019      -1.08651729      -0.78854403
H        1.08516906       0.80101668      -0.90094554
H       -0.30533437      -2.07271129      -0.37048098
H       -3.01895923       0.69583007      -0.39257984
H       -2.71443804      -0.84980313      -1.13929617
H        0.11714254       1.38829653      -0.69647281
H        1.11346907       1.30008123       1.64625096
15
Frame=5 idx=011087 GeodesicLength=0.5293304381180514 rxn_smarts="[C:1]([c:2]1[c:3]([H:11])[c:4]([N:5]([H:12])[H:13])[c:6]([H:14])[n:7]1[H:15])([H:8])([H:9])[H:10]>>[C+:1]([c:2]1[c:3]([H:11])[c:4]([N:5]([H:12])[H:13])[c-:6][n:7]1[H:15])([H:8])[H:9].[H:10][H:14]"
C        2.00595349      -0.27805637      -0.14110044
C        0.86454303      -0.48871175       0.65492798
C       -0.30422379      -1.13811903       0.17763164
C       -1.25764882      -0.13874808       0.13668029
N       -2.46264277      -0.13263332      -0.48788461
C       -0.69052021       1.12106290       0.65362058
N        0.42438619       0.63734461       1.32772808
H        2.84970209       0.22003037       0.33193394
H        2.32244888      -1.10623287      -0.76664866
H        1.08678606       0.81495312      -0.93547905
H       -0.30149814      -2.06354041      -0.38023550
H       -3.03671773       0.68086890      -0.36386517
H       -2.70940908      -0.84931388      -1.14350795
H        0.10127243       1.42364283      -0.72454144
H        1.10756836       1.29745298       1.66074033
15
Frame=6 idx=011087 GeodesicLength=0.6350280191650799 rxn_smarts="[C:1]([c:2]1[c:3]([H:11])[c:4]([N:5]([H:12])[H:13])[c:6]([H:14])[n:7]1[H:15])([H:8])([H:9])[H:10]>>[C+:1]([c:2]1[c:3]([H:11])[c:4]([N:5]([H:12])[H:13])[c-:6][n:7]1[H:15])([H:8])[H:9].[H:10][H:14]"
C        2.01263978      -0.27982092      -0.14407875
C        0.86826939      -0.48716195       0.65224971
C       -0.30305957      -1.13596507       0.17966149
C       -1.26107849      -0.13898782       0.14452112
N       -2.46152221      -0.12953961      -0.49294662
C       -0.68941230       1.12023608       0.64945743
N        0.42204965       0.63881803       1.32611876
H        2.86031577       0.19296714       0.34886556
H        2.33387465      -1.12498614      -0.74479229
H        1.08880897       0.82910928      -0.97078496
H       -0.29762846      -2.05401851      -0.39054140
H       -3.05330697       0.66543077      -0.33666057
H       -2.70618498      -0.85057705      -1.14429645
H        0.08495990       1.46055728      -0.75299571
H        1.10127488       1.29393848       1.67622269
15
Frame=7 idx=011087 GeodesicLength=0.740737924287707 rxn_smarts="[C:1]([c:2]1[c:3]([H:11])[c:4]([N:5]([H:12])[H:13])[c:6]([H:14])[n:7]1[H:15])([H:8])([H:9])[H:10]>>[C+:1]([c:2]1[c:3]([H:11])[c:4]([N:5]([H:12])[H:13])[c-:6][n:7]1[H:15])([H:8])[H:9].[H:10][H:14]"
C        2.01971304      -0.28188949      -0.14648191
C        0.87209252      -0.48590303       0.64980779
C       -0.30176480      -1.13375459       0.18134455
C       -1.26413365      -0.13897496       0.15183652
N       -2.46000336      -0.12563531      -0.49842766
C       -0.68763861       1.11953484       0.64461999
N        0.41968260       0.63998189       1.32472501
H        2.87037282       0.16539565       0.36613450
H        2.34470492      -1.14289643      -0.72310188
H        1.09116503       0.84338976      -1.00695745
H       -0.29373132      -2.04422339      -0.40116943
H       -3.06870398       0.64950108      -0.31081623
H       -2.70430997      -0.85319931      -1.14232537
H        0.06798898       1.49909269      -0.78183497
H        1.09456577       1.28958057       1.69264655
15
Frame=8 idx=011087 GeodesicLength=0.8464608277960209 rxn_smarts="[C:1]([c:2]1[c:3]([H:11])[c:4]([N:5]([H:12])[H:13])[c:6]([H:14])[n:7]1[H:15])([H:8])([H:9])[H:10]>>[C+:1]([c:2]1[c:3]([H:11])[c:4]([N:5]([H:12])[H:13])[c-:6][n:7]1[H:15])([H:8])[H:9].[H:10][H:14]"
C        2.02703155      -0.28429923      -0.14844160
C        0.87607744      -0.48493887       0.64777809
C       -0.30034135      -1.13165057       0.18322527
C       -1.26690522      -0.13894345       0.15924032
N       -2.45834771      -0.12151901      -0.50342613
C       -0.68524954       1.11883553       0.63936853
N        0.41741591       0.64090795       1.32364179
H        2.87982084       0.13752098       0.38326086
H        2.35470521      -1.16007077      -0.70181518
H        1.09336757       0.85757467      -1.04417734
H       -0.28986218      -2.03442948      -0.41139510
H       -3.08270488       0.63319905      -0.28646845
H       -2.70232205      -0.85582463      -1.13961545
H        0.04973975       1.53908397      -0.81100672
H        1.08757467       1.28455385       1.70983112
15
Frame=9 idx=011087 GeodesicLength=0.9525380308155482 rxn_smarts="[C:1]([c:2]1[c:3]([H:11])[c:4]([N:5]([H:12])[H:13])[c:6]([H:14])[n:7]1[H:15])([H:8])([H:9])[H:10]>>[C+:1]([c:2]1[c:3]([H:11])[c:4]([N:5]([H:12])[H:13])[c-:6][n:7]1[H:15])([H:8])[H:9].[H:10][H:14]"
C        2.03457178      -0.28720418      -0.14994746
C        0.88028349      -0.48428960       0.64631239
C       -0.29875333      -1.12975180       0.18563855
C       -1.26937209      -0.13900628       0.16701650
N       -2.45678502      -0.11767889      -0.50722342
C       -0.68217557       1.11809123       0.63368464
N        0.41535704       0.64172212       1.32281390
H        2.88873038       0.10947920       0.40008777
H        2.36387815      -1.17681166      -0.68083483
H        1.09518038       0.87128725      -1.08279302
H       -0.28602163      -2.02483838      -0.42077224
H       -3.09550403       0.61649666      -0.26300424
H       -2.69898599      -0.85716237      -1.13808300
H        0.02923660       1.58060353      -0.84040368
H        1.08035984       1.27906318       1.72750811
15
Frame=10 idx=011087 GeodesicLength=1.058624527838515 rxn_smarts="[C:1]([c:2]1[c:3]([H:11])[c:4]([N:5]([H:12])[H:13])[c:6]([H:14])[n:7]1[H:15])([H:8])([H:9])[H:10]>>[C+:1]([c:2]1[c:3]([H:11])[c:4]([N:5]([H:12])[H:13])[c-:6][n:7]1[H:15])([H:8])[H:9].[H:10][H:14]"
C        2.04226268      -0.29052575      -0.15108791
C        0.88474628      -0.48395948       0.64545398
C       -0.29699336      -1.12813264       0.18877160
C       -1.27157862      -0.13927506       0.17543365
N       -2.45530582      -0.11430339      -0.50965351
C       -0.67848869       1.11720097       0.62776990
N        0.41354994       0.64238512       1.32235304
H        2.89710408       0.08134502       0.41640740
H        2.37214701      -1.19307213      -0.66040650
H        1.09633007       0.88456365      -1.12278195
H       -0.28221452      -2.01556760      -0.42904407
H       -3.10690971       0.59983017      -0.24101505
H       -2.69407477      -0.85714267      -1.13795795
H        0.00645546       1.62354964      -0.86998262
H        1.07296995       1.27310414       1.74573999
15
Frame=11 idx=011087 GeodesicLength=1.1647215091819705 rxn_smarts="[C:1]([c:2]1[c:3]([H:11])[c:4]([N:5]([H:12])[H:13])[c:6]([H:14])[n:7]1[H:15])([H:8])([H:9])[H:10]>>[C+:1]([c:2]1[c:3]([H:11])[c:4]([N:5]([H:12])[H:13])[c-:6][n:7]1[H:15])([H:8])[H:9].[H:10][H:14]"
C        2.05018085      -0.29429829      -0.15175732
C        0.88946533      -0.48397073       0.64518961
C       -0.29503581      -1.12675143       0.19246250
C       -1.27346073      -0.13966703       0.18427404
N       -2.45378927      -0.11125664      -0.51105054
C       -0.67412703       1.11618670       0.62148953
N        0.41196840       0.64288498       1.32221516
H        2.90504002       0.05307384       0.43242603
H        2.37967883      -1.20896577      -0.64045378
H        1.09693377       0.89740207      -1.16422729
H       -0.27838776      -2.00657120      -0.43640707
H       -3.11706743       0.58332303      -0.22033852
H       -2.68800643      -0.85617700      -1.13870000
H       -0.01870426       1.66815977      -0.89968243
H        1.06531151       1.26662771       1.76456009
15
Frame=12 idx=011087 GeodesicLength=1.2708181670912508 rxn_smarts="[C:1]([c:2]1[c:3]([H:11])[c:4]([N:5]([H:12])[H:13])[c:6]([H:14])[n:7]1[H:15])([H:8])([H:9])[H:10]>>[C+:1]([c:2]1[c:3]([H:11])[c:4]([N:5]([H:12])[H:13])[c-:6][n:7]1[H:15])([H:8])[H:9].[H:10][H:14]"
C        2.05839019      -0.29855569      -0.15187732
C        0.89444652      -0.48434797       0.64551081
C       -0.29286021      -1.12558151       0.19658743
C       -1.27496377      -0.14011650       0.19336623
N       -2.45212952      -0.10842560      -0.51169124
C       -0.66903274       1.11505318       0.61474820
N        0.41059910       0.64320358       1.32236985
H        2.91262412       0.02460179       0.44831682
H        2.38660342      -1.22457945      -0.62091474
H        1.09706166       0.90980568      -1.20721622
H       -0.27449461      -1.99781636      -0.44301497
H       -3.12603018       0.56712383      -0.20094645
H       -2.68113026      -0.85464907      -1.13982120
H       -0.04640490       1.71468500      -0.92939870
H        1.05732118       1.25959909       1.78398151
15
Frame=13 idx=011087 GeodesicLength=1.3768865377289108 rxn_smarts="[C:1]([c:2]1[c:3]([H:11])[c:4]([N:5]([H:12])[H:13])[c:6]([H:14])[n:7]1[H:15])([H:8])([H:9])[H:10]>>[C+:1]([c:2]1[c:3]([H:11])[c:4]([N:5]([H:12])[H:13])[c-:6][n:7]1[H:15])([H:8])[H:9].[H:10][H:14]"
C        2.06693562      -0.30333155      -0.15139380
C        0.89970816      -0.48511991       0.64642685
C       -0.29044202      -1.12462024       0.20109051
C       -1.27604311      -0.14059373       0.20262248
N       -2.45024316      -0.10577231      -0.51174125
C       -0.66315477       1.11378102       0.60750558
N        0.40945374       0.64332417       1.32280341
H        2.91992386      -0.00411329       0.46417278
H        2.39300971      -1.24000023      -0.60176001
H        1.09669273       0.92176322      -1.25184918
H       -0.27049339      -1.98930542      -0.44892816
H       -3.13375557       0.55146087      -0.18296289
H       -2.67364089      -0.85282961      -1.14100935
H       -0.07690640       1.76336256      -0.95898000
H        1.04895549       1.25199444       1.80400303
15
Frame=14 idx=011087 GeodesicLength=1.482927837724294 rxn_smarts="[C:1]([c:2]1[c:3]([H:11])[c:4]([N:5]([H:12])[H:13])[c:6]([H:14])[n:7]1[H:15])([H:8])([H:9])[H:10]>>[C+:1]([c:2]1[c:3]([H:11])[c:4]([N:5]([H:12])[H:13])[c-:6][n:7]1[H:15])([H:8])[H:9].[H:10][H:14]"
C        2.07588221      -0.30869388      -0.15023903
C        0.90526649      -0.48630440       0.64794156
C       -0.28775952      -1.12384384       0.20589855
C       -1.27664061      -0.14103189       0.21189722
N       -2.44804422      -0.10320859      -0.51140507
C       -0.65641825       1.11238575       0.59964876
N        0.40855020       0.64326985       1.32345243
H        2.92701499      -0.03315714       0.48013777
H        2.39901575      -1.25538087      -0.58285576
H        1.09586326       0.93320677      -1.29828628
H       -0.26634480      -1.98103178      -0.45421960
H       -3.14031750       0.53635628      -0.16623641
H       -2.66568157      -0.85087692      -1.14208188
H       -0.11055160       1.81449169      -0.98822727
H        1.04016518       1.24381897       1.82457500
15
Frame=15 idx=011087 GeodesicLength=1.5889093318239866 rxn_smarts="[C:1]([c:2]1[c:3]([H:11])[c:4]([N:5]([H:12])[H:13])[c:6]([H:14])[n:7]1[H:15])([H:8])([H:9])[H:10]>>[C+:1]([c:2]1[c:3]([H:11])[c:4]([N:5]([H:12])[H:13])[c-:6][n:7]1[H:15])([H:8])[H:9].[H:10][H:14]"
C        2.08527963      -0.31471091      -0.14836575
C        0.91114761      -0.48792319       0.65007170
C       -0.28478839      -1.12324888       0.21099296
C       -1.27670448      -0.14139134       0.22110837
N       -2.44545299      -0.10069742      -0.51082081
C       -0.64875077       1.11086111       0.59110585
N        0.40792400       0.64306136       1.32426872
H        2.93396395      -0.06261155       0.49630425
H        2.40469871      -1.27085387      -0.56411158
H        1.09452477       0.94405999      -1.34669540
H       -0.26201324      -1.97302173      -0.45888721
H       -3.14569608       0.52192721      -0.15079550
H       -2.65730453      -0.84891185      -1.14294150
H       -0.14775073       1.86836866      -1.01687063
H        1.03092255       1.23509241       1.84563652
15
Frame=16 idx=011087 GeodesicLength=1.6948016862757675 rxn_smarts="[C:1]([c:2]1[c:3]([H:11])[c:4]([N:5]([H:12])[H:13])[c:6]([H:14])[n:7]1[H:15])([H:8])([H:9])[H:10]>>[C+:1]([c:2]1[c:3]([H:11])[c:4]([N:5]([H:12])[H:13])[c-:6][n:7]1[H:15])([H:8])[H:9].[H:10][H:14]"
C        2.09518378      -0.32146741      -0.14572571
C        0.91738131      -0.48999509       0.65283549
C       -0.28150278      -1.12283098       0.21636725
C       -1.27617651      -0.14162563       0.23016803
N       -2.44238655      -0.09819943      -0.51012535
C       -0.64006849       1.10920646       0.58178733
N        0.40762218       0.64273661       1.32518558
H        2.94083701      -0.09258150       0.51277249
H        2.41013577      -1.28657918      -0.54540591
H        1.09261450       0.95421655      -1.39727628
H       -0.25746350      -1.96531210      -0.46290616
H       -3.14987892       0.50825291      -0.13664202
H       -2.64851424      -0.84700511      -1.14356238
H       -0.18899162       1.92532446      -1.04456953
H        1.02120806       1.22585945       1.86709717
