11
Frame=0 idx=000914 GeodesicLength=0.0 rxn_smarts="[N:1]([c:2]1[n:3][n:4]([H:9])[c:5]([H:10])[c:6]1[H:11])([H:7])[H:8]>>[N:1]([C:2]1=[C:6]=[C:5]([H:10])[N:4]([H:9])[N:3]1[H:11])([H:7])[H:8]"
N       -1.99253806      -0.10970106       0.08001791
C       -0.62409342       0.08913157       0.10131951
N        0.21067115      -1.07649774       0.19104897
N        1.39039643      -0.58124790      -0.10039188
C        1.36230357       0.78388337      -0.29408015
C        0.09351923       1.30055318      -0.18071202
H       -2.47980896       0.69819099      -0.26869148
H       -2.29899710      -0.98106089      -0.31768061
H        2.19725201      -1.15695111       0.08298232
H        2.30074328       1.27511215      -0.51543297
H       -0.15944811      -0.24141261       1.22162036
11
Frame=1 idx=000914 GeodesicLength=0.0946529818488224 rxn_smarts="[N:1]([c:2]1[n:3][n:4]([H:9])[c:5]([H:10])[c:6]1[H:11])([H:7])[H:8]>>[N:1]([C:2]1=[C:6]=[C:5]([H:10])[N:4]([H:9])[N:3]1[H:11])([H:7])[H:8]"
N       -1.99486103      -0.11218350       0.06757359
C       -0.62703722       0.08312345       0.08523330
N        0.20949284      -1.06957119       0.21171187
N        1.39128093      -0.58215224      -0.09846405
C        1.36161938       0.78016216      -0.30350700
C        0.09807635       1.29839720      -0.14663526
H       -2.48163177       0.69391358      -0.28573332
H       -2.30194127      -0.98993396      -0.31519321
H        2.19765557      -1.16795546       0.04814347
H        2.30149520       1.27580068      -0.50778678
H       -0.15414897      -0.20960071       1.24465739
11
Frame=2 idx=000914 GeodesicLength=0.18930894917538932 rxn_smarts="[N:1]([c:2]1[n:3][n:4]([H:9])[c:5]([H:10])[c:6]1[H:11])([H:7])[H:8]>>[N:1]([C:2]1=[C:6]=[C:5]([H:10])[N:4]([H:9])[N:3]1[H:11])([H:7])[H:8]"
N       -1.99663448      -0.11480363       0.05518587
C       -0.62941618       0.07729315       0.06944464
N        0.20834469      -1.06206775       0.23191186
N        1.39248131      -0.58272149      -0.09551910
C        1.36106543       0.77706936      -0.31046701
C        0.10230221       1.29467061      -0.11575060
H       -2.48317410       0.68961484      -0.30201133
H       -2.30440935      -0.99858351      -0.31272909
H        2.19642463      -1.17925272       0.01205022
H        2.30189501       1.27660972      -0.49994179
H       -0.14887918      -0.17782859       1.26782634
11
Frame=3 idx=000914 GeodesicLength=0.28396238370485144 rxn_smarts="[N:1]([c:2]1[n:3][n:4]([H:9])[c:5]([H:10])[c:6]1[H:11])([H:7])[H:8]>>[N:1]([C:2]1=[C:6]=[C:5]([H:10])[N:4]([H:9])[N:3]1[H:11])([H:7])[H:8]"
N       -1.99787830      -0.11764955       0.04280507
C       -0.63125228       0.07155392       0.05374655
N        0.20720272      -1.05401189       0.25181536
N        1.39403080      -0.58302126      -0.09143030
C        1.36080122       0.77451345      -0.31499087
C        0.10613983       1.28972438      -0.08776704
H       -2.48451444       0.68518898      -0.31756080
H       -2.30640342      -1.00712207      -0.31032456
H        2.19333612      -1.19081989      -0.02553038
H        2.30215212       1.27752234      -0.49196081
H       -0.14361436      -0.14587840       1.29119779
11
Frame=4 idx=000914 GeodesicLength=0.3786155319036887 rxn_smarts="[N:1]([c:2]1[n:3][n:4]([H:9])[c:5]([H:10])[c:6]1[H:11])([H:7])[H:8]>>[N:1]([C:2]1=[C:6]=[C:5]([H:10])[N:4]([H:9])[N:3]1[H:11])([H:7])[H:8]"
N       -1.99859847      -0.12078190       0.03042774
C       -0.63254405       0.06580856       0.03791606
N        0.20605205      -1.04544253       0.27147757
N        1.39597182      -0.58315415      -0.08620900
C        1.36088322       0.77234841      -0.31745840
C        0.10956585       1.28380615      -0.06243718
H       -2.48571066       0.68057531      -0.33234321
H       -2.30795168      -1.01562410      -0.30795745
H        2.18814303      -1.20250258      -0.06457638
H        2.30243576       1.27854276      -0.48360226
H       -0.13824687      -0.11357593       1.31476251
11
Frame=5 idx=000914 GeodesicLength=0.47326774515460673 rxn_smarts="[N:1]([c:2]1[n:3][n:4]([H:9])[c:5]([H:10])[c:6]1[H:11])([H:7])[H:8]>>[N:1]([C:2]1=[C:6]=[C:5]([H:10])[N:4]([H:9])[N:3]1[H:11])([H:7])[H:8]"
N       -1.99878664      -0.12424509       0.01804876
C       -0.63327855       0.05996949       0.02176647
N        0.20487179      -1.03636397       0.29098582
N        1.39833159      -0.58318948      -0.07983710
C        1.36135095       0.77044305      -0.31822430
C        0.11258369       1.27709488      -0.03954553
H       -2.48677290       0.67568288      -0.34645529
H       -2.30906914      -1.02418148      -0.30549839
H        2.18055950      -1.21415796      -0.10524572
H        2.30289344       1.27966311      -0.47451595
H       -0.13268374      -0.08071542       1.33852122
11
Frame=6 idx=000914 GeodesicLength=0.5679146819483771 rxn_smarts="[N:1]([c:2]1[n:3][n:4]([H:9])[c:5]([H:10])[c:6]1[H:11])([H:7])[H:8]>>[N:1]([C:2]1=[C:6]=[C:5]([H:10])[N:4]([H:9])[N:3]1[H:11])([H:7])[H:8]"
N       -1.99843759      -0.12804452       0.00568690
C       -0.63344228       0.05394589       0.00511520
N        0.20362018      -1.02683873       0.31016501
N        1.40109160      -0.58324015      -0.07259769
C        1.36220432       0.76868870      -0.31759293
C        0.11522154       1.26969681      -0.01876833
H       -2.48769471       0.67051753      -0.35985413
H       -2.30981747      -1.03278904      -0.30288906
H        2.17043525      -1.22543884      -0.14701252
H        2.30357160       1.28084573      -0.46465142
H       -0.12675243      -0.04734339       1.36239898
11
Frame=7 idx=000914 GeodesicLength=0.6625693587959907 rxn_smarts="[N:1]([c:2]1[n:3][n:4]([H:9])[c:5]([H:10])[c:6]1[H:11])([H:7])[H:8]>>[N:1]([C:2]1=[C:6]=[C:5]([H:10])[N:4]([H:9])[N:3]1[H:11])([H:7])[H:8]"
N       -1.99760174      -0.13212382      -0.00658181
C       -0.63306892       0.04766223      -0.01225305
N        0.20221880      -1.01701499       0.32850616
N        1.40412820      -0.58347784      -0.06526416
C        1.36337910       0.76699626      -0.31593832
C        0.11749963       1.26164578       0.00026589
H       -2.48853159       0.66522623      -0.37226231
H       -2.31036889      -1.04131785      -0.30013938
H        2.15806412      -1.23585723      -0.18841688
H        2.30443218       1.28204846      -0.45414205
H       -0.12015091      -0.01378722       1.38622591
11
Frame=8 idx=000914 GeodesicLength=0.7572384866940939 rxn_smarts="[N:1]([c:2]1[n:3][n:4]([H:9])[c:5]([H:10])[c:6]1[H:11])([H:7])[H:8]>>[N:1]([C:2]1=[C:6]=[C:5]([H:10])[N:4]([H:9])[N:3]1[H:11])([H:7])[H:8]"
N       -1.99636225      -0.13639422      -0.01868584
C       -0.63223833       0.04108222      -0.03053487
N        0.20055736      -1.00703378       0.34552416
N        1.40723001      -0.58403409      -0.05861993
C        1.36476479       0.76531835      -0.31361391
C        0.11940592       1.25294353       0.01787925
H       -2.48935647       0.65997506      -0.38344111
H       -2.31091711      -1.04962505      -0.29724193
H        2.14408042      -1.24511067      -0.22805250
H        2.30539956       1.28324796      -0.44308873
H       -0.11256389       0.01963070       1.40987542
11
Frame=9 idx=000914 GeodesicLength=0.8519420610783628 rxn_smarts="[N:1]([c:2]1[n:3][n:4]([H:9])[c:5]([H:10])[c:6]1[H:11])([H:7])[H:8]>>[N:1]([C:2]1=[C:6]=[C:5]([H:10])[N:4]([H:9])[N:3]1[H:11])([H:7])[H:8]"
N       -1.99484575      -0.14074321      -0.03058296
C       -0.63105834       0.03420337      -0.04989380
N        0.19854543      -0.99704088       0.36080154
N        1.41022609      -0.58499784      -0.05329315
C        1.36621321       0.76364092      -0.31095032
C        0.12089181       1.24357536       0.03437738
H       -2.49029541       0.65496653      -0.39317495
H       -2.31166405      -1.05754541      -0.29426538
H        2.12933566      -1.25309882      -0.26466292
H        2.30632854       1.28445058      -0.43166976
H       -0.10367720       0.05258940       1.43331430
11
Frame=10 idx=000914 GeodesicLength=0.9466647974843471 rxn_smarts="[N:1]([c:2]1[n:3][n:4]([H:9])[c:5]([H:10])[c:6]1[H:11])([H:7])[H:8]>>[N:1]([C:2]1=[C:6]=[C:5]([H:10])[N:4]([H:9])[N:3]1[H:11])([H:7])[H:8]"
N       -1.99308208      -0.14514182      -0.04234663
C       -0.62958020       0.02703213      -0.07036420
N        0.19610124      -0.98700966       0.37449128
N        1.41301170      -0.58630950      -0.04910209
C        1.36763660       0.76196331      -0.30800840
C        0.12190525       1.23354534       0.04994021
H       -2.49132106       0.65017762      -0.40167850
H       -2.31260903      -1.06509204      -0.29120116
H        2.11414221      -1.26004306      -0.29858592
H        2.30714789       1.28565605      -0.41986114
H       -0.09335252       0.08522163       1.45671655
11
Frame=11 idx=000914 GeodesicLength=1.041400726107822 rxn_smarts="[N:1]([c:2]1[n:3][n:4]([H:9])[c:5]([H:10])[c:6]1[H:11])([H:7])[H:8]>>[N:1]([C:2]1=[C:6]=[C:5]([H:10])[N:4]([H:9])[N:3]1[H:11])([H:7])[H:8]"
N       -1.99111537      -0.14955805      -0.05404618
C       -0.62785566       0.01957548      -0.09196089
N        0.19315884      -0.97695323       0.38665606
N        1.41552088      -0.58793708      -0.04595906
C        1.36892521       0.76028117      -0.30488542
C        0.12238849       1.22283844       0.06477379
H       -2.49243700       0.64564223      -0.40904965
H       -2.31376343      -1.07223415      -0.28816191
H        2.09881185      -1.26609473      -0.32984855
H        2.30773424       1.28687098      -0.40776607
H       -0.08136804       0.11756894       1.48024789
11
Frame=12 idx=000914 GeodesicLength=1.1361434096438239 rxn_smarts="[N:1]([c:2]1[n:3][n:4]([H:9])[c:5]([H:10])[c:6]1[H:11])([H:7])[H:8]>>[N:1]([C:2]1=[C:6]=[C:5]([H:10])[N:4]([H:9])[N:3]1[H:11])([H:7])[H:8]"
N       -1.98896673      -0.15397808      -0.06577653
C       -0.62592153       0.01184203      -0.11464023
N        0.18965218      -0.96685810       0.39744706
N        1.41769378      -0.58984076      -0.04367343
C        1.36997483       0.75858673      -0.30161936
C        0.12228527       1.21143412       0.07907379
H       -2.49360183       0.64134953      -0.41547905
H       -2.31509547      -1.07897743      -0.28526031
H        2.08347856      -1.27140174      -0.35870901
H        2.30797222       1.28809522      -0.39546783
H       -0.06747129       0.14974848       1.50410489
11
Frame=13 idx=000914 GeodesicLength=1.2308877656617248 rxn_smarts="[N:1]([c:2]1[n:3][n:4]([H:9])[c:5]([H:10])[c:6]1[H:11])([H:7])[H:8]>>[N:1]([C:2]1=[C:6]=[C:5]([H:10])[N:4]([H:9])[N:3]1[H:11])([H:7])[H:8]"
N       -1.98665971      -0.15839756      -0.07764054
C       -0.62381444       0.00384454      -0.13831061
N        0.18551585      -0.95671890       0.40701098
N        1.41947037      -0.59198758      -0.04208030
C        1.37067115       0.75687036      -0.29824526
C        0.12153833       1.19930433       0.09304836
H       -2.49477226       0.63729412      -0.42113953
H       -2.31656536      -1.08532762      -0.28267388
H        2.06822848      -1.27608632      -0.38535739
H        2.30773108       1.28932857      -0.38309017
H       -0.05134350       0.18187606       1.52847834
11
Frame=14 idx=000914 GeodesicLength=1.325631018800046 rxn_smarts="[N:1]([c:2]1[n:3][n:4]([H:9])[c:5]([H:10])[c:6]1[H:11])([H:7])[H:8]>>[N:1]([C:2]1=[C:6]=[C:5]([H:10])[N:4]([H:9])[N:3]1[H:11])([H:7])[H:8]"
N       -1.98422144      -0.16281751      -0.08975211
C       -0.62157150      -0.00439699      -0.16282428
N        0.18068628      -0.94653595       0.41550736
N        1.42078639      -0.59435101      -0.04102510
C        1.37089507       0.75512353      -0.29478138
C        0.12009219       1.18641859       0.10692139
H       -2.49589574       0.63345927      -0.42624790
H       -2.31812782      -1.09130372      -0.28059238
H        2.05308407      -1.28025032      -0.40999213
H        2.30687750       1.29057242      -0.37076167
H       -0.03260501       0.21408168       1.55354821
11
Frame=15 idx=000914 GeodesicLength=1.420371679119531 rxn_smarts="[N:1]([c:2]1[n:3][n:4]([H:9])[c:5]([H:10])[c:6]1[H:11])([H:7])[H:8]>>[N:1]([C:2]1=[C:6]=[C:5]([H:10])[N:4]([H:9])[N:3]1[H:11])([H:7])[H:8]"
N       -1.98168919      -0.16724745      -0.10223400
C       -0.61923275      -0.01285435      -0.18798094
N        0.17510320      -0.93632322       0.42309719
N        1.42157485      -0.59690976      -0.04036775
C        1.37052196       0.75333811      -0.29123630
C        0.11789603       1.17274439       0.12093387
H       -2.49692586       0.62983035      -0.43101580
H       -2.31973959      -1.09693357      -0.27925293
H        2.03803959      -1.28397722      -0.43276896
H        2.30527300       1.29182939      -0.35863603
H       -0.01082124       0.24650332       1.57946166
11
Frame=16 idx=000914 GeodesicLength=1.5151100315253059 rxn_smarts="[N:1]([c:2]1[n:3][n:4]([H:9])[c:5]([H:10])[c:6]1[H:11])([H:7])[H:8]>>[N:1]([C:2]1=[C:6]=[C:5]([H:10])[N:4]([H:9])[N:3]1[H:11])([H:7])[H:8]"
N       -1.97911187      -0.17170303      -0.11521435
C       -0.61684043      -0.02149021      -0.21353299
N        0.16871233      -0.92611259       0.42994198
N        1.42176946      -0.59964688      -0.03997623
C        1.36942743       0.75150725      -0.28760286
C        0.11490714       1.15824904       0.13534152
H       -2.49782457       0.62639159      -0.43565960
H       -2.32136531      -1.10225721      -0.27891386
H        2.02306617      -1.28733320      -0.45382226
H        2.30278188       1.29310469      -0.34687339
H        0.01447778       0.27929057       1.60631205
