15
Frame=0 idx=006070 GeodesicLength=0.0 rxn_smarts="[C:1]([C:2]([C:3]([C:4](=[O:5])[N:6]([H:14])[H:15])([H:12])[H:13])([H:10])[H:11])([H:7])([H:8])[H:9]>>[C:1]([C:2](/[C:3](=[C:4](\[O:5][H:13])[N:6]([H:14])[H:15])[H:12])([H:10])[H:11])([H:7])([H:8])[H:9]"
C        2.23682462       0.01467763      -0.43919283
C        0.74179128       0.10515894      -0.71723132
C       -0.08562312      -0.29641237       0.50331712
C       -1.43106792       0.20127995       0.54813361
O       -1.41976264       1.43828588       0.91983534
N       -2.58602010      -0.42796590       0.35914855
H        2.82411835       0.26894793      -1.32450012
H        2.51589395      -0.99684360      -0.13338160
H        2.51817477       0.69156746       0.36974906
H        0.49045468       1.12788444      -1.01408842
H        0.50632447      -0.52889556      -1.58369432
H        0.03718713      -1.34884785       0.76449151
H       -0.29398743       1.08795104       1.16837819
H       -3.45273625       0.01271144       0.61289992
H       -2.60157179      -1.34949949      -0.03386472
15
Frame=1 idx=006070 GeodesicLength=0.05027507687960742 rxn_smarts="[C:1]([C:2]([C:3]([C:4](=[O:5])[N:6]([H:14])[H:15])([H:12])[H:13])([H:10])[H:11])([H:7])([H:8])[H:9]>>[C:1]([C:2](/[C:3](=[C:4](\[O:5][H:13])[N:6]([H:14])[H:15])[H:12])([H:10])[H:11])([H:7])([H:8])[H:9]"
C        2.24114989       0.01265359      -0.42839559
C        0.75049653       0.11438143      -0.72665321
C       -0.09617950      -0.29552870       0.47661393
C       -1.43870065       0.21009478       0.50865742
O       -1.42466456       1.44227607       0.89530738
N       -2.59600534      -0.43117030       0.36685654
H        2.84243659       0.27677536      -1.30130206
H        2.51125256      -1.00449778      -0.13343669
H        2.51549360       0.67629058       0.39390804
H        0.50895142       1.14182846      -1.01544165
H        0.52317347      -0.50877498      -1.60266708
H        0.01577921      -1.35118667       0.72873969
H       -0.28739788       1.08750153       1.15135081
H       -3.45434261       0.00446633       0.65531234
H       -2.61144275      -1.37510970       0.03115011
15
Frame=2 idx=006070 GeodesicLength=0.09991581746233602 rxn_smarts="[C:1]([C:2]([C:3]([C:4](=[O:5])[N:6]([H:14])[H:15])([H:12])[H:13])([H:10])[H:11])([H:7])([H:8])[H:9]>>[C:1]([C:2](/[C:3](=[C:4](\[O:5][H:13])[N:6]([H:14])[H:15])[H:12])([H:10])[H:11])([H:7])([H:8])[H:9]"
C        2.24448980       0.01061620      -0.41781250
C        0.75841909       0.12301877      -0.73562827
C       -0.10676965      -0.29476955       0.45044348
C       -1.44670122       0.21785951       0.47038602
O       -1.42996620       1.44560028       0.87058083
N       -2.60481958      -0.43482544       0.37485926
H        2.85922634       0.28434277      -1.27826547
H        2.50633765      -1.01173941      -0.13364120
H        2.51153417       0.66124502       0.41727116
H        0.52596000       1.15480366      -1.01650585
H        0.53932341      -0.48963918      -1.62062287
H       -0.00481538      -1.35329378       0.69387415
H       -0.28116614       1.08638832       1.13514642
H       -3.45342504      -0.00304698       0.69609560
H       -2.61762724      -1.39656019       0.09381925
15
Frame=3 idx=006070 GeodesicLength=0.14900411021911403 rxn_smarts="[C:1]([C:2]([C:3]([C:4](=[O:5])[N:6]([H:14])[H:15])([H:12])[H:13])([H:10])[H:11])([H:7])([H:8])[H:9]>>[C:1]([C:2](/[C:3](=[C:4](\[O:5][H:13])[N:6]([H:14])[H:15])[H:12])([H:10])[H:11])([H:7])([H:8])[H:9]"
C        2.24687049       0.00864549      -0.40771337
C        0.76542657       0.13101028      -0.74395614
C       -0.11710597      -0.29418460       0.42538171
C       -1.45482662       0.22440859       0.43428580
O       -1.43545816       1.44818123       0.84644306
N       -2.61234108      -0.43895933       0.38333572
H        2.87420931       0.29167149      -1.25593763
H        2.50132701      -1.01845727      -0.13418415
H        2.50660477       0.64665868       0.43940403
H        0.54118476       1.16673158      -1.01712455
H        0.55435271      -0.47165076      -1.63725611
H       -0.02428782      -1.35526636       0.66043051
H       -0.27491609       1.08471399       1.12014866
H       -3.45070198      -0.00907759       0.73289427
H       -2.62033790      -1.41442543       0.15384819
15
Frame=4 idx=006070 GeodesicLength=0.19762449777153096 rxn_smarts="[C:1]([C:2]([C:3]([C:4](=[O:5])[N:6]([H:14])[H:15])([H:12])[H:13])([H:10])[H:11])([H:7])([H:8])[H:9]>>[C:1]([C:2](/[C:3](=[C:4](\[O:5][H:13])[N:6]([H:14])[H:15])[H:12])([H:10])[H:11])([H:7])([H:8])[H:9]"
C        2.24841646       0.00677046      -0.39821595
C        0.77153996       0.13836774      -0.75157322
C       -0.12703558      -0.29376073       0.40169405
C       -1.46292494       0.22978406       0.40068935
O       -1.44102262       1.45005825       0.82331447
N       -2.61859834      -0.44349267       0.39220677
H        2.88740540       0.29872557      -1.23460606
H        2.49635249      -1.02463000      -0.13508375
H        2.50100552       0.63265706       0.46011523
H        0.55463033       1.17764602      -1.01727409
H        0.56813007      -0.45483622      -1.65248534
H       -0.04256810      -1.35714164       0.62865032
H       -0.26841603       1.08260223       1.10649271
H       -3.44690035      -0.01353359       0.76500681
H       -2.62001427      -1.42921655       0.21106868
15
Frame=5 idx=006070 GeodesicLength=0.2458654907531519 rxn_smarts="[C:1]([C:2]([C:3]([C:4](=[O:5])[N:6]([H:14])[H:15])([H:12])[H:13])([H:10])[H:11])([H:7])([H:8])[H:9]>>[C:1]([C:2](/[C:3](=[C:4](\[O:5][H:13])[N:6]([H:14])[H:15])[H:12])([H:10])[H:11])([H:7])([H:8])[H:9]"
C        2.24925730       0.00496150      -0.38936798
C        0.77684001       0.14522365      -0.75848733
C       -0.13649243      -0.29345986       0.37940494
C       -1.47090166       0.23410587       0.36953445
O       -1.44660415       1.45126211       0.80144349
N       -2.62368453      -0.44833924       0.40107738
H        2.89893390       0.30552729      -1.21436863
H        2.49143655      -1.03036435      -0.13648986
H        2.49501120       0.61911399       0.47944949
H        0.56648279       1.18775528      -1.01684560
H        0.58062532      -0.43894266      -1.66642479
H       -0.05968911      -1.35892946       0.59847170
H       -0.26154957       1.08009285       1.09425021
H       -3.44273438      -0.01641875       0.79175835
H       -2.61693125      -1.44158822       0.26659418
15
Frame=6 idx=006070 GeodesicLength=0.29383481638469755 rxn_smarts="[C:1]([C:2]([C:3]([C:4](=[O:5])[N:6]([H:14])[H:15])([H:12])[H:13])([H:10])[H:11])([H:7])([H:8])[H:9]>>[C:1]([C:2](/[C:3](=[C:4](\[O:5][H:13])[N:6]([H:14])[H:15])[H:12])([H:10])[H:11])([H:7])([H:8])[H:9]"
C        2.24952349       0.00320311      -0.38097907
C        0.78147362       0.15156882      -0.76480116
C       -0.14557264      -0.29315943       0.35831485
C       -1.47880461       0.23762003       0.34029786
O       -1.45222834       1.45202602       0.78032535
N       -2.62781472      -0.45334107       0.40996955
H        2.90912005       0.31192046      -1.19497013
H        2.48657231      -1.03565037      -0.13799413
H        2.48868508       0.60612163       0.49756254
H        0.57702263       1.19703181      -1.01610508
H        0.59208664      -0.42405540      -1.67915755
H       -0.07592705      -1.36050085       0.56977240
H       -0.25435322       1.07740470       1.08300359
H       -3.43802624      -0.01868319       0.81586893
H       -2.61175700      -1.45150627       0.31889202
15
Frame=7 idx=006070 GeodesicLength=0.3415443268411955 rxn_smarts="[C:1]([C:2]([C:3]([C:4](=[O:5])[N:6]([H:14])[H:15])([H:12])[H:13])([H:10])[H:11])([H:7])([H:8])[H:9]>>[C:1]([C:2](/[C:3](=[C:4](\[O:5][H:13])[N:6]([H:14])[H:15])[H:12])([H:10])[H:11])([H:7])([H:8])[H:9]"
C        2.24931309       0.00145910      -0.37307195
C        0.78551733       0.15748563      -0.77054759
C       -0.15427179      -0.29281794       0.33844783
C       -1.48661134       0.24046523       0.31287687
O       -1.45793747       1.45243387       0.76010711
N       -2.63110179      -0.45843926       0.41863737
H        2.91809717       0.31785522      -1.17651373
H        2.48177425      -1.04059303      -0.13960478
H        2.48218177       0.59364714       0.51448189
H        0.58640181       1.20562941      -1.01505253
H        0.60256897      -0.41004660      -1.69079657
H       -0.09133773      -1.36186011       0.54258460
H       -0.24682540       1.07461005       1.07280070
H       -3.43305326      -0.02044768       0.83728084
H       -2.60471561      -1.45938102       0.36836993
15
Frame=8 idx=006070 GeodesicLength=0.3891051162153309 rxn_smarts="[C:1]([C:2]([C:3]([C:4](=[O:5])[N:6]([H:14])[H:15])([H:12])[H:13])([H:10])[H:11])([H:7])([H:8])[H:9]>>[C:1]([C:2](/[C:3](=[C:4](\[O:5][H:13])[N:6]([H:14])[H:15])[H:12])([H:10])[H:11])([H:7])([H:8])[H:9]"
C        2.24871288      -0.00028409      -0.36555899
C        0.78907291       0.16307406      -0.77582096
C       -0.16264843      -0.29243235       0.31956580
C       -1.49435346       0.24272105       0.28689134
O       -1.46373523       1.45253167       0.74053879
N       -2.63367191      -0.46363194       0.42711273
H        2.92607602       0.32346291      -1.15878266
H        2.47703061      -1.04527672      -0.14138482
H        2.47555100       0.58150493       0.53046803
H        0.59483388       1.21370066      -1.01369371
H        0.61222336      -0.39669292      -1.70155352
H       -0.10604300      -1.36303363       0.51658834
H       -0.23899749       1.07167303       1.06349579
H       -3.42795637      -0.02178983       0.85631083
H       -2.59609476      -1.46552684       0.41582303
15
Frame=9 idx=006070 GeodesicLength=0.43657503833357936 rxn_smarts="[C:1]([C:2]([C:3]([C:4](=[O:5])[N:6]([H:14])[H:15])([H:12])[H:13])([H:10])[H:11])([H:7])([H:8])[H:9]>>[C:1]([C:2](/[C:3](=[C:4](\[O:5][H:13])[N:6]([H:14])[H:15])[H:12])([H:10])[H:11])([H:7])([H:8])[H:9]"
C        2.24778417      -0.00205478      -0.35836211
C        0.79223436       0.16842287      -0.78070283
C       -0.17077204      -0.29198233       0.30146873
C       -1.50208305       0.24445723       0.26201123
O       -1.46967295       1.45237116       0.72136696
N       -2.63563109      -0.46891992       0.43539729
H        2.93324859       0.32880798      -1.14159114
H        2.47230390      -1.04978544      -0.14336743
H        2.46879567       0.56952550       0.54572964
H        0.60251841       1.22137821      -1.01203932
H        0.62121115      -0.38380374      -1.71160020
H       -0.12016388      -1.36402284       0.49153213
H       -0.23095128       1.06858574       1.05494409
H       -3.42276774      -0.02285226       0.87342490
H       -2.58605422      -1.47012737       0.46178807
15
Frame=10 idx=006070 GeodesicLength=0.4839316017780528 rxn_smarts="[C:1]([C:2]([C:3]([C:4](=[O:5])[N:6]([H:14])[H:15])([H:12])[H:13])([H:10])[H:11])([H:7])([H:8])[H:9]>>[C:1]([C:2](/[C:3](=[C:4](\[O:5][H:13])[N:6]([H:14])[H:15])[H:12])([H:10])[H:11])([H:7])([H:8])[H:9]"
C        2.24655862      -0.00385076      -0.35147660
C        0.79500073       0.17348200      -0.78516754
C       -0.17863229      -0.29139206       0.28428142
C       -1.50976799       0.24579443       0.23823161
O       -1.47575286       1.45205156       0.70263923
N       -2.63703839      -0.47421692       0.44341478
H        2.93962219       0.33371882      -1.12505932
H        2.46760040      -1.05408468      -0.14533063
H        2.46201552       0.55790627       0.56015394
H        0.60946122       1.22859033      -1.01019147
H        0.62949216      -0.37154992      -1.72084764
H       -0.13373228      -1.36473317       0.46768906
H       -0.22263168       1.06550709       1.04710824
H       -3.41732296      -0.02394281       0.88943415
H       -2.57487237      -1.47328018       0.50512078
15
Frame=11 idx=006070 GeodesicLength=0.5312239436597426 rxn_smarts="[C:1]([C:2]([C:3]([C:4](=[O:5])[N:6]([H:14])[H:15])([H:12])[H:13])([H:10])[H:11])([H:7])([H:8])[H:9]>>[C:1]([C:2](/[C:3](=[C:4](\[O:5][H:13])[N:6]([H:14])[H:15])[H:12])([H:10])[H:11])([H:7])([H:8])[H:9]"
C        2.24508138      -0.00568248      -0.34485354
C        0.79743919       0.17832462      -0.78928108
C       -0.18627452      -0.29067765       0.26783979
C       -1.51744239       0.24674746       0.21532649
O       -1.48199884       1.45158288       0.68417890
N       -2.63796084      -0.47954446       0.45122136
H        2.94533263       0.33832405      -1.10903361
H        2.46291201      -1.05824017      -0.14737675
H        2.45520209       0.54648061       0.57392837
H        0.61579709       1.23545036      -1.00813679
H        0.63718441      -0.35975787      -1.72944933
H       -0.14681600      -1.36520661       0.44482629
H       -0.21408701       1.06238329       1.03991088
H       -3.41170675      -0.02500819       0.90436253
H       -2.56266245      -1.47517584       0.54653648
15
Frame=12 idx=006070 GeodesicLength=0.5784898873835407 rxn_smarts="[C:1]([C:2]([C:3]([C:4](=[O:5])[N:6]([H:14])[H:15])([H:12])[H:13])([H:10])[H:11])([H:7])([H:8])[H:9]>>[C:1]([C:2](/[C:3](=[C:4](\[O:5][H:13])[N:6]([H:14])[H:15])[H:12])([H:10])[H:11])([H:7])([H:8])[H:9]"
C        2.24338828      -0.00756240      -0.33845527
C        0.79960653       0.18301782      -0.79309524
C       -0.19373734      -0.28985649       0.25200444
C       -1.52513992       0.24731680       0.19311500
O       -1.48843906       1.45096417       0.66583969
N       -2.63844779      -0.48493601       0.45887055
H        2.95049166       0.34271076      -1.09339325
H        2.45822780      -1.06230689      -0.14958659
H        2.44834669       0.53511173       0.58719498
H        0.62163618       1.24205999      -1.00584746
H        0.64439081      -0.34826561      -1.73753330
H       -0.15947362      -1.36548615       0.42272616
H       -0.20536625       1.05915602       1.03329824
H       -3.40601254      -0.02601269       0.91817885
H       -2.54947145      -1.47591105       0.58668320
15
Frame=13 idx=006070 GeodesicLength=0.6257579770614696 rxn_smarts="[C:1]([C:2]([C:3]([C:4](=[O:5])[N:6]([H:14])[H:15])([H:12])[H:13])([H:10])[H:11])([H:7])([H:8])[H:9]>>[C:1]([C:2](/[C:3](=[C:4](\[O:5][H:13])[N:6]([H:14])[H:15])[H:12])([H:10])[H:11])([H:7])([H:8])[H:9]"
C        2.24149166      -0.00948994      -0.33224261
C        0.80153534       0.18760784      -0.79665044
C       -0.20104564      -0.28896011       0.23664139
C       -1.53287430       0.24747316       0.17143762
O       -1.49506896       1.45015807       0.64746779
N       -2.63850765      -0.49041570       0.46643145
H        2.95516095       0.34699450      -1.07799501
H        2.45353981      -1.06630100      -0.15204826
H        2.44141680       0.52365908       0.60008838
H        0.62704470       1.24847678      -1.00328963
H        0.65118053      -0.33693335      -1.74519923
H       -0.17174712      -1.36561127       0.40116864
H       -0.19649139       1.05573313       1.02721684
H       -3.40031051      -0.02689975       0.93080726
H       -2.53532421      -1.47549146       0.62616583
15
Frame=14 idx=006070 GeodesicLength=0.6730074023966984 rxn_smarts="[C:1]([C:2]([C:3]([C:4](=[O:5])[N:6]([H:14])[H:15])([H:12])[H:13])([H:10])[H:11])([H:7])([H:8])[H:9]>>[C:1]([C:2](/[C:3](=[C:4](\[O:5][H:13])[N:6]([H:14])[H:15])[H:12])([H:10])[H:11])([H:7])([H:8])[H:9]"
C        2.23941275      -0.01146602      -0.32622870
C        0.80320928       0.19203671      -0.79991351
C       -0.20818800      -0.28790317       0.22192603
C       -1.54062361       0.24733404       0.15035624
O       -1.50191524       1.44929108       0.62915459
N       -2.63819786      -0.49589442       0.47380496
H        2.95932782       0.35097479      -1.06301601
H        2.44885191      -1.07020661      -0.15453038
H        2.43450946       0.51235970       0.61246791
H        0.63200080       1.25463497      -1.00057720
H        0.65748604      -0.32598005      -1.75234149
H       -0.18363188      -1.36548755       0.38053925
H       -0.18741375       1.05231853       1.02166866
H       -3.39436289      -0.02790569       0.94300441
H       -2.52046482      -1.47410631       0.66368526
15
Frame=15 idx=006070 GeodesicLength=0.7202425250506107 rxn_smarts="[C:1]([C:2]([C:3]([C:4](=[O:5])[N:6]([H:14])[H:15])([H:12])[H:13])([H:10])[H:11])([H:7])([H:8])[H:9]>>[C:1]([C:2](/[C:3](=[C:4](\[O:5][H:13])[N:6]([H:14])[H:15])[H:12])([H:10])[H:11])([H:7])([H:8])[H:9]"
C        2.23717250      -0.01349537      -0.32038923
C        0.80466593       0.19634142      -0.80290501
C       -0.21519072      -0.28669183       0.20775838
C       -1.54841313       0.24687028       0.12974994
O       -1.50900649       1.44832464       0.61073479
N       -2.63754271      -0.50138088       0.48106929
H        2.96306630       0.35475448      -1.04833214
H        2.44416328      -1.07403476      -0.15714104
H        2.42760160       0.50106575       0.62443100
H        0.63657824       1.26056706      -0.99767335
H        0.66337953      -0.31529014      -1.75900860
H       -0.19515702      -1.36510990       0.36069941
H       -0.17817384       1.04885776       1.01657147
H       -3.38819769      -0.02899585       0.95478637
H       -2.50494576      -1.47178263       0.69964872
15
Frame=16 idx=006070 GeodesicLength=0.7674807806353028 rxn_smarts="[C:1]([C:2]([C:3]([C:4](=[O:5])[N:6]([H:14])[H:15])([H:12])[H:13])([H:10])[H:11])([H:7])([H:8])[H:9]>>[C:1]([C:2](/[C:3](=[C:4](\[O:5][H:13])[N:6]([H:14])[H:15])[H:12])([H:10])[H:11])([H:7])([H:8])[H:9]"
C        2.23478860      -0.01557200      -0.31472670
C        0.80591056       0.20053075      -0.80563921
C       -0.22205089      -0.28533393       0.19415095
C       -1.55622836       0.24609992       0.10959479
O       -1.51633636       1.44728787       0.59223874
N       -2.63656432      -0.50687035       0.48819782
H        2.96639026       0.35834210      -1.03397512
H        2.43948530      -1.07780367      -0.15986939
H        2.42072790       0.48980416       0.63599608
H        0.64078593       1.26630836      -0.99459434
H        0.66885619      -0.30486593      -1.76524269
H       -0.20632239      -1.36451139       0.34168964
H       -0.16874036       1.04536121       1.01196601
H       -3.38184768      -0.03012965       0.96612406
H       -2.48885438      -1.46864746       0.73408935
