12
Frame=0 idx=011025 GeodesicLength=0.0 rxn_smarts="[C:1](#[C:2][C@:3]1([H:9])[N:4]([H:10])[C@@:5]1([C:6]#[C:7][H:12])[H:11])[H:8]>>[C:1]12=[C:2]([H:8])[C@@:3]3([H:9])[N:4]([H:10])[C@@:5]3([H:11])[C:6]1=[C:7]2[H:12]"
C        1.15957427       1.97400393      -0.18684137
C        1.26313324       0.74257672      -0.50381116
C        0.76805795      -0.63018024      -0.63129654
N        0.53669387      -1.44001398       0.56027999
C       -0.62006918      -0.92577113      -0.17440789
C       -1.41705900       0.13656701       0.38029054
C       -2.06142138       1.03285287       0.84397401
H        2.33446992       1.02949360      -0.74671762
H        1.15465346      -1.18643989      -1.47624767
H        0.68762488      -0.87979242       1.39242426
H       -1.17413331      -1.68522870      -0.71380265
H       -2.63152474       1.83193227       1.25615606
12
Frame=1 idx=011025 GeodesicLength=0.11403849260018215 rxn_smarts="[C:1](#[C:2][C@:3]1([H:9])[N:4]([H:10])[C@@:5]1([C:6]#[C:7][H:12])[H:11])[H:8]>>[C:1]12=[C:2]([H:8])[C@@:3]3([H:9])[N:4]([H:10])[C@@:5]3([H:11])[C:6]1=[C:7]2[H:12]"
C        1.09196170       1.94820155      -0.17320356
C        1.24969317       0.73088968      -0.51692339
C        0.76950607      -0.64707303      -0.63690256
N        0.53838558      -1.45200080       0.55732280
C       -0.62040547      -0.93638913      -0.17300262
C       -1.39641256       0.14556385       0.37562871
C       -2.00784232       1.07772015       0.82125729
H        2.32759680       1.08505219      -0.70869012
H        1.15310807      -1.20280034      -1.48339260
H        0.69548052      -0.89091576       1.38777961
H       -1.18349983      -1.69386076      -0.70533904
H       -2.61757172       1.83561240       1.25546547
12
Frame=2 idx=011025 GeodesicLength=0.22779928273974717 rxn_smarts="[C:1](#[C:2][C@:3]1([H:9])[N:4]([H:10])[C@@:5]1([C:6]#[C:7][H:12])[H:11])[H:8]>>[C:1]12=[C:2]([H:8])[C@@:3]3([H:9])[N:4]([H:10])[C@@:5]3([H:11])[C:6]1=[C:7]2[H:12]"
C        1.02985437       1.92143315      -0.16269411
C        1.23933081       0.71940188      -0.52814125
C        0.77066908      -0.66254447      -0.64200677
N        0.53927679      -1.46287106       0.55452567
C       -0.62105725      -0.94524890      -0.17155393
C       -1.37594713       0.15549814       0.37097601
C       -1.95833540       1.11680017       0.80231877
H        2.31808252       1.13977017      -0.67179920
H        1.15082861      -1.21813562      -1.48992829
H        0.70248893      -0.90121637       1.38339182
H       -1.19303507      -1.70050036      -0.69707215
H       -2.60215626       1.83761328       1.25198343
12
Frame=3 idx=011025 GeodesicLength=0.3413178461369598 rxn_smarts="[C:1](#[C:2][C@:3]1([H:9])[N:4]([H:10])[C@@:5]1([C:6]#[C:7][H:12])[H:11])[H:8]>>[C:1]12=[C:2]([H:8])[C@@:3]3([H:9])[N:4]([H:10])[C@@:5]3([H:11])[C:6]1=[C:7]2[H:12]"
C        0.97233620       1.89405099      -0.15414595
C        1.23133355       0.70815940      -0.53712721
C        0.77178466      -0.67691339      -0.64654802
N        0.53962257      -1.47314705       0.55191655
C       -0.62187591      -0.95310570      -0.17030405
C       -1.35608142       0.16541397       0.36611154
C       -1.91278705       1.15056090       0.78700383
H        2.30547890       1.19425403      -0.63712456
H        1.14854121      -1.23248044      -1.49587079
H        0.70849716      -0.91125707       1.37949148
H       -1.20227075      -1.70601699      -0.68950651
H       -2.58457910       1.84048134       1.24610366
12
Frame=4 idx=011025 GeodesicLength=0.4545133068272851 rxn_smarts="[C:1](#[C:2][C@:3]1([H:9])[N:4]([H:10])[C@@:5]1([C:6]#[C:7][H:12])[H:11])[H:8]>>[C:1]12=[C:2]([H:8])[C@@:3]3([H:9])[N:4]([H:10])[C@@:5]3([H:11])[C:6]1=[C:7]2[H:12]"
C        0.91925787       1.86631780      -0.14711631
C        1.22544601       0.69729404      -0.54381330
C        0.77302125      -0.69039440      -0.65035139
N        0.53919925      -1.48297009       0.54979283
C       -0.62288789      -0.96031620      -0.16948107
C       -1.33701123       0.17500882       0.36048112
C       -1.87074503       1.18022808       0.77358436
H        2.28993294       1.24877896      -0.60557687
H        1.14673341      -1.24602699      -1.50091260
H        0.71303023      -0.92105116       1.37641180
H       -1.21112973      -1.71093130      -0.68297294
H       -2.56484709       1.84406244       1.23995437
12
Frame=5 idx=011025 GeodesicLength=0.5679874366258966 rxn_smarts="[C:1](#[C:2][C@:3]1([H:9])[N:4]([H:10])[C@@:5]1([C:6]#[C:7][H:12])[H:11])[H:8]>>[C:1]12=[C:2]([H:8])[C@@:3]3([H:9])[N:4]([H:10])[C@@:5]3([H:11])[C:6]1=[C:7]2[H:12]"
C        0.86956330       1.83847144      -0.14301870
C        1.22090764       0.68629759      -0.54924253
C        0.77456321      -0.70337226      -0.65338099
N        0.53774924      -1.49149218       0.54835999
C       -0.62396855      -0.96677121      -0.16964783
C       -1.31920555       0.18470342       0.35225475
C       -1.83248813       1.20722889       0.75892347
H        2.27175764       1.30245760      -0.57510601
H        1.14633347      -1.25976503      -1.50416875
H        0.71516615      -0.92908850       1.37379321
H       -1.21892003      -1.71545750      -0.67762037
H       -2.54145839       1.84678774       1.23885377
12
Frame=6 idx=011025 GeodesicLength=0.6812419212587315 rxn_smarts="[C:1](#[C:2][C@:3]1([H:9])[N:4]([H:10])[C@@:5]1([C:6]#[C:7][H:12])[H:11])[H:8]>>[C:1]12=[C:2]([H:8])[C@@:3]3([H:9])[N:4]([H:10])[C@@:5]3([H:11])[C:6]1=[C:7]2[H:12]"
C        0.82431472       1.81042665      -0.13837590
C        1.21792227       0.67566611      -0.55238622
C        0.77612723      -0.71561157      -0.65589127
N        0.53605628      -1.50025070       0.54694029
C       -0.62512481      -0.97282588      -0.16976917
C       -1.30166571       0.19371356       0.34489171
C       -1.79582721       1.23150552       0.74701444
H        2.25097880       1.35622290      -0.54874887
H        1.14586046      -1.27236110      -1.50727853
H        0.71690671      -0.93799105       1.37173086
H       -1.22664656      -1.71932022      -0.67287617
H       -2.51890218       1.85082578       1.23474883
12
Frame=7 idx=011025 GeodesicLength=0.7944213618628228 rxn_smarts="[C:1](#[C:2][C@:3]1([H:9])[N:4]([H:10])[C@@:5]1([C:6]#[C:7][H:12])[H:11])[H:8]>>[C:1]12=[C:2]([H:8])[C@@:3]3([H:9])[N:4]([H:10])[C@@:5]3([H:11])[C:6]1=[C:7]2[H:12]"
C        0.78313245       1.78225384      -0.13297397
C        1.21616153       0.66521818      -0.55352916
C        0.77769605      -0.72722066      -0.65795967
N        0.53420659      -1.50919400       0.54540377
C       -0.62629435      -0.97845470      -0.16981661
C       -1.28432435       0.20212154       0.33844454
C       -1.76036637       1.25353207       0.73766221
H        2.22774833       1.40987379      -0.52611312
H        1.14530893      -1.28393025      -1.51025472
H        0.71836028      -0.94769018       1.36998463
H       -1.23424049      -1.72244990      -0.66857782
H       -2.49738860       1.85594027       1.22772992
12
Frame=8 idx=011025 GeodesicLength=0.9073662920125649 rxn_smarts="[C:1](#[C:2][C@:3]1([H:9])[N:4]([H:10])[C@@:5]1([C:6]#[C:7][H:12])[H:11])[H:8]>>[C:1]12=[C:2]([H:8])[C@@:3]3([H:9])[N:4]([H:10])[C@@:5]3([H:11])[C:6]1=[C:7]2[H:12]"
C        0.74590975       1.75399920      -0.12625132
C        1.21558876       0.65496213      -0.55269467
C        0.77929272      -0.73825201      -0.65960077
N        0.53220968      -1.51845988       0.54373476
C       -0.62748740      -0.98370521      -0.16974838
C       -1.26709581       0.20992692       0.33309874
C       -1.72569362       1.27366183       0.73081096
H        2.20209454       1.46348907      -0.50756165
H        1.14465705      -1.29444928      -1.51319193
H        0.71961685      -0.95839005       1.36859604
H       -1.24180885      -1.72484659      -0.66471565
H       -2.47728368       1.86206385       1.21752388
12
Frame=9 idx=011025 GeodesicLength=1.020680925744256 rxn_smarts="[C:1](#[C:2][C@:3]1([H:9])[N:4]([H:10])[C@@:5]1([C:6]#[C:7][H:12])[H:11])[H:8]>>[C:1]12=[C:2]([H:8])[C@@:3]3([H:9])[N:4]([H:10])[C@@:5]3([H:11])[C:6]1=[C:7]2[H:12]"
C        0.71128907       1.72614264      -0.12123785
C        1.21573293       0.64474990      -0.55086077
C        0.78121472      -0.74906769      -0.66051695
N        0.52923804      -1.52694914       0.54277827
C       -0.62878627      -0.98863460      -0.17059239
C       -1.25094214       0.21757238       0.32566877
C       -1.69333798       1.29279527       0.72171047
H        2.17442332       1.51659127      -0.49056199
H        1.14537379      -1.30522659      -1.51462508
H        0.71873805      -0.96790733       1.36784129
H       -1.24861560      -1.72729384      -0.66207288
H       -2.45432792       1.86722772       1.21246911
12
Frame=10 idx=011025 GeodesicLength=1.1337663955403723 rxn_smarts="[C:1](#[C:2][C@:3]1([H:9])[N:4]([H:10])[C@@:5]1([C:6]#[C:7][H:12])[H:11])[H:8]>>[C:1]12=[C:2]([H:8])[C@@:3]3([H:9])[N:4]([H:10])[C@@:5]3([H:11])[C:6]1=[C:7]2[H:12]"
C        0.68022142       1.69831693      -0.11448748
C        1.21688798       0.63467357      -0.54722682
C        0.78319691      -0.75941551      -0.66103824
N        0.52612530      -1.53586206       0.54164418
C       -0.63008796      -0.99323964      -0.17133115
C       -1.23479074       0.22466695       0.31941579
C       -1.66127265       1.31052207       0.71483117
H        2.14432264       1.56964585      -0.47758892
H        1.14602756      -1.31503492      -1.51606663
H        0.71771561      -0.97853992       1.36740095
H       -1.25544329      -1.72902493      -0.65988266
H       -2.43290276       1.87329163       1.20432979
12
Frame=11 idx=011025 GeodesicLength=1.2468233042236772 rxn_smarts="[C:1](#[C:2][C@:3]1([H:9])[N:4]([H:10])[C@@:5]1([C:6]#[C:7][H:12])[H:11])[H:8]>>[C:1]12=[C:2]([H:8])[C@@:3]3([H:9])[N:4]([H:10])[C@@:5]3([H:11])[C:6]1=[C:7]2[H:12]"
C        0.65214822       1.67069541      -0.10693301
C        1.21889411       0.62466248      -0.54208803
C        0.78537861      -0.76944659      -0.66102629
N        0.52255283      -1.54484969       0.54064050
C       -0.63141277      -0.99753920      -0.17235407
C       -1.21895642       0.23139846       0.31320457
C       -1.62996780       1.32725423       0.70844725
H        2.11180810       1.62250984      -0.46792902
H        1.14719614      -1.32435041      -1.51696695
H        0.71582025      -0.98957477       1.36740407
H       -1.26202895      -1.73029215      -0.65849271
H       -2.41143232       1.87953239       1.19609368
12
Frame=12 idx=011025 GeodesicLength=1.3598463729312669 rxn_smarts="[C:1](#[C:2][C@:3]1([H:9])[N:4]([H:10])[C@@:5]1([C:6]#[C:7][H:12])[H:11])[H:8]>>[C:1]12=[C:2]([H:8])[C@@:3]3([H:9])[N:4]([H:10])[C@@:5]3([H:11])[C:6]1=[C:7]2[H:12]"
C        0.62710200       1.64323771      -0.09782302
C        1.22170586       0.61473508      -0.53543890
C        0.78763907      -0.77910421      -0.66067551
N        0.51883137      -1.55422744       0.53944643
C       -0.63270824      -1.00155841      -0.17334470
C       -1.20308673       0.23765606       0.30799852
C       -1.59872593       1.34287575       0.70394761
H        2.07671966       1.67518240      -0.46159003
H        1.14838177      -1.33285394      -1.51784704
H        0.71374722      -1.00160122       1.36763084
H       -1.26858618      -1.73093199      -0.65756558
H       -2.39101986       1.88659021       1.18526140
12
Frame=13 idx=011025 GeodesicLength=1.473126170139614 rxn_smarts="[C:1](#[C:2][C@:3]1([H:9])[N:4]([H:10])[C@@:5]1([C:6]#[C:7][H:12])[H:11])[H:8]>>[C:1]12=[C:2]([H:8])[C@@:3]3([H:9])[N:4]([H:10])[C@@:5]3([H:11])[C:6]1=[C:7]2[H:12]"
C        0.60440792       1.61605370      -0.08825084
C        1.22494330       0.60484921      -0.52804150
C        0.78991200      -0.78844592      -0.66020510
N        0.51510306      -1.56363290       0.53804444
C       -0.63393349      -1.00532516      -0.17432256
C       -1.18728656       0.24348629       0.30344845
C       -1.56769710       1.35746217       0.70080666
H        2.03933218       1.72710352      -0.45650386
H        1.14956650      -1.34082038      -1.51873876
H        0.71161128      -1.01396318       1.36780621
H       -1.27497777      -1.73116390      -0.65680134
H       -2.37098131       1.89439655       1.17275819
12
Frame=14 idx=011025 GeodesicLength=1.5864341682808354 rxn_smarts="[C:1](#[C:2][C@:3]1([H:9])[N:4]([H:10])[C@@:5]1([C:6]#[C:7][H:12])[H:11])[H:8]>>[C:1]12=[C:2]([H:8])[C@@:3]3([H:9])[N:4]([H:10])[C@@:5]3([H:11])[C:6]1=[C:7]2[H:12]"
C        0.58403301       1.58923705      -0.07829431
C        1.22889575       0.59499204      -0.51956571
C        0.79247254      -0.79759677      -0.65923944
N        0.51084381      -1.57297961       0.53687038
C       -0.63516337      -1.00881646      -0.17575188
C       -1.17180471       0.24912425       0.29848664
C       -1.53722606       1.37153147       0.69732161
H        1.99924447       1.77849850      -0.45380145
H        1.15149457      -1.34858411      -1.51896759
H        0.70844438      -1.02640031       1.36842432
H       -1.28107912      -1.73106541      -0.65694944
H       -2.35015527       1.90205936       1.16146688
12
Frame=15 idx=011025 GeodesicLength=1.6998058108036065 rxn_smarts="[C:1](#[C:2][C@:3]1([H:9])[N:4]([H:10])[C@@:5]1([C:6]#[C:7][H:12])[H:11])[H:8]>>[C:1]12=[C:2]([H:8])[C@@:3]3([H:9])[N:4]([H:10])[C@@:5]3([H:11])[C:6]1=[C:7]2[H:12]"
C        0.56605891       1.56268937      -0.06732643
C        1.23366994       0.58507917      -0.50972549
C        0.79537411      -0.80655604      -0.65771810
N        0.50605214      -1.58245005       0.53580869
C       -0.63634900      -1.01198438      -0.17760006
C       -1.15646790       0.25458061       0.29341363
C       -1.50701313       1.38508454       0.69391462
H        1.95594204       1.82943869      -0.45420651
H        1.15417512      -1.35600373      -1.51857036
H        0.70428901      -1.03928642       1.36946273
H       -1.28690510      -1.73041952      -0.65811242
H       -2.32882614       1.90982776       1.15065970
12
Frame=16 idx=011025 GeodesicLength=1.8133611716377336 rxn_smarts="[C:1](#[C:2][C@:3]1([H:9])[N:4]([H:10])[C@@:5]1([C:6]#[C:7][H:12])[H:11])[H:8]>>[C:1]12=[C:2]([H:8])[C@@:3]3([H:9])[N:4]([H:10])[C@@:5]3([H:11])[C:6]1=[C:7]2[H:12]"
C        0.55055539       1.53632327      -0.05469732
C        1.23926074       0.57508582      -0.49839776
C        0.79854705      -0.81527211      -0.65575861
N        0.50094930      -1.59229881       0.53458144
C       -0.63742304      -1.01481304      -0.17963987
C       -1.14098160       0.25978526       0.28898697
C       -1.47654409       1.39797400       0.69176859
H        1.90901651       1.87986971      -0.45787898
H        1.15727231      -1.36280420      -1.51791322
H        0.69962851      -1.05312812       1.37073244
H       -1.29256546      -1.72902198      -0.66009087
H       -2.30771562       1.91830018       1.13830719
