16
Frame=0 idx=003237 GeodesicLength=0.0 rxn_smarts="[C:1]([O:2][C@@:3]1([H:10])[C:4]([H:11])([H:12])[C@:5]1([C:6]([H:14])([H:15])[H:16])[H:13])([H:7])([H:8])[H:9]>>[C:1]([O:2][C:6]([H:14])([H:15])[H:16])([H:7])([H:8])[H:9].[C:3]1([H:10])=[C:5]([H:13])[C:4]1([H:11])[H:12]"
C       -1.66381817      -0.97700816       0.24399967
O       -0.59636719      -0.09646572       0.58647036
C       -0.27981785       0.85244990      -0.50164834
C        0.84182472       1.78139105      -0.20093435
C        1.00175998       0.54936956      -1.05088913
C        0.97253039      -1.07735333       0.75613774
H       -1.73101625      -1.74073772       1.01720753
H       -1.47888052      -1.44091676      -0.72981091
H       -2.59827388      -0.41618444       0.21881412
H       -1.19657394       1.15261313      -0.99684502
H        1.25508045       1.79236209       0.80722069
H        0.77655544       2.77616654      -0.63875906
H        1.23459615       0.60371953      -2.10826606
H        1.15567615      -1.78233487      -0.03964604
H        0.48129190      -1.50856314       1.62683833
H        1.82543256      -0.46850765       1.01011054
16
Frame=1 idx=003237 GeodesicLength=0.10466596122082518 rxn_smarts="[C:1]([O:2][C@@:3]1([H:10])[C:4]([H:11])([H:12])[C@:5]1([C:6]([H:14])([H:15])[H:16])[H:13])([H:7])([H:8])[H:9]>>[C:1]([O:2][C:6]([H:14])([H:15])[H:16])([H:7])([H:8])[H:9].[C:3]1([H:10])=[C:5]([H:13])[C:4]1([H:11])[H:12]"
C       -1.68267643      -0.98863430       0.24894667
O       -0.60714534      -0.11553398       0.56591790
C       -0.27409697       0.86306708      -0.51754706
C        0.83876222       1.79375753      -0.19020916
C        1.01455862       0.57162574      -1.05106194
C        0.97642261      -1.07615737       0.73984227
H       -1.76070021      -1.71897843       1.05338572
H       -1.49119365      -1.49209122      -0.70380186
H       -2.61157563      -0.42034776       0.19722122
H       -1.19209760       1.14605083      -1.01932092
H        1.24614820       1.79713793       0.82009554
H        0.77209004       2.79409909      -0.61456379
H        1.26804804       0.63406216      -2.10300768
H        1.12960371      -1.81428174      -0.03321303
H        0.50600660      -1.46255864       1.64263975
H        1.86784578      -0.51121693       0.96467635
16
Frame=2 idx=003237 GeodesicLength=0.2092294566086853 rxn_smarts="[C:1]([O:2][C@@:3]1([H:10])[C:4]([H:11])([H:12])[C@:5]1([C:6]([H:14])([H:15])[H:16])[H:13])([H:7])([H:8])[H:9]>>[C:1]([O:2][C:6]([H:14])([H:15])[H:16])([H:7])([H:8])[H:9].[C:3]1([H:10])=[C:5]([H:13])[C:4]1([H:11])[H:12]"
C       -1.70160981      -1.00064707       0.25416162
O       -0.61780522      -0.13543421       0.54385205
C       -0.26804126       0.87424546      -0.53364265
C        0.83542331       1.80618879      -0.17873446
C        1.02769569       0.59466078      -1.05078637
C        0.98071644      -1.07495665       0.72249084
H       -1.79074373      -1.69394070       1.09020747
H       -1.50407638      -1.54547511      -0.67436651
H       -2.62448008      -0.42579423       0.17385879
H       -1.18688437       1.13913917      -1.04252400
H        1.23676359       1.80151158       0.83369104
H        0.76710749       2.81210001      -0.58905682
H        1.30217344       0.66572425      -2.09667852
H        1.10299983      -1.84698585      -0.02392505
H        0.53241455      -1.41333465       1.65548403
H        1.90834651      -0.55700156       0.91596854
16
Frame=3 idx=003237 GeodesicLength=0.3136538133748219 rxn_smarts="[C:1]([O:2][C@@:3]1([H:10])[C:4]([H:11])([H:12])[C@:5]1([C:6]([H:14])([H:15])[H:16])[H:13])([H:7])([H:8])[H:9]>>[C:1]([O:2][C:6]([H:14])([H:15])[H:16])([H:7])([H:8])[H:9].[C:3]1([H:10])=[C:5]([H:13])[C:4]1([H:11])[H:12]"
C       -1.72055932      -1.01296844       0.25977559
O       -0.62817395      -0.15630940       0.52010485
C       -0.26156345       0.88596633      -0.54995903
C        0.83169818       1.81877057      -0.16648991
C        1.04131300       0.61857773      -1.04992791
C        0.98545367      -1.07405109       0.70373846
H       -1.82106609      -1.66509357       1.12762319
H       -1.51767499      -1.60106176      -0.64087817
H       -2.63684771      -0.43262726       0.14873795
H       -1.18075660       1.13175346      -1.06657407
H        1.22670588       1.80558172       0.84805788
H        0.76140611       2.83020318      -0.56226760
H        1.33716538       0.69877428      -2.08908669
H        1.07602458      -1.88052916      -0.01168908
H        0.56058181      -1.36119075       1.66464437
H        1.94629353      -0.60579584       0.86419017
16
Frame=4 idx=003237 GeodesicLength=0.41792188715702805 rxn_smarts="[C:1]([O:2][C@@:3]1([H:10])[C:4]([H:11])([H:12])[C@:5]1([C:6]([H:14])([H:15])[H:16])[H:13])([H:7])([H:8])[H:9]>>[C:1]([O:2][C:6]([H:14])([H:15])[H:16])([H:7])([H:8])[H:9].[C:3]1([H:10])=[C:5]([H:13])[C:4]1([H:11])[H:12]"
C       -1.73947061      -1.02549307       0.26593977
O       -0.63809029      -0.17831112       0.49448994
C       -0.25457858       0.89819299      -0.56653600
C        0.82744714       1.83158807      -0.15344082
C        1.05555716       0.64347421      -1.04832629
C        0.99065656      -1.07378698       0.68320276
H       -1.85156764      -1.63177384       1.16556667
H       -1.53215199      -1.65880946      -0.60257761
H       -2.64854845      -0.44098605       0.12182342
H       -1.17351556       1.12374109      -1.09163125
H        1.21569836       1.80943491       0.86327543
H        0.75474443       2.84844654      -0.53420979
H        1.37325172       0.73328602      -2.08000088
H        1.04885555      -1.91496527       0.00354729
H        0.59056405      -1.30658266       1.66932382
H        1.98114816      -0.65745537       0.80955355
16
Frame=5 idx=003237 GeodesicLength=0.5220264999923462 rxn_smarts="[C:1]([O:2][C@@:3]1([H:10])[C:4]([H:11])([H:12])[C@:5]1([C:6]([H:14])([H:15])[H:16])[H:13])([H:7])([H:8])[H:9]>>[C:1]([O:2][C:6]([H:14])([H:15])[H:16])([H:7])([H:8])[H:9].[C:3]1([H:10])=[C:5]([H:13])[C:4]1([H:11])[H:12]"
C       -1.75829712      -1.03808590       0.27286822
O       -0.64743984      -0.20162776       0.46675828
C       -0.24697752       0.91083599      -0.58344907
C        0.82247834       1.84471051      -0.13953246
C        1.07063285       0.66946703      -1.04576785
C        0.99631823      -1.07457035       0.66041059
H       -1.88217054      -1.59302411       1.20405216
H       -1.54771746      -1.71865682      -0.55844056
H       -2.65942636      -0.45106924       0.09303982
H       -1.16489711       1.11483042      -1.11795779
H        1.20334478       1.81312051       0.87943731
H        0.74681524       2.86684562      -0.50486436
H        1.41079791       0.76939472      -2.06908738
H        1.02170659      -1.95021767       0.02163318
H        0.62240190      -1.25025710       1.66860370
H        2.01243012      -0.71169585       0.75229620
16
Frame=6 idx=003237 GeodesicLength=0.6258397178906812 rxn_smarts="[C:1]([O:2][C@@:3]1([H:10])[C:4]([H:11])([H:12])[C@:5]1([C:6]([H:14])([H:15])[H:16])[H:13])([H:7])([H:8])[H:9]>>[C:1]([O:2][C:6]([H:14])([H:15])[H:16])([H:7])([H:8])[H:9].[C:3]1([H:10])=[C:5]([H:13])[C:4]1([H:11])[H:12]"
C       -1.77694493      -1.05056938       0.28068088
O       -0.65612816      -0.22637137       0.43672589
C       -0.23872482       0.92386152      -0.60070820
C        0.81662368       1.85812726      -0.12472472
C        1.08655404       0.69656861      -1.04205528
C        1.00237976      -1.07671707       0.63501454
H       -1.91260766      -1.54803484       1.24267413
H       -1.56440357      -1.78024403      -0.50749854
H       -2.66936920      -0.46322724       0.06225132
H       -1.15469649       1.10495841      -1.14564895
H        1.18934203       1.81658761       0.89661968
H        0.73738272       2.88534062      -0.47424453
H        1.44985138       0.80709163      -2.05605620
H        0.99481922      -1.98619582       0.04265876
H        0.65602872      -1.19295429       1.66172778
H        2.03989327      -0.76822162       0.69258345
16
Frame=7 idx=003237 GeodesicLength=0.729312789873589 rxn_smarts="[C:1]([O:2][C@@:3]1([H:10])[C:4]([H:11])([H:12])[C@:5]1([C:6]([H:14])([H:15])[H:16])[H:13])([H:7])([H:8])[H:9]>>[C:1]([O:2][C:6]([H:14])([H:15])[H:16])([H:7])([H:8])[H:9].[C:3]1([H:10])=[C:5]([H:13])[C:4]1([H:11])[H:12]"
C       -1.79530704      -1.06275051       0.28950684
O       -0.66413520      -0.25267308       0.40422169
C       -0.22978965       0.93722507      -0.61832536
C        0.80970306       1.87180189      -0.10898808
C        1.10332915       0.72476276      -1.03698638
C        1.00874366      -1.08054724       0.60668377
H       -1.94258348      -1.49595327       1.28088343
H       -1.58219885      -1.84298739      -0.44866687
H       -2.67825774      -0.47794551       0.02937892
H       -1.14269370       1.09406970      -1.17479508
H        1.17333610       1.81974580       0.91488033
H        0.72622210       2.90385800      -0.44237572
H        1.49047413       0.84633883      -2.04060627
H        0.96847517      -2.02264946       0.06660903
H        0.69130366      -1.13562162       1.64799592
H        2.06337861      -0.82667396       0.63058384
16
Frame=8 idx=003237 GeodesicLength=0.8324031911185715 rxn_smarts="[C:1]([O:2][C@@:3]1([H:10])[C:4]([H:11])([H:12])[C@:5]1([C:6]([H:14])([H:15])[H:16])[H:13])([H:7])([H:8])[H:9]>>[C:1]([O:2][C:6]([H:14])([H:15])[H:16])([H:7])([H:8])[H:9].[C:3]1([H:10])=[C:5]([H:13])[C:4]1([H:11])[H:12]"
C       -1.81326024      -1.07443036       0.29944986
O       -0.67150911      -0.28063079       0.36910427
C       -0.22018352       0.95088134      -0.63629479
C        0.80156080       1.88563265      -0.09228645
C        1.12087735       0.75397088      -1.03036617
C        1.01528253      -1.08631002       0.57515239
H       -1.97176243      -1.43586593       1.31792228
H       -1.60094725      -1.90607288      -0.38074664
H       -2.68601129      -0.49593732      -0.00574048
H       -1.12871574       1.08218747      -1.20541488
H        1.15502142       1.82242199       0.93427695
H        0.71317220       2.92227103      -0.40926746
H        1.53262268       0.88705138      -2.02243179
H        0.94298463      -2.05915500       0.09339371
H        0.72799966      -1.07932309       1.62687088
H        2.08286830      -0.88669136       0.56637831
16
Frame=9 idx=003237 GeodesicLength=0.9349424625576995 rxn_smarts="[C:1]([O:2][C@@:3]1([H:10])[C:4]([H:11])([H:12])[C@:5]1([C:6]([H:14])([H:15])[H:16])[H:13])([H:7])([H:8])[H:9]>>[C:1]([O:2][C:6]([H:14])([H:15])[H:16])([H:7])([H:8])[H:9].[C:3]1([H:10])=[C:5]([H:13])[C:4]1([H:11])[H:12]"
C       -1.83063093      -1.08533705       0.31061109
O       -0.67843911      -0.31031587       0.33129505
C       -0.20992800       0.96471043      -0.65454251
C        0.79201509       1.89940542      -0.07458199
C        1.13910762       0.78398659      -1.02195918
C        1.02183105      -1.09418527       0.54018826
H       -1.99979163      -1.36690512       1.35271151
H       -1.62036691      -1.96820917      -0.30260044
H       -2.69246497      -0.51802892      -0.04303028
H       -1.11260283       1.06921990      -1.23747412
H        1.13404102       1.82437675       0.95479976
H        0.69806494       2.94030294      -0.37491960
H        1.57622247       0.92895186      -2.00117658
H        0.91869957      -2.09501849       0.12253887
H        0.76585539      -1.02520553       1.59803385
H        2.09838723      -0.94774847       0.50010630
16
Frame=10 idx=003237 GeodesicLength=1.0368447888411951 rxn_smarts="[C:1]([O:2][C@@:3]1([H:10])[C:4]([H:11])([H:12])[C@:5]1([C:6]([H:14])([H:15])[H:16])[H:13])([H:7])([H:8])[H:9]>>[C:1]([O:2][C:6]([H:14])([H:15])[H:16])([H:7])([H:8])[H:9].[C:3]1([H:10])=[C:5]([H:13])[C:4]1([H:11])[H:12]"
C       -1.84720991      -1.09531900       0.32286152
O       -0.68508889      -0.34163204       0.29100434
C       -0.19917997       0.97874395      -0.67290121
C        0.78111125       1.91285542      -0.05595100
C        1.15759655       0.81447402      -1.01171113
C        1.02816590      -1.10414106       0.50194947
H       -2.02622802      -1.28903285       1.38356881
H       -1.63972246      -2.02761547      -0.21364758
H       -2.69765312      -0.54535003      -0.08233524
H       -1.09445249       1.05565301      -1.27050972
H        1.11047674       1.82527625       0.97634560
H        0.68109889       2.95769613      -0.33950723
H        1.62065640       0.97159878      -1.97677336
H        0.89596183      -2.12950082       0.15406396
H        0.80439702      -0.97413494       1.56167588
H        2.11007027      -1.00957136       0.43186688
16
Frame=11 idx=003237 GeodesicLength=1.1380470239573963 rxn_smarts="[C:1]([O:2][C@@:3]1([H:10])[C:4]([H:11])([H:12])[C@:5]1([C:6]([H:14])([H:15])[H:16])[H:13])([H:7])([H:8])[H:9]>>[C:1]([O:2][C:6]([H:14])([H:15])[H:16])([H:7])([H:8])[H:9].[C:3]1([H:10])=[C:5]([H:13])[C:4]1([H:11])[H:12]"
C       -1.86278349      -1.10407322       0.33625438
O       -0.69181950      -0.37451203       0.24845039
C       -0.18802109       0.99281547      -0.69124741
C        0.76875781       1.92565083      -0.03638498
C        1.17615504       0.84503424      -0.99947412
C        1.03405779      -1.11613234       0.46047657
H       -2.05069779      -1.20200967       1.40887985
H       -1.65836600      -2.08216078      -0.11321792
H       -2.70148878      -0.57899766      -0.12312728
H       -1.07424645       1.04139035      -1.30434512
H        1.08414395       1.82481075       0.99883197
H        0.66225722       2.97407867      -0.30303822
H        1.66571998       1.01447049      -1.94898725
H        0.87510607      -2.16161366       0.18692212
H        0.84320188      -0.92708602       1.51811401
H        2.11802336      -1.07166543       0.36189301
16
Frame=12 idx=003237 GeodesicLength=1.2385954332960742 rxn_smarts="[C:1]([O:2][C@@:3]1([H:10])[C:4]([H:11])([H:12])[C@:5]1([C:6]([H:14])([H:15])[H:16])[H:13])([H:7])([H:8])[H:9]>>[C:1]([O:2][C:6]([H:14])([H:15])[H:16])([H:7])([H:8])[H:9].[C:3]1([H:10])=[C:5]([H:13])[C:4]1([H:11])[H:12]"
C       -1.87718480      -1.11162581       0.35040098
O       -0.69893672      -0.40854435       0.20454337
C       -0.17669762       1.00701653      -0.70921541
C        0.75534517       1.93749303      -0.01615944
C        1.19420261       0.87511948      -0.98543314
C        1.03924755      -1.12978138       0.41649404
H       -2.07327524      -1.10772909       1.42635526
H       -1.67497886      -2.12921822      -0.00245585
H       -2.70417157      -0.61996682      -0.16428869
H       -1.05246217       1.02714503      -1.33804166
H        1.05575762       1.82270359       1.02187592
H        0.64221155       2.98916866      -0.26598551
H        1.71041871       1.05675473      -1.91817452
H        0.85638487      -2.19040911       0.22109640
H        0.88179202      -0.88432693       1.46841923
H        2.12234687      -1.13379935       0.29056899
16
Frame=13 idx=003237 GeodesicLength=1.3383770166473938 rxn_smarts="[C:1]([O:2][C@@:3]1([H:10])[C:4]([H:11])([H:12])[C@:5]1([C:6]([H:14])([H:15])[H:16])[H:13])([H:7])([H:8])[H:9]>>[C:1]([O:2][C:6]([H:14])([H:15])[H:16])([H:7])([H:8])[H:9].[C:3]1([H:10])=[C:5]([H:13])[C:4]1([H:11])[H:12]"
C       -1.89017370      -1.11776217       0.36514970
O       -0.70682737      -0.44331837       0.16030622
C       -0.16529598       1.02118572      -0.72651538
C        0.74103761       1.94816607       0.00453386
C        1.21145400       0.90410089      -0.96965068
C        1.04343038      -1.14469467       0.37058636
H       -2.09372339      -1.00842908       1.43442263
H       -1.68878398      -2.16607722       0.11676580
H       -2.70563181      -0.66856789      -0.20413194
H       -1.02921508       1.01264656      -1.37107501
H        1.02565287       1.81905948       1.04508588
H        0.62124865       3.00271067      -0.22861109
H        1.75421694       1.09733482      -1.88451612
H        0.83984137      -2.21490917       0.25525605
H        0.91973144      -0.84599818       1.41362370
H        2.12303806      -1.19544747       0.21877000
16
Frame=14 idx=003237 GeodesicLength=1.4376838900539484 rxn_smarts="[C:1]([O:2][C@@:3]1([H:10])[C:4]([H:11])([H:12])[C@:5]1([C:6]([H:14])([H:15])[H:16])[H:13])([H:7])([H:8])[H:9]>>[C:1]([O:2][C:6]([H:14])([H:15])[H:16])([H:7])([H:8])[H:9].[C:3]1([H:10])=[C:5]([H:13])[C:4]1([H:11])[H:12]"
C       -1.90188996      -1.12289579       0.38003622
O       -0.71581311      -0.47814388       0.11703955
C       -0.15404122       1.03554133      -0.74284147
C        0.72656506       1.95750056       0.02537481
C        1.22750777       0.93161339      -0.95264169
C        1.04643719      -1.16021431       0.32374771
H       -2.11334339      -0.90716116       1.43173850
H       -1.69831994      -2.19110288       0.24195285
H       -2.70624124      -0.72511743      -0.24131108
H       -1.00526951       0.99858079      -1.40248925
H        0.99515664       1.81368022       1.06808993
H        0.60045187       3.01456419      -0.19142848
H        1.79633704       1.13574379      -1.84883405
H        0.82561284      -2.23438048       0.28945463
H        0.95672268      -0.81174065       1.35521201
H        2.12012728      -1.25646767       0.14689979
16
Frame=15 idx=003237 GeodesicLength=1.536773149646283 rxn_smarts="[C:1]([O:2][C@@:3]1([H:10])[C:4]([H:11])([H:12])[C@:5]1([C:6]([H:14])([H:15])[H:16])[H:13])([H:7])([H:8])[H:9]>>[C:1]([O:2][C:6]([H:14])([H:15])[H:16])([H:7])([H:8])[H:9].[C:3]1([H:10])=[C:5]([H:13])[C:4]1([H:11])[H:12]"
C       -1.91253104      -1.12720353       0.39487835
O       -0.72617260      -0.51240963       0.07619417
C       -0.14297867       1.05026108      -0.75790110
C        0.71250858       1.96579002       0.04597405
C        1.24230488       0.95733163      -0.93483743
C        1.04814324      -1.17584548       0.27684127
H       -2.13275527      -0.80812176       1.41838648
H       -1.70361246      -2.20317267       0.36924429
H       -2.70614692      -0.78888072      -0.27413838
H       -0.98090004       0.98476742      -1.43164999
H        0.96536071       1.80727683       1.09029345
H        0.58055259       3.02512311      -0.15491013
H        1.83631640       1.17103787      -1.81197872
H        0.81352804      -2.24848182       0.32266281
H        0.99253222      -0.78106371       1.29441740
H        2.11385033      -1.31640865       0.07652346
16
Frame=16 idx=003237 GeodesicLength=1.635120245986936 rxn_smarts="[C:1]([O:2][C@@:3]1([H:10])[C:4]([H:11])([H:12])[C@:5]1([C:6]([H:14])([H:15])[H:16])[H:13])([H:7])([H:8])[H:9]>>[C:1]([O:2][C:6]([H:14])([H:15])[H:16])([H:7])([H:8])[H:9].[C:3]1([H:10])=[C:5]([H:13])[C:4]1([H:11])[H:12]"
C       -1.92205554      -1.13110862       0.40932480
O       -0.73787932      -0.54568258       0.03830675
C       -0.13212914       1.06537929      -0.77159222
C        0.69932909       1.97272957       0.06636259
C        1.25559986       0.98108242      -0.91670237
C        1.04830970      -1.19087924       0.23036109
H       -2.15344098      -0.71269013       1.39413309
H       -1.70359621      -2.20200680       0.49688381
H       -2.70487021      -0.85973504      -0.30192087
H       -0.95650664       0.97134598      -1.45792434
H        0.93711222       1.79949818       1.11169100
H        0.56227652       3.03396563      -0.11887468
H        1.87372652       1.20311789      -1.77453678
H        0.80351128      -2.25671327       0.35491437
H        1.02686076      -0.75315464       1.23206945
H        2.10375208      -1.37514863       0.00750430
