14
Frame=0 idx=007376 GeodesicLength=0.0 rxn_smarts="[C:1]1([H:8])([H:9])[C@@:2]2([H:10])[C:3]([H:11])([H:12])[O:4][C:5]([H:13])=[N:6][C@@:7]12[H:14]>>[C:1]1([H:8])([H:9])[C@:5]2([H:13])[O:4][C:3]([H:11])([H:12])[C:2]([H:10])=[C:7]([H:14])[N:6]12"
C       -1.61892690      -0.55156080       1.44263606
C       -0.25631501       0.54981016      -1.16402372
C        0.49906815       1.46417901      -0.25371915
O        1.60626836       0.77720439       0.35889708
C        1.47770245      -0.53256174       0.56659690
N        0.66805278      -1.33458071       0.00520941
C       -0.14809419      -0.76274497      -0.99351489
H       -1.26508254      -1.52435895       1.83101049
H       -2.40810482      -0.84588426       0.72321354
H       -0.88933978       0.97558816      -1.93171663
H       -0.14356887       1.84821450       0.54601045
H        0.93684359       2.30569924      -0.79090735
H        2.21197571      -0.89427729       1.28062750
H       -0.67047894      -1.47472676      -1.62031969
14
Frame=1 idx=007376 GeodesicLength=0.1485115514169527 rxn_smarts="[C:1]1([H:8])([H:9])[C@@:2]2([H:10])[C:3]([H:11])([H:12])[O:4][C:5]([H:13])=[N:6][C@@:7]12[H:14]>>[C:1]1([H:8])([H:9])[C@:5]2([H:13])[O:4][C:3]([H:11])([H:12])[C:2]([H:10])=[C:7]([H:14])[N:6]12"
C       -1.55235441      -0.57388220       1.38929311
C       -0.28818025       0.55533102      -1.13607770
C        0.50358132       1.47100492      -0.25941229
O        1.58442111       0.77860812       0.38875721
C        1.43841949      -0.52933371       0.60545354
N        0.65959540      -1.33858955       0.00343463
C       -0.16294579      -0.76229969      -0.98675202
H       -1.24254256      -1.54144208       1.82145946
H       -2.38502791      -0.85411151       0.71745621
H       -0.91933168       0.98198192      -1.90498049
H       -0.12704271       1.90784493       0.52236088
H        0.97139129       2.27601527      -0.82727867
H        2.19125543      -0.90037034       1.29514988
H       -0.67123874      -1.47075709      -1.62886376
14
Frame=2 idx=007376 GeodesicLength=0.2969730558633227 rxn_smarts="[C:1]1([H:8])([H:9])[C@@:2]2([H:10])[C:3]([H:11])([H:12])[O:4][C:5]([H:13])=[N:6][C@@:7]12[H:14]>>[C:1]1([H:8])([H:9])[C@:5]2([H:13])[O:4][C:3]([H:11])([H:12])[C:2]([H:10])=[C:7]([H:14])[N:6]12"
C       -1.49070316      -0.59585633       1.33767572
C       -0.31822574       0.56043822      -1.10889926
C        0.50686710       1.47607728      -0.26391645
O        1.56089083       0.78066376       0.42029934
C        1.40280096      -0.52707971       0.63946031
N        0.65300912      -1.34187872       0.00044218
C       -0.17618957      -0.76199840      -0.98154433
H       -1.21844836      -1.55289608       1.81248508
H       -2.36134913      -0.86012423       0.71186833
H       -0.94849858       0.98838625      -1.87794927
H       -0.11133403       1.96273802       0.49785494
H        1.00335322       2.24339516      -0.85973731
H        2.17014081      -0.90542871       1.30925376
H       -0.67231349      -1.46643652      -1.63729302
14
Frame=3 idx=007376 GeodesicLength=0.44546236882889123 rxn_smarts="[C:1]1([H:8])([H:9])[C@@:2]2([H:10])[C:3]([H:11])([H:12])[O:4][C:5]([H:13])=[N:6][C@@:7]12[H:14]>>[C:1]1([H:8])([H:9])[C@:5]2([H:13])[O:4][C:3]([H:11])([H:12])[C:2]([H:10])=[C:7]([H:14])[N:6]12"
C       -1.43320223      -0.61750857       1.28772880
C       -0.34659257       0.56514307      -1.08253504
C        0.50909342       1.47973193      -0.26740983
O        1.53566953       0.78343213       0.45326166
C        1.37044362      -0.52567203       0.66929513
N        0.64797750      -1.34457150      -0.00362697
C       -0.18809280      -0.76178789      -0.97769036
H       -1.19321946      -1.55991486       1.80386364
H       -2.33718636      -0.86406506       0.70650462
H       -0.97696496       0.99477606      -1.85071551
H       -0.09631517       2.01366488       0.47237602
H        1.03314470       2.20821653      -0.88856705
H        2.14904455      -0.90960485       1.32313671
H       -0.67379979      -1.46183985      -1.64562185
14
Frame=4 idx=007376 GeodesicLength=0.5940316535833312 rxn_smarts="[C:1]1([H:8])([H:9])[C@@:2]2([H:10])[C:3]([H:11])([H:12])[O:4][C:5]([H:13])=[N:6][C@@:7]12[H:14]>>[C:1]1([H:8])([H:9])[C@:5]2([H:13])[O:4][C:3]([H:11])([H:12])[C:2]([H:10])=[C:7]([H:14])[N:6]12"
C       -1.37930119      -0.63886809       1.23934431
C       -0.37344412       0.56944189      -1.05695694
C        0.51038466       1.48221934      -0.27000243
O        1.50869723       0.78689360       0.48742607
C        1.34085394      -0.52493370       0.69571184
N        0.64428118      -1.34672764      -0.00861328
C       -0.19884439      -0.76163902      -0.97499752
H       -1.16725754      -1.56333102       1.79542046
H       -2.31266259      -0.86603196       0.70139248
H       -1.00477399       1.00109361      -1.82337444
H       -0.08184747       2.06119970       0.44586129
H        1.06109228       2.17075561      -0.91393247
H        2.12849892      -0.91301418       1.33656862
H       -0.67567692      -1.45705814      -1.65384800
14
Frame=5 idx=007376 GeodesicLength=0.7426985654633858 rxn_smarts="[C:1]1([H:8])([H:9])[C@@:2]2([H:10])[C:3]([H:11])([H:12])[O:4][C:5]([H:13])=[N:6][C@@:7]12[H:14]>>[C:1]1([H:8])([H:9])[C@:5]2([H:13])[O:4][C:3]([H:11])([H:12])[C:2]([H:10])=[C:7]([H:14])[N:6]12"
C       -1.32853969      -0.65997333       1.19242463
C       -0.39891153       0.57331484      -1.03212407
C        0.51083742       1.48368464      -0.27176743
O        1.47992405       0.79093996       0.52250229
C        1.31356072      -0.52469189       0.71930206
N        0.64174404      -1.34834634      -0.01440771
C       -0.20857258      -0.76152602      -0.97333319
H       -1.14090755      -1.56366812       1.78703608
H       -2.28779287      -0.86609386       0.69658819
H       -1.03188805       1.00725680      -1.79600419
H       -0.06776800       2.10564634       0.41835563
H        1.08738511       2.13126521      -0.93588870
H        2.10880650      -0.91565016       1.34929470
H       -0.67787757      -1.45215806      -1.66197830
14
Frame=6 idx=007376 GeodesicLength=0.8915111304359483 rxn_smarts="[C:1]1([H:8])([H:9])[C@@:2]2([H:10])[C:3]([H:11])([H:12])[O:4][C:5]([H:13])=[N:6][C@@:7]12[H:14]>>[C:1]1([H:8])([H:9])[C@:5]2([H:13])[O:4][C:3]([H:11])([H:12])[C:2]([H:10])=[C:7]([H:14])[N:6]12"
C       -1.28060225      -0.68079913       1.14676235
C       -0.42318544       0.57676863      -1.00795514
C        0.51055041       1.48428892      -0.27276596
O        1.44933536       0.79545594       0.55824705
C        1.28823560      -0.52483447       0.74055692
N        0.64028054      -1.34947918      -0.02091580
C       -0.21739816      -0.76145557      -0.97256716
H       -1.11430857      -1.56130667       1.77862028
H       -2.26269434      -0.86440402       0.69210689
H       -1.05839119       1.01325734      -1.76863490
H       -0.05388988       2.14731611       0.38989249
H        1.11221345       2.08995928      -0.95451020
H        2.09018516      -0.91753982       1.36119521
H       -0.68033068      -1.44722736      -1.67003203
14
Frame=7 idx=007376 GeodesicLength=1.040489860400807 rxn_smarts="[C:1]1([H:8])([H:9])[C@@:2]2([H:10])[C:3]([H:11])([H:12])[O:4][C:5]([H:13])=[N:6][C@@:7]12[H:14]>>[C:1]1([H:8])([H:9])[C@:5]2([H:13])[O:4][C:3]([H:11])([H:12])[C:2]([H:10])=[C:7]([H:14])[N:6]12"
C       -1.23513229      -0.70138754       1.10225120
C       -0.44637363       0.57978341      -0.98444721
C        0.50959641       1.48411372      -0.27305133
O        1.41698989       0.80027120       0.59431626
C        1.26456363      -0.52525379       0.75983192
N        0.63978117      -1.35013012      -0.02807452
C       -0.22541258      -0.76142952      -0.97265357
H       -1.08766280      -1.55646979       1.77014121
H       -2.23729572      -0.86099823       0.68800177
H       -1.08428018       1.01903499      -1.74135339
H       -0.04003365       2.18626173       0.36064455
H        1.13559856       2.04717452      -0.96980247
H        2.07266341      -0.91863400       1.37225045
H       -0.68300222      -1.44233659      -1.67805487
14
Frame=8 idx=007376 GeodesicLength=1.1896771436884377 rxn_smarts="[C:1]1([H:8])([H:9])[C@@:2]2([H:10])[C:3]([H:11])([H:12])[O:4][C:5]([H:13])=[N:6][C@@:7]12[H:14]>>[C:1]1([H:8])([H:9])[C@:5]2([H:13])[O:4][C:3]([H:11])([H:12])[C:2]([H:10])=[C:7]([H:14])[N:6]12"
C       -1.19183818      -0.72172735       1.05875111
C       -0.46857807       0.58232742      -0.96157710
C        0.50802919       1.48322293      -0.27266682
O        1.38296497       0.80521163       0.63038010
C        1.24230416      -0.52587170       0.77739601
N        0.64019391      -1.35031710      -0.03583851
C       -0.23267415      -0.76146776      -0.97353568
H       -1.06109847      -1.54932638       1.76149920
H       -2.21154280      -0.85583201       0.68434112
H       -1.10958658       1.02452808      -1.71419350
H       -0.02607533       2.22248950       0.33081530
H        1.15753327       2.00322350      -0.98179887
H        2.05620068      -0.91889828       1.38248580
H       -0.68583262      -1.43756248      -1.68605814
14
Frame=9 idx=007376 GeodesicLength=1.3390945541614745 rxn_smarts="[C:1]1([H:8])([H:9])[C@@:2]2([H:10])[C:3]([H:11])([H:12])[O:4][C:5]([H:13])=[N:6][C@@:7]12[H:14]>>[C:1]1([H:8])([H:9])[C@:5]2([H:13])[O:4][C:3]([H:11])([H:12])[C:2]([H:10])=[C:7]([H:14])[N:6]12"
C       -1.15045739      -0.74179339       1.01614909
C       -0.48985501       0.58435695      -0.93936830
C        0.50588670       1.48166490      -0.27164392
O        1.34741059       0.81009211       0.66609437
C        1.22125775      -0.52664352       0.79344927
N        0.64145749      -1.35007926      -0.04417384
C       -0.23923072      -0.76161329      -0.97519356
H       -1.03474043      -1.53992684       1.75263671
H       -2.18532763      -0.84882878       0.68119983
H       -1.13430807       1.02966295      -1.68722421
H       -0.01196223       2.25591629       0.30069802
H        1.17794718       1.95852179      -0.99052990
H        2.04071346      -0.91832224       1.39197081
H       -0.68879169      -1.43300768      -1.69406438
14
Frame=10 idx=007376 GeodesicLength=1.4887905762222733 rxn_smarts="[C:1]1([H:8])([H:9])[C@@:2]2([H:10])[C:3]([H:11])([H:12])[O:4][C:5]([H:13])=[N:6][C@@:7]12[H:14]>>[C:1]1([H:8])([H:9])[C@:5]2([H:13])[O:4][C:3]([H:11])([H:12])[C:2]([H:10])=[C:7]([H:14])[N:6]12"
C       -1.11076432      -0.76153114       0.97433594
C       -0.51025431       0.58582687      -0.91784402
C        0.50319864       1.47948113      -0.27001382
O        1.31050376       0.81473287       0.70114372
C        1.20125998      -0.52754857       0.80814901
N        0.64352422      -1.34946050      -0.05303913
C       -0.24511330      -0.76190783      -0.97759754
H       -1.00868712      -1.52828393       1.74346643
H       -2.15851199      -0.83991670       0.67864743
H       -1.15846002       1.03436768      -1.66050149
H        0.00231595       2.28646296       0.27061147
H        1.19676414       1.91347889      -0.99608980
H        2.02607208      -0.91693852       1.40080126
H       -0.69184769      -1.42876322      -1.70206947
14
Frame=11 idx=007376 GeodesicLength=1.6388095975343 rxn_smarts="[C:1]1([H:8])([H:9])[C@@:2]2([H:10])[C:3]([H:11])([H:12])[O:4][C:5]([H:13])=[N:6][C@@:7]12[H:14]>>[C:1]1([H:8])([H:9])[C@:5]2([H:13])[O:4][C:3]([H:11])([H:12])[C:2]([H:10])=[C:7]([H:14])[N:6]12"
C       -1.07255823      -0.78086399       0.93323994
C       -0.52980028       0.58669045      -0.89704911
C        0.49998625       1.47670995      -0.26780167
O        1.27245628       0.81896438       0.73525087
C        1.18217542      -0.52858861       0.82161487
N        0.64633134      -1.34851777      -0.06239465
C       -0.25035420      -0.76240157      -0.98072880
H       -0.98304096      -1.51435683       1.73390698
H       -2.13091536      -0.82903471       0.67674456
H       -1.18203375       1.03856405      -1.63410026
H        0.01670101       2.31405002       0.24090794
H        1.21390883       1.86853330      -0.99860511
H        2.01214064      -0.91481596       1.40907684
H       -0.69499699      -1.42493271      -1.71006242
14
Frame=12 idx=007376 GeodesicLength=1.7892022975401158 rxn_smarts="[C:1]1([H:8])([H:9])[C@@:2]2([H:10])[C:3]([H:11])([H:12])[O:4][C:5]([H:13])=[N:6][C@@:7]12[H:14]>>[C:1]1([H:8])([H:9])[C@:5]2([H:13])[O:4][C:3]([H:11])([H:12])[C:2]([H:10])=[C:7]([H:14])[N:6]12"
C       -1.03567139      -0.79968088       0.89282885
C       -0.54851420       0.58691329      -0.87702143
C        0.49627606       1.47339580      -0.26503904
O        1.23348456       0.82264732       0.76819680
C        1.16389376      -0.52977142       0.83394538
N        0.64981149      -1.34730686      -0.07218827
C       -0.25499077      -0.76313802      -0.98454901
H       -0.95789945      -1.49814666       1.72382712
H       -2.10234164      -0.81617152       0.67553482
H       -1.20502456       1.04218535      -1.60808669
H        0.03110747       2.33865605       0.21191503
H        1.22934804       1.82407782      -0.99826518
H        1.99877766      -0.91204802       1.41689856
H       -0.69825703      -1.42161222      -1.71799694
14
Frame=13 idx=007376 GeodesicLength=1.940019299740965 rxn_smarts="[C:1]1([H:8])([H:9])[C@@:2]2([H:10])[C:3]([H:11])([H:12])[O:4][C:5]([H:13])=[N:6][C@@:7]12[H:14]>>[C:1]1([H:8])([H:9])[C@:5]2([H:13])[O:4][C:3]([H:11])([H:12])[C:2]([H:10])=[C:7]([H:14])[N:6]12"
C       -0.99996646      -0.81782198       0.85312887
C       -0.56641337       0.58648522      -0.85778761
C        0.49211045       1.46959267      -0.26177092
O        1.19380761       0.82568371       0.79981584
C        1.14632204      -0.53109576       0.84523007
N        0.65388052      -1.34587375      -0.08234759
C       -0.25907691      -0.76414753      -0.98899326
H       -0.93335972      -1.47975321       1.71303979
H       -2.07259503      -0.80140829       0.67502903
H       -1.22742424       1.04518777      -1.58251769
H        0.04545074       2.36032711       0.18390839
H        1.24309927       1.78044260      -0.99531665
H        1.98584349      -0.90873188       1.42436601
H       -0.70167840      -1.41888667      -1.72578429
14
Frame=14 idx=007376 GeodesicLength=2.091314206362711 rxn_smarts="[C:1]1([H:8])([H:9])[C@@:2]2([H:10])[C:3]([H:11])([H:12])[O:4][C:5]([H:13])=[N:6][C@@:7]12[H:14]>>[C:1]1([H:8])([H:9])[C@:5]2([H:13])[O:4][C:3]([H:11])([H:12])[C:2]([H:10])=[C:7]([H:14])[N:6]12"
C       -0.96533628      -0.83506645       0.81423147
C       -0.58352120       0.58543577      -0.83934608
C        0.48756399       1.46537298      -0.25806635
O        1.15366157       0.82802927       0.82998310
C        1.12938064      -0.53253555       0.85556626
N        0.65842764      -1.34423958      -0.09276633
C       -0.26269536      -0.76543051      -0.99395870
H       -0.90952026      -1.45940997       1.70132642
H       -2.04151698      -0.78502923       0.67514221
H       -1.24924243       1.04756403      -1.55741439
H        0.05970647       2.37921017       0.15707308
H        1.25523918       1.73787163      -0.99007264
H        1.97320628      -0.90496073       1.43159129
H       -0.70535328      -1.41681183      -1.73328932
14
Frame=15 idx=007376 GeodesicLength=2.243121214492447 rxn_smarts="[C:1]1([H:8])([H:9])[C@@:2]2([H:10])[C:3]([H:11])([H:12])[O:4][C:5]([H:13])=[N:6][C@@:7]12[H:14]>>[C:1]1([H:8])([H:9])[C@:5]2([H:13])[O:4][C:3]([H:11])([H:12])[C:2]([H:10])=[C:7]([H:14])[N:6]12"
C       -0.93169963      -0.85111516       0.77629857
C       -0.59986140       0.58384289      -0.82166357
C        0.48275127       1.46083017      -0.25402851
O        1.11330019       0.82971621       0.85859742
C        1.11299883      -0.53401846       0.86506836
N        0.66332704      -1.34238955      -0.10330025
C       -0.26595232      -0.76695650      -0.99929276
H       -0.88647417      -1.43762284       1.68840270
H       -2.00904869      -0.76747269       0.67572137
H       -1.27048997       1.04935391      -1.53276757
H        0.07392286       2.39552967       0.13148372
H        1.26589945       1.69650723      -0.98291020
H        1.96073722      -0.90078807       1.43869786
H       -0.70941067      -1.41541682      -1.74030714
14
Frame=16 idx=007376 GeodesicLength=2.3954317825812192 rxn_smarts="[C:1]1([H:8])([H:9])[C@@:2]2([H:10])[C:3]([H:11])([H:12])[O:4][C:5]([H:13])=[N:6][C@@:7]12[H:14]>>[C:1]1([H:8])([H:9])[C@:5]2([H:13])[O:4][C:3]([H:11])([H:12])[C:2]([H:10])=[C:7]([H:14])[N:6]12"
C       -0.89899158      -0.86560808       0.73954191
C       -0.61545370       0.58183427      -0.80468391
C        0.47782409       1.45608196      -0.24979132
O        1.07302287       0.83084983       0.88556385
C        1.09711921      -0.53543382       0.87387017
N        0.66843496      -1.34028287      -0.11377306
C       -0.26897385      -0.76866698      -1.00480944
H       -0.86430542      -1.41512190       1.67401353
H       -1.97528144      -0.74935460       0.67650946
H       -1.29117462       1.05064733      -1.50854659
H        0.08821864       2.40957051       0.10711871
H        1.27524664       1.65643144      -0.97424888
H        1.94832760      -0.89623897       1.44582084
H       -0.71401341      -1.41470812      -1.74658528
