9
Frame=0 idx=006701 GeodesicLength=0.0 rxn_smarts="[O:1]=[C:2]([c:3]1[n:4][c:5]([H:9])[n:6][o:7]1)[H:8]>>[O-:1][C:2](=[C:3]=[N:4][C:5](=[N+:6]=[O:7])[H:9])[H:8]"
O       -2.75521797      -0.24556127      -0.13998756
C       -1.99625415       0.67306938       0.01648211
C       -0.75945673       0.58553710       0.78619093
N        0.34933797       0.31831839       0.36428223
C        1.50697462      -0.04955045       0.05146039
N        1.87546001      -1.47822233       0.23564472
O        1.69900652      -2.13734592      -0.73417275
H       -2.21320359       1.69951848      -0.34083727
H        2.29335333       0.63423661      -0.23906282
9
Frame=1 idx=006701 GeodesicLength=0.09786508064852306 rxn_smarts="[O:1]=[C:2]([c:3]1[n:4][c:5]([H:9])[n:6][o:7]1)[H:8]>>[O-:1][C:2](=[C:3]=[N:4][C:5](=[N+:6]=[O:7])[H:9])[H:8]"
O       -2.71758394      -0.28586186      -0.19892525
C       -1.97825067       0.63818734       0.00881735
C       -0.74351840       0.52858029       0.78049390
N        0.38737876       0.39835751       0.35103567
C        1.54245925      -0.01905783       0.07769226
N        1.83720680      -1.45659158       0.24999293
O        1.55048671      -2.10734221      -0.70689817
H       -2.21628735       1.67751321      -0.29265874
H        2.33810884       0.62621513      -0.26954997
9
Frame=2 idx=006701 GeodesicLength=0.19428886373483079 rxn_smarts="[O:1]=[C:2]([c:3]1[n:4][c:5]([H:9])[n:6][o:7]1)[H:8]>>[O-:1][C:2](=[C:3]=[N:4][C:5](=[N+:6]=[O:7])[H:9])[H:8]"
O       -2.69258805      -0.30648845      -0.25830099
C       -1.96209734       0.61070306       0.00250366
C       -0.72796666       0.46264124       0.77008514
N        0.41531183       0.45299866       0.35077081
C        1.56798566       0.00514442       0.09487353
N        1.81673575      -1.43175377       0.26320831
O        1.43062552      -2.07730741      -0.66915896
H       -2.20717072       1.66242003      -0.24443044
H        2.35916402       0.62164221      -0.30955105
9
Frame=3 idx=006701 GeodesicLength=0.2902516983143211 rxn_smarts="[O:1]=[C:2]([c:3]1[n:4][c:5]([H:9])[n:6][o:7]1)[H:8]>>[O-:1][C:2](=[C:3]=[N:4][C:5](=[N+:6]=[O:7])[H:9])[H:8]"
O       -2.67686692      -0.31839858      -0.30436302
C       -1.94717283       0.58675408      -0.00372902
C       -0.71165958       0.39999410       0.75454734
N        0.43753445       0.49379799       0.35863294
C        1.58892335       0.02518703       0.11015231
N        1.80219361      -1.40898056       0.27241363
O        1.32874200      -2.04434250      -0.63424701
H       -2.19158059       1.64749945      -0.20779754
H        2.36988652       0.61848900      -0.34560964
9
Frame=4 idx=006701 GeodesicLength=0.3842111769860058 rxn_smarts="[O:1]=[C:2]([c:3]1[n:4][c:5]([H:9])[n:6][o:7]1)[H:8]>>[O-:1][C:2](=[C:3]=[N:4][C:5](=[N+:6]=[O:7])[H:9])[H:8]"
O       -2.67095387      -0.31886087      -0.34812930
C       -1.93557860       0.56779768      -0.00979627
C       -0.69632338       0.33519846       0.73098651
N        0.45382886       0.52185609       0.36772805
C        1.60606653       0.04165691       0.11992132
N        1.79677306      -1.38673874       0.28266945
O        1.24870972      -2.01570853      -0.59419174
H       -2.17445800       1.63742821      -0.16735746
H        2.37193567       0.61737080      -0.38183055
9
Frame=5 idx=006701 GeodesicLength=0.4770822995502586 rxn_smarts="[O:1]=[C:2]([c:3]1[n:4][c:5]([H:9])[n:6][o:7]1)[H:8]>>[O-:1][C:2](=[C:3]=[N:4][C:5](=[N+:6]=[O:7])[H:9])[H:8]"
O       -2.67212616      -0.31403380      -0.38314989
C       -1.92641939       0.55174410      -0.01566643
C       -0.68094532       0.27422598       0.70035894
N        0.46647123       0.54263629       0.37688567
C        1.62091716       0.05530221       0.12753279
N        1.79413341      -1.36631202       0.29257931
O        1.18382358      -1.98865302      -0.55610861
H       -2.15709249       1.62841873      -0.12978144
H        2.37123798       0.61667153      -0.41265035
9
Frame=6 idx=006701 GeodesicLength=0.5692042307020415 rxn_smarts="[O:1]=[C:2]([c:3]1[n:4][c:5]([H:9])[n:6][o:7]1)[H:8]>>[O-:1][C:2](=[C:3]=[N:4][C:5](=[N+:6]=[O:7])[H:9])[H:8]"
O       -2.67937380      -0.30590873      -0.40945652
C       -1.91939036       0.53803267      -0.02193007
C       -0.66539233       0.21793761       0.66241454
N        0.47630493       0.55845827       0.38395374
C        1.63429120       0.06660624       0.13406222
N        1.79268311      -1.34762845       0.30315196
O        1.13146946      -1.96322001      -0.52104735
H       -2.14104309       1.62000736      -0.09369600
H        2.37045088       0.61571504      -0.43745253
9
Frame=7 idx=006701 GeodesicLength=0.660979910001183 rxn_smarts="[O:1]=[C:2]([c:3]1[n:4][c:5]([H:9])[n:6][o:7]1)[H:8]>>[O-:1][C:2](=[C:3]=[N:4][C:5](=[N+:6]=[O:7])[H:9])[H:8]"
O       -2.69136036      -0.29743823      -0.42514267
C       -1.91379717       0.52579990      -0.02895237
C       -0.64939379       0.16795784       0.61835262
N        0.48430021       0.57141829       0.38869437
C        1.64675689       0.07591720       0.14082275
N        1.79030214      -1.33087015       0.31404961
O        1.08786522      -1.93812762      -0.49149713
H       -2.12642387       1.61125279      -0.06132235
H        2.37175074       0.61408998      -0.45500483
9
Frame=8 idx=006701 GeodesicLength=0.7529925665484736 rxn_smarts="[O:1]=[C:2]([c:3]1[n:4][c:5]([H:9])[n:6][o:7]1)[H:8]>>[O-:1][C:2](=[C:3]=[N:4][C:5](=[N+:6]=[O:7])[H:9])[H:8]"
O       -2.70527351      -0.29333618      -0.42681585
C       -1.90873383       0.51357557      -0.03562865
C       -0.63236313       0.12697405       0.57241345
N        0.49158973       0.58394862       0.39196202
C        1.65861769       0.08337345       0.14943471
N        1.78380817      -1.31668236       0.32297279
O        1.04722807      -1.91056325      -0.47179440
H       -2.11208216       1.60106028      -0.03962409
H        2.37720898       0.61164983      -0.46292000
9
Frame=9 idx=006701 GeodesicLength=0.8445480557610475 rxn_smarts="[O:1]=[C:2]([c:3]1[n:4][c:5]([H:9])[n:6][o:7]1)[H:8]>>[O-:1][C:2](=[C:3]=[N:4][C:5](=[N+:6]=[O:7])[H:9])[H:8]"
O       -2.72388107      -0.28842312      -0.42048052
C       -1.90539511       0.50317432      -0.04447558
C       -0.61533970       0.09018904       0.51776588
N        0.49720386       0.59459975       0.38974548
C        1.67003212       0.08929707       0.15821861
N        1.77699291      -1.30350380       0.33500720
O        1.01519958      -1.88483271      -0.45535525
H       -2.10104252       1.59148428      -0.01528247
H        2.38622994       0.60801518      -0.46514334
9
Frame=10 idx=006701 GeodesicLength=0.9362011444882753 rxn_smarts="[O:1]=[C:2]([c:3]1[n:4][c:5]([H:9])[n:6][o:7]1)[H:8]>>[O-:1][C:2](=[C:3]=[N:4][C:5](=[N+:6]=[O:7])[H:9])[H:8]"
O       -2.74325324      -0.28773716      -0.40215766
C       -1.90283848       0.49283910      -0.05333264
C       -0.59762142       0.06080101       0.45984575
N        0.50232033       0.60570603       0.38411230
C        1.68090580       0.09366676       0.16873440
N        1.76620627      -1.29220570       0.34667775
O        0.98547248      -1.85741197      -0.44718454
H       -2.09124716       1.58121097       0.00227059
H        2.40005543       0.60313096      -0.45896596
9
Frame=11 idx=006701 GeodesicLength=1.0277440165513967 rxn_smarts="[O:1]=[C:2]([c:3]1[n:4][c:5]([H:9])[n:6][o:7]1)[H:8]>>[O-:1][C:2](=[C:3]=[N:4][C:5](=[N+:6]=[O:7])[H:9])[H:8]"
O       -2.76288592      -0.28961481      -0.37466956
C       -1.90145126       0.48295800      -0.06208600
C       -0.57953721       0.03711260       0.39627128
N        0.50670394       0.61686545       0.37474585
C        1.69099877       0.09671411       0.18049759
N        1.75247551      -1.28208302       0.35951950
O        0.95937764      -1.82961621      -0.44480091
H       -2.08309151       1.57085150       0.01700530
H        2.41741004       0.59681237      -0.44648306
9
Frame=12 idx=006701 GeodesicLength=1.1192932524623596 rxn_smarts="[O:1]=[C:2]([c:3]1[n:4][c:5]([H:9])[n:6][o:7]1)[H:8]>>[O-:1][C:2](=[C:3]=[N:4][C:5](=[N+:6]=[O:7])[H:9])[H:8]"
O       -2.78111778      -0.29535671      -0.33641261
C       -1.90107207       0.47288199      -0.06929424
C       -0.56091948       0.01965855       0.32776575
N        0.51067600       0.62875530       0.36198310
C        1.70004295       0.09837706       0.19406532
N        1.73461479      -1.27331670       0.37243833
O        0.93534629      -1.80041251      -0.44964021
H       -2.07595386       1.56044378       0.02565350
H        2.43838315       0.58896924      -0.42655893
9
Frame=13 idx=006701 GeodesicLength=1.2108773668730755 rxn_smarts="[O:1]=[C:2]([c:3]1[n:4][c:5]([H:9])[n:6][o:7]1)[H:8]>>[O-:1][C:2](=[C:3]=[N:4][C:5](=[N+:6]=[O:7])[H:9])[H:8]"
O       -2.79629942      -0.30531644      -0.28687568
C       -1.90156966       0.46225591      -0.07322436
C       -0.54163580       0.00864931       0.25332771
N        0.51441321       0.64162445       0.34612773
C        1.70767241       0.09856598       0.20974117
N        1.71192302      -1.26589593       0.38506272
O        0.91296893      -1.76941561      -0.46204782
H       -2.06990617       1.55021957       0.02669707
H        2.46243348       0.57931276      -0.39880856
9
Frame=14 idx=006701 GeodesicLength=1.302760918710427 rxn_smarts="[O:1]=[C:2]([c:3]1[n:4][c:5]([H:9])[n:6][o:7]1)[H:8]>>[O-:1][C:2](=[C:3]=[N:4][C:5](=[N+:6]=[O:7])[H:9])[H:8]"
O       -2.80571396      -0.32068669      -0.22403726
C       -1.90208486       0.45044927      -0.07115536
C       -0.52141715       0.00516360       0.17392227
N        0.51836315       0.65586358       0.32903808
C        1.71339495       0.09687793       0.22816267
N        1.68310672      -1.26027059       0.39550219
O        0.89071152      -1.73518708      -0.48384043
H       -2.06509595       1.54021085       0.01458948
H        2.48873558       0.56757913      -0.36218165
9
Frame=15 idx=006701 GeodesicLength=1.3956805513762396 rxn_smarts="[O:1]=[C:2]([c:3]1[n:4][c:5]([H:9])[n:6][o:7]1)[H:8]>>[O-:1][C:2](=[C:3]=[N:4][C:5](=[N+:6]=[O:7])[H:9])[H:8]"
O       -2.80398013      -0.34237247      -0.15641873
C       -1.90041128       0.43794682      -0.06516773
C       -0.49978484       0.01174769       0.09089614
N        0.52361284       0.67334915       0.30954860
C        1.71697184       0.09344466       0.24764020
N        1.64682501      -1.25542963       0.40556669
O        0.86601614      -1.69834808      -0.51001829
H       -2.06530128       1.52867497      -0.00096857
H        2.51605170       0.55098688      -0.32107831
9
Frame=16 idx=006701 GeodesicLength=1.4910285958818539 rxn_smarts="[O:1]=[C:2]([c:3]1[n:4][c:5]([H:9])[n:6][o:7]1)[H:8]>>[O-:1][C:2](=[C:3]=[N:4][C:5](=[N+:6]=[O:7])[H:9])[H:8]"
O       -2.78823695      -0.37096154      -0.09132855
C       -1.89463449       0.42485727      -0.06178263
C       -0.47675804       0.02933557       0.00716394
N        0.53111031       0.69590494       0.28494693
C        1.71815748       0.08891984       0.26640180
N        1.60201166      -1.24967478       0.41756035
O        0.83663264      -1.65974035      -0.53526509
H       -2.07181316       1.51403113      -0.00824032
H        2.54353055       0.52732792      -0.27945643
