18
Frame=0 idx=008231 GeodesicLength=0.0 rxn_smarts="[C:1]([C:2]([C:3]([N:4]([C:5](=[O:6])[C:7]([H:16])([H:17])[H:18])[H:15])([H:13])[H:14])([H:11])[H:12])([H:8])([H:9])[H:10]>>[C:1](=[C:2]([H:11])[H:12])([H:8])[H:9].[C:3](=[N:4][H:15])([H:13])[H:14].[C:5](=[O:6])([C:7]([H:16])([H:17])[H:18])[H:10]"
C       -1.50221888       0.22062497      -1.14008202
C       -2.00572873       0.80776628      -0.01911610
C       -0.30910853       0.54590697       1.64533067
N        0.43063098      -0.36614204       1.09344161
C        1.07196486      -0.00009429      -0.21213727
O        1.30222703       1.22634366      -0.34971193
C        2.12241136      -1.03193431      -0.60687776
H       -1.84209945      -0.76348038      -1.44581688
H       -1.01513595       0.82567711      -1.89605892
H        0.00995135      -0.32340210      -0.78758571
H       -1.92060216       1.87649541       0.12147695
H       -2.73222100       0.28812238       0.59424511
H       -0.00262710       1.56593885       1.45544824
H       -0.98252157       0.28168613       2.44809647
H        0.20421436      -1.33920154       1.24931864
H        2.34056884      -0.90352325      -1.66577147
H        1.79141014      -2.06113111      -0.44014535
H        3.03888449      -0.84965278      -0.04405420
18
Frame=1 idx=008231 GeodesicLength=0.12351506374652065 rxn_smarts="[C:1]([C:2]([C:3]([N:4]([C:5](=[O:6])[C:7]([H:16])([H:17])[H:18])[H:15])([H:13])[H:14])([H:11])[H:12])([H:8])([H:9])[H:10]>>[C:1](=[C:2]([H:11])[H:12])([H:8])[H:9].[C:3](=[N:4][H:15])([H:13])[H:14].[C:5](=[O:6])([C:7]([H:16])([H:17])[H:18])[H:10]"
C       -1.51362168       0.22660214      -1.13535496
C       -2.01145662       0.81829426      -0.01006289
C       -0.32337891       0.53736826       1.63889384
N        0.43414947      -0.37367290       1.10118066
C        1.08119142      -0.00876916      -0.22585747
O        1.31062411       1.21609605      -0.36136463
C        2.14575193      -1.03088910      -0.60631771
H       -1.88731429      -0.74035262      -1.45614069
H       -1.01862134       0.83216781      -1.88612044
H       -0.00509827      -0.34990430      -0.80724337
H       -1.92593918       1.88888438       0.11927798
H       -2.76141805       0.31371261       0.58786269
H       -0.00324619       1.55633246       1.46308291
H       -0.99125091       0.26898721       2.44580374
H        0.21775296      -1.34652880       1.27184237
H        2.35578925      -0.92328304      -1.66936299
H        1.83160900      -2.06071494      -0.41428742
H        3.06447732      -0.82433033      -0.05583164
18
Frame=2 idx=008231 GeodesicLength=0.24661624308814256 rxn_smarts="[C:1]([C:2]([C:3]([N:4]([C:5](=[O:6])[C:7]([H:16])([H:17])[H:18])[H:15])([H:13])[H:14])([H:11])[H:12])([H:8])([H:9])[H:10]>>[C:1](=[C:2]([H:11])[H:12])([H:8])[H:9].[C:3](=[N:4][H:15])([H:13])[H:14].[C:5](=[O:6])([C:7]([H:16])([H:17])[H:18])[H:10]"
C       -1.52486493       0.23202207      -1.13046189
C       -2.01718946       0.82839543      -0.00097364
C       -0.33750580       0.52867539       1.63253985
N        0.43781738      -0.38105403       1.10933628
C        1.09068263      -0.01742368      -0.23969222
O        1.31900911       1.20591742      -0.37306279
C        2.16899784      -1.02969246      -0.60590387
H       -1.93231007      -0.71592872      -1.46670288
H       -1.02178522       0.83800032      -1.87588581
H       -0.02086432      -0.37691704      -0.82723407
H       -1.93103818       1.90074108       0.11694106
H       -2.78994846       0.33963713       0.58134527
H       -0.00438459       1.54646953       1.47100681
H       -1.00003729       0.25625441       2.44341265
H        0.23109790      -1.35334143       1.29470751
H        2.37122585      -0.94335314      -1.67259509
H        1.87152428      -2.05917163      -0.38847557
H        3.08957334      -0.79923066      -0.06830160
18
Frame=3 idx=008231 GeodesicLength=0.36935447789284837 rxn_smarts="[C:1]([C:2]([C:3]([N:4]([C:5](=[O:6])[C:7]([H:16])([H:17])[H:18])[H:15])([H:13])[H:14])([H:11])[H:12])([H:8])([H:9])[H:10]>>[C:1](=[C:2]([H:11])[H:12])([H:8])[H:9].[C:3](=[N:4][H:15])([H:13])[H:14].[C:5](=[O:6])([C:7]([H:16])([H:17])[H:18])[H:10]"
C       -1.53597527       0.23685946      -1.12540081
C       -2.02292542       0.83808835       0.00814648
C       -0.35150016       0.51981503       1.62627321
N        0.44163485      -0.38828035       1.11792853
C        1.10045340      -0.02604479      -0.25363235
O        1.32737529       1.19582096      -0.38480273
C        2.19216076      -1.02833745      -0.60563964
H       -1.97704247      -0.69015798      -1.47747897
H       -1.02463446       0.84312591      -1.86535232
H       -0.03740709      -0.40447976      -0.84759683
H       -1.93585977       1.91208124       0.11444714
H       -2.81779562       0.36590827       0.57469767
H       -0.00605833       1.53635489       1.47923539
H       -1.00890624       0.24345479       2.44091718
H        0.24425608      -1.35963888       1.31792239
H        2.38686958      -0.96371491      -1.67546123
H        1.91115260      -2.05649766      -0.36272423
H        3.11420229      -0.77435712      -0.08147888
18
Frame=4 idx=008231 GeodesicLength=0.4917688864930817 rxn_smarts="[C:1]([C:2]([C:3]([N:4]([C:5](=[O:6])[C:7]([H:16])([H:17])[H:18])[H:15])([H:13])[H:14])([H:11])[H:12])([H:8])([H:9])[H:10]>>[C:1](=[C:2]([H:11])[H:12])([H:8])[H:9].[C:3](=[N:4][H:15])([H:13])[H:14].[C:5](=[O:6])([C:7]([H:16])([H:17])[H:18])[H:10]"
C       -1.54698121       0.24108071      -1.12016798
C       -2.02865725       0.84740111       0.01728800
C       -0.36537601       0.51076563       1.62009845
N        0.44559940      -0.39535051       1.12697546
C        1.11051451      -0.03461720      -0.26767342
O        1.33571411       1.18582292      -0.39657536
C        2.21525125      -1.02681091      -0.60553367
H       -2.02146867      -0.66299648      -1.48841887
H       -1.02717531       0.84747632      -1.85452283
H       -0.05479742      -0.43263630      -0.86836932
H       -1.94034231       1.92292332       0.11176616
H       -2.84495143       0.39257327       0.56792247
H       -0.00828295       1.52598544       1.48779838
H       -1.01789081       0.23054196       2.43830559
H        0.25722798      -1.36543436       1.34148901
H        2.40271251      -0.98434928      -1.67795591
H        1.95050407      -2.05268387      -0.33704242
H        3.13839955      -0.74969177      -0.09538373
18
Frame=5 idx=008231 GeodesicLength=0.6138628635635673 rxn_smarts="[C:1]([C:2]([C:3]([N:4]([C:5](=[O:6])[C:7]([H:16])([H:17])[H:18])[H:15])([H:13])[H:14])([H:11])[H:12])([H:8])([H:9])[H:10]>>[C:1](=[C:2]([H:11])[H:12])([H:8])[H:9].[C:3](=[N:4][H:15])([H:13])[H:14].[C:5](=[O:6])([C:7]([H:16])([H:17])[H:18])[H:10]"
C       -1.55789482       0.24464647      -1.11475543
C       -2.03438218       0.85634027       0.02644267
C       -0.37914094       0.50152484       1.61402157
N        0.44971461      -0.40224526       1.13650181
C        1.12087954      -0.04311367      -0.28180724
O        1.34404809       1.17594824      -0.40835548
C        2.23826771      -1.02510664      -0.60559912
H       -2.06550149      -0.63440325      -1.49949636
H       -1.02940332       0.85099166      -1.84338880
H       -0.07310773      -0.46140065      -0.88958508
H       -1.94446237       1.93326688       0.10887912
H       -2.87139067       0.41962051       0.56102326
H       -0.01108275       1.51537913       1.49671087
H       -1.02701411       0.21749048       2.43557047
H        0.27001370      -1.37071149       1.36541490
H        2.41873699      -1.00522945      -1.68007951
H        1.98954730      -2.04772289      -0.31146285
H        3.16217244      -0.72527518      -0.11003477
18
Frame=6 idx=008231 GeodesicLength=0.7357266384781768 rxn_smarts="[C:1]([C:2]([C:3]([N:4]([C:5](=[O:6])[C:7]([H:16])([H:17])[H:18])[H:15])([H:13])[H:14])([H:11])[H:12])([H:8])([H:9])[H:10]>>[C:1](=[C:2]([H:11])[H:12])([H:8])[H:9].[C:3](=[N:4][H:15])([H:13])[H:14].[C:5](=[O:6])([C:7]([H:16])([H:17])[H:18])[H:10]"
C       -1.56875583       0.24752342      -1.10916376
C       -2.04008967       0.86493260       0.03560362
C       -0.39280860       0.49206909       1.60804522
N        0.45397990      -0.40896346       1.14653340
C        1.13156415      -0.05151729      -0.29602245
O        1.35235401       1.16621400      -0.42014527
C        2.26122680      -1.02320855      -0.60583957
H       -2.10907854      -0.60429466      -1.51068728
H       -1.03132768       0.85360195      -1.83194923
H       -0.09244987      -0.49086381      -0.91128664
H       -1.94815233       1.94312540       0.10575634
H       -2.89710120       0.44710182       0.55400390
H       -0.01447428       1.50452679       1.50600826
H       -1.03630750       0.20425367       2.43270130
H        0.28261825      -1.37548301       1.38971010
H        2.43492801      -1.02634733      -1.68181869
H        2.02831160      -2.04159582      -0.28598386
H        3.18556277      -0.70107478      -0.12546539
18
Frame=7 idx=008231 GeodesicLength=0.8573689286478297 rxn_smarts="[C:1]([C:2]([C:3]([N:4]([C:5](=[O:6])[C:7]([H:16])([H:17])[H:18])[H:15])([H:13])[H:14])([H:11])[H:12])([H:8])([H:9])[H:10]>>[C:1](=[C:2]([H:11])[H:12])([H:8])[H:9].[C:3](=[N:4][H:15])([H:13])[H:14].[C:5](=[O:6])([C:7]([H:16])([H:17])[H:18])[H:10]"
C       -1.57960637       0.24966882      -1.10338782
C       -2.04577121       0.87319773       0.04476564
C       -0.40638901       0.48238340       1.60217106
N        0.45839087      -0.41549651       1.15709041
C        1.14257469      -0.05980665      -0.31031867
O        1.36062474       1.15664011      -0.43193685
C        2.28413283      -1.02110369      -0.60626185
H       -2.15209674      -0.57261042      -1.52194695
H       -1.03295896       0.85522868      -1.82019892
H       -0.11292481      -0.52108321      -0.93351994
H       -1.95134994       1.95250621       0.10236573
H       -2.92206172       0.47505584       0.54687834
H       -0.01847663       1.49342715       1.51571504
H       -1.04579728       0.19079139       2.42968664
H        0.29503446      -1.37975325       1.41437781
H        2.45128992      -1.04767302      -1.68315998
H        2.06679937      -2.03427781      -0.26063206
H        3.20858579      -0.67709475      -0.14168762
18
Frame=8 idx=008231 GeodesicLength=0.9788396046330785 rxn_smarts="[C:1]([C:2]([C:3]([N:4]([C:5](=[O:6])[C:7]([H:16])([H:17])[H:18])[H:15])([H:13])[H:14])([H:11])[H:12])([H:8])([H:9])[H:10]>>[C:1](=[C:2]([H:11])[H:12])([H:8])[H:9].[C:3](=[N:4][H:15])([H:13])[H:14].[C:5](=[O:6])([C:7]([H:16])([H:17])[H:18])[H:10]"
C       -1.59048900       0.25102626      -1.09742204
C       -2.05140485       0.88116967       0.05391204
C       -0.41989709       0.47244211       1.59640535
N        0.46294904      -0.42183622       1.16820113
C        1.15392318      -0.06794739      -0.32468716
O        1.36884516       1.14726108      -0.44371416
C        2.30699591      -1.01876380      -0.60687812
H       -2.19443153      -0.53930557      -1.53320731
H       -1.03430854       0.85575318      -1.80814222
H       -0.13468363      -0.55214055      -0.95630327
H       -1.95395441       1.96142278       0.09865084
H       -2.94624950       0.50357230       0.53964019
H       -0.02311095       1.48207012       1.52589393
H       -1.05552858       0.17703935       2.42650635
H        0.30725703      -1.38353613       1.43941837
H        2.46781240      -1.06916126      -1.68409356
H        2.10501863      -2.02573771      -0.23544278
H        3.23125672      -0.65332822      -0.15873758
18
Frame=9 idx=008231 GeodesicLength=1.1006963575290123 rxn_smarts="[C:1]([C:2]([C:3]([N:4]([C:5](=[O:6])[C:7]([H:16])([H:17])[H:18])[H:15])([H:13])[H:14])([H:11])[H:12])([H:8])([H:9])[H:10]>>[C:1](=[C:2]([H:11])[H:12])([H:8])[H:9].[C:3](=[N:4][H:15])([H:13])[H:14].[C:5](=[O:6])([C:7]([H:16])([H:17])[H:18])[H:10]"
C       -1.60144077       0.25169159      -1.09129589
C       -2.05696996       0.88885093       0.06306565
C       -0.43331755       0.46225045       1.59073589
N        0.46767278      -0.42797488       1.17993197
C        1.16568690      -0.07590350      -0.33905978
O        1.37699181       1.13809486      -0.45551736
C        2.32988266      -1.01616354      -0.60764289
H       -2.23642495      -0.50402119      -1.54485611
H       -1.03526294       0.85521793      -1.79568570
H       -0.15798847      -0.58451719      -0.97974355
H       -1.95598228       1.96985462       0.09467354
H       -2.96963786       0.53253182       0.53233894
H       -0.02840269       1.47043553       1.53650376
H       -1.06545997       0.16300702       2.42315709
H        0.31939651      -1.38686326       1.46489800
H        2.48442454      -1.09094975      -1.68456554
H        2.14318381      -2.01587614      -0.21021710
H        3.25364842      -0.62966532      -0.17672094
18
Frame=10 idx=008231 GeodesicLength=1.2224165215019245 rxn_smarts="[C:1]([C:2]([C:3]([N:4]([C:5](=[O:6])[C:7]([H:16])([H:17])[H:18])[H:15])([H:13])[H:14])([H:11])[H:12])([H:8])([H:9])[H:10]>>[C:1](=[C:2]([H:11])[H:12])([H:8])[H:9].[C:3](=[N:4][H:15])([H:13])[H:14].[C:5](=[O:6])([C:7]([H:16])([H:17])[H:18])[H:10]"
C       -1.61250528       0.25150206      -1.08496962
C       -2.06245086       0.89629000       0.07218255
C       -0.44668545       0.45176531       1.58517859
N        0.47253368      -0.43389592       1.19227059
C        1.17781341      -0.08363760      -0.35348506
O        1.38509510       1.12919282      -0.46725918
C        2.35273657      -1.01328173      -0.60861993
H       -2.27745402      -0.46701463      -1.55642479
H       -1.03591136       0.85337663      -1.78290137
H       -0.18292851      -0.61788765      -1.00381858
H       -1.95725938       1.97782619       0.09029961
H       -2.99217762       0.56214413       0.52493564
H       -0.03438862       1.45852821       1.54766859
H       -1.07569780       0.14857506       2.41959397
H        0.33131760      -1.38971673       1.49075011
H        2.50113211      -1.11287488      -1.68460027
H        2.18110586      -2.00470480      -0.18516396
H        3.27572455      -0.60618646      -0.19563689
18
Frame=11 idx=008231 GeodesicLength=1.3439677943879882 rxn_smarts="[C:1]([C:2]([C:3]([N:4]([C:5](=[O:6])[C:7]([H:16])([H:17])[H:18])[H:15])([H:13])[H:14])([H:11])[H:12])([H:8])([H:9])[H:10]>>[C:1](=[C:2]([H:11])[H:12])([H:8])[H:9].[C:3](=[N:4][H:15])([H:13])[H:14].[C:5](=[O:6])([C:7]([H:16])([H:17])[H:18])[H:10]"
C       -1.62372214       0.25045028      -1.07844670
C       -2.06781998       0.90353622       0.08124623
C       -0.46001133       0.44096990       1.57972816
N        0.47751378      -0.43959075       1.20523401
C        1.19030790      -0.09110587      -0.36795601
O        1.39315545       1.12059208      -0.47891460
C        2.37555810      -1.01009180      -0.60981932
H       -2.31734668      -0.42835552      -1.56777352
H       -1.03624998       0.85015244      -1.76979495
H       -0.20967323      -0.65231080      -1.02860188
H       -1.95769427       1.98536635       0.08550075
H       -3.01381702       0.59246726       0.51743452
H       -0.04110227       1.44632896       1.55942848
H       -1.08628322       0.13367906       2.41577425
H        0.34299343      -1.39211062       1.51695150
H        2.51791782      -1.13490219      -1.68418689
H        2.21877909      -1.99219511      -0.16030609
H        3.29749454      -0.58287990      -0.21549795
18
Frame=12 idx=008231 GeodesicLength=1.4653449986471971 rxn_smarts="[C:1]([C:2]([C:3]([N:4]([C:5](=[O:6])[C:7]([H:16])([H:17])[H:18])[H:15])([H:13])[H:14])([H:11])[H:12])([H:8])([H:9])[H:10]>>[C:1](=[C:2]([H:11])[H:12])([H:8])[H:9].[C:3](=[N:4][H:15])([H:13])[H:14].[C:5](=[O:6])([C:7]([H:16])([H:17])[H:18])[H:10]"
C       -1.63513270       0.24854831      -1.07173350
C       -2.07304182       0.91064568       0.09023854
C       -0.47330623       0.42984011       1.57437798
N        0.48259926      -0.44505134       1.21883920
C        1.20317880      -0.09826197      -0.38247581
O        1.40117566       1.11233632      -0.49045986
C        2.39836016      -1.00655950      -0.61124683
H       -2.35592631      -0.38813876      -1.57876566
H       -1.03627771       0.84546864      -1.75637425
H       -0.23844946      -0.68785655      -1.05415038
H       -1.95717967       1.99249388       0.08024346
H       -3.03450185       0.62358105       0.50983013
H       -0.04857326       1.43381612       1.57184263
H       -1.09726121       0.11824113       2.41164859
H        0.35438878      -1.39407068       1.54347789
H        2.53475763      -1.15701190      -1.68330302
H        2.25621812      -1.97829939      -0.13565782
H        3.31897179      -0.55972115      -0.23633128
18
Frame=13 idx=008231 GeodesicLength=1.5865335588489862 rxn_smarts="[C:1]([C:2]([C:3]([N:4]([C:5](=[O:6])[C:7]([H:16])([H:17])[H:18])[H:15])([H:13])[H:14])([H:11])[H:12])([H:8])([H:9])[H:10]>>[C:1](=[C:2]([H:11])[H:12])([H:8])[H:9].[C:3](=[N:4][H:15])([H:13])[H:14].[C:5](=[O:6])([C:7]([H:16])([H:17])[H:18])[H:10]"
C       -1.64677366       0.24581367      -1.06482529
C       -2.07808249       0.91767104       0.09915050
C       -0.48656952       0.41836871       1.56912103
N        0.48777659      -0.45026258       1.23310604
C        1.21644035      -0.10505642      -0.39703889
O        1.40916957       1.10446971      -0.50186888
C        2.42114632      -1.00265598      -0.61290899
H       -2.39302264      -0.34648968      -1.58930221
H       -1.03598081       0.83925393      -1.74264276
H       -0.26950078      -0.72459511      -1.08054603
H       -1.95563002       1.99922876       0.07450965
H       -3.05416129       0.65553056       0.50213031
H       -0.05683156       1.42097718       1.58495214
H       -1.10866199       0.10220320       2.40716976
H        0.36546984      -1.39560624       1.57030903
H        2.55164320      -1.17915212      -1.68193312
H        2.29340665      -1.96297825      -0.11125516
H        3.34016226      -0.53672036      -0.25812711
18
Frame=14 idx=008231 GeodesicLength=1.7075149789730055 rxn_smarts="[C:1]([C:2]([C:3]([N:4]([C:5](=[O:6])[C:7]([H:16])([H:17])[H:18])[H:15])([H:13])[H:14])([H:11])[H:12])([H:8])([H:9])[H:10]>>[C:1](=[C:2]([H:11])[H:12])([H:8])[H:9].[C:3](=[N:4][H:15])([H:13])[H:14].[C:5](=[O:6])([C:7]([H:16])([H:17])[H:18])[H:10]"
C       -1.65870244       0.24226716      -1.05772474
C       -2.08288729       0.92469283       0.10796131
C       -0.49980996       0.40651857       1.56394954
N        0.49302573      -0.45523239       1.24805149
C        1.23009269      -0.11144392      -0.41165511
O        1.41711861       1.09703513      -0.51312067
C        2.44393998      -0.99833207      -0.61480073
H       -2.42847538      -0.30351849      -1.59925574
H       -1.03536989       0.83139502      -1.72861495
H       -0.30313613      -0.76262114      -1.10783257
H       -1.95288236       2.00559966       0.06824872
H       -3.07271926       0.68846596       0.49432735
H       -0.06590727       1.40776060       1.59884816
H       -1.12054148       0.08545439       2.40226686
H        0.37618263      -1.39678134       1.59740352
H        2.56855928      -1.20132169      -1.68002599
H        2.33043025      -1.94614629      -0.08706379
H        3.36108228      -0.51379200      -0.28096265
18
Frame=15 idx=008231 GeodesicLength=1.8282482056418403 rxn_smarts="[C:1]([C:2]([C:3]([N:4]([C:5](=[O:6])[C:7]([H:16])([H:17])[H:18])[H:15])([H:13])[H:14])([H:11])[H:12])([H:8])([H:9])[H:10]>>[C:1](=[C:2]([H:11])[H:12])([H:8])[H:9].[C:3](=[N:4][H:15])([H:13])[H:14].[C:5](=[O:6])([C:7]([H:16])([H:17])[H:18])[H:10]"
C       -1.67098546       0.23792724      -1.05041717
C       -2.08739227       0.93180160       0.11665912
C       -0.51302891       0.39426171       1.55885602
N        0.49832167      -0.45996729       1.26369071
C        1.24413837      -0.11737307      -0.42632982
O        1.42500367       1.09008079      -0.52419442
C        2.46675816      -0.99353097      -0.61691826
H       -2.46212636      -0.25940823      -1.60849654
H       -1.03445438       0.82175454      -1.71431126
H       -0.33967314      -0.80203249      -1.13608310
H       -1.94875735       2.01164650       0.06140994
H       -3.09007745       0.72255165       0.48642951
H       -0.07582902       1.39411773       1.61361287
H       -1.13294934       0.06789028       2.39686386
H        0.38646526      -1.39765684       1.62471290
H        2.58552744      -1.22346088      -1.67753753
H        2.36732892      -1.92770703      -0.06309770
H        3.38173018      -0.49089522      -0.30484913
18
Frame=16 idx=008231 GeodesicLength=1.9487038622782085 rxn_smarts="[C:1]([C:2]([C:3]([N:4]([C:5](=[O:6])[C:7]([H:16])([H:17])[H:18])[H:15])([H:13])[H:14])([H:11])[H:12])([H:8])([H:9])[H:10]>>[C:1](=[C:2]([H:11])[H:12])([H:8])[H:9].[C:3](=[N:4][H:15])([H:13])[H:14].[C:5](=[O:6])([C:7]([H:16])([H:17])[H:18])[H:10]"
C       -1.68369752       0.23279927      -1.04287569
C       -2.09151172       0.93909967       0.12522928
C       -0.52622305       0.38156128       1.55383571
N        0.50364131      -0.46448353       1.28004397
C        1.25857670      -0.12279213      -0.44107065
O        1.43278785       1.08365786      -0.53507113
C        2.48963390      -0.98817245      -0.61924924
H       -2.49385866      -0.21432003      -1.61692606
H       -1.03325784       0.81014590      -1.69975847
H       -0.37950008      -0.84294897      -1.16535323
H       -1.94302164       2.01740138       0.05391725
H       -3.10611077       0.75800557       0.47844417
H       -0.08662725       1.37998116       1.62935372
H       -1.14594178       0.04937959       2.39086709
H        0.39625691      -1.39831467       1.65218779
H        2.60258493      -1.24550934      -1.67440359
H        2.40416252      -1.90753991      -0.03935515
H        3.40210616      -0.46795063      -0.32981576
