14
Frame=0 idx=011687 GeodesicLength=0.0 rxn_smarts="[C:1]([c:2]1[c:3]([H:11])[o:4][c:5]([N:6]([H:12])[H:13])[c:7]1[H:14])([H:8])([H:9])[H:10]>>[C:1]([C:2]1=[C:3]([H:11])[C@@:7]1([C:5](=[O:4])[N:6]([H:12])[H:13])[H:14])([H:8])([H:9])[H:10]"
C       -2.19255648       0.67760190       0.29050426
C       -1.04168628      -0.24785321       0.04108718
C       -1.16283554      -1.56695657      -0.32578192
O        1.63349829      -1.72400352       0.03579047
C        1.50166091      -0.52283131      -0.11968421
N        2.59419937       0.29880949      -0.15779356
C        0.22653336       0.21297071      -0.25649258
H       -2.31893458       0.80724845       1.36797486
H       -3.11554270       0.26803315      -0.11714893
H       -2.00556390       1.66337096      -0.13924756
H       -0.41181833      -2.26930034       0.04882143
H        3.48130398      -0.11937999       0.05911200
H        2.50766969       1.29482440      -0.08632716
H        0.30407215       1.22746586      -0.64081426
14
Frame=1 idx=011687 GeodesicLength=0.09889546097167654 rxn_smarts="[C:1]([c:2]1[c:3]([H:11])[o:4][c:5]([N:6]([H:12])[H:13])[c:7]1[H:14])([H:8])([H:9])[H:10]>>[C:1]([C:2]1=[C:3]([H:11])[C@@:7]1([C:5](=[O:4])[N:6]([H:12])[H:13])[H:14])([H:8])([H:9])[H:10]"
C       -2.20012329       0.66730220       0.29723660
C       -1.03648526      -0.23620360       0.03705741
C       -1.10962633      -1.53888256      -0.37995885
O        1.60038798      -1.71542751       0.03072462
C        1.49592317      -0.50306401      -0.07713466
N        2.60659397       0.29012096      -0.15916464
C        0.23154547       0.23029074      -0.27314158
H       -2.31171987       0.79944943       1.37600183
H       -3.12117091       0.23759404      -0.09394113
H       -2.04024213       1.65443947      -0.14028997
H       -0.44985099      -2.28104583       0.07566789
H        3.48282745      -0.13984000       0.07831915
H        2.53801904       1.28935137      -0.11929943
H        0.31392168       1.24591533      -0.65207724
14
Frame=2 idx=011687 GeodesicLength=0.198489355120458 rxn_smarts="[C:1]([c:2]1[c:3]([H:11])[o:4][c:5]([N:6]([H:12])[H:13])[c:7]1[H:14])([H:8])([H:9])[H:10]>>[C:1]([C:2]1=[C:3]([H:11])[C@@:7]1([C:5](=[O:4])[N:6]([H:12])[H:13])[H:14])([H:8])([H:9])[H:10]"
C       -2.20689991       0.65664185       0.30437857
C       -1.03103933      -0.22455782       0.03258376
C       -1.05684783      -1.51060150      -0.42447737
O        1.56709424      -1.70326164       0.03727332
C        1.49026761      -0.48278197      -0.03882360
N        2.61802791       0.28087448      -0.15980218
C        0.23738553       0.24772323      -0.28779165
H       -2.30135128       0.79557427       1.38388860
H       -3.12565114       0.20438247      -0.06641031
H       -2.07624211       1.64298511      -0.14452443
H       -0.49012084      -2.29207053       0.08358968
H        3.48375987      -0.15982358       0.09597292
H        2.56777854       1.28197172      -0.15015096
H        0.32383874       1.26294390      -0.66570637
14
Frame=3 idx=011687 GeodesicLength=0.29841523857879493 rxn_smarts="[C:1]([c:2]1[c:3]([H:11])[o:4][c:5]([N:6]([H:12])[H:13])[c:7]1[H:14])([H:8])([H:9])[H:10]>>[C:1]([C:2]1=[C:3]([H:11])[C@@:7]1([C:5](=[O:4])[N:6]([H:12])[H:13])[H:14])([H:8])([H:9])[H:10]"
C       -2.21264667       0.64568877       0.31250462
C       -1.02535762      -0.21291657       0.02736122
C       -1.00527623      -1.48226391      -0.46194015
O        1.53361610      -1.68857896       0.05552988
C        1.48478363      -0.46217263      -0.00810003
N        2.62892400       0.27130601      -0.15986020
C        0.24357579       0.26517772      -0.30282903
H       -2.28758875       0.79475335       1.39215262
H       -3.12865790       0.16925706      -0.03423076
H       -2.11330711       1.62932405      -0.15018368
H       -0.53200308      -2.30276160       0.07586345
H        3.48355630      -0.17884623       0.11616841
H        2.59686590       1.27302920      -0.17986079
H        0.33351564       1.27900374      -0.68257557
14
Frame=4 idx=011687 GeodesicLength=0.39858901012756354 rxn_smarts="[C:1]([c:2]1[c:3]([H:11])[o:4][c:5]([N:6]([H:12])[H:13])[c:7]1[H:14])([H:8])([H:9])[H:10]>>[C:1]([C:2]1=[C:3]([H:11])[C@@:7]1([C:5](=[O:4])[N:6]([H:12])[H:13])[H:14])([H:8])([H:9])[H:10]"
C       -2.21770787       0.63445104       0.32135512
C       -1.01963956      -0.20119926       0.02176617
C       -0.95493483      -1.45397525      -0.49328258
O        1.50000897      -1.67197350       0.08176686
C        1.47937908      -0.44083914       0.01867308
N        2.63950307       0.26123317      -0.15965805
C        0.24999167       0.28274407      -0.31752830
H       -2.27195933       0.79634503       1.40035629
H       -3.12997103       0.13272859       0.00118950
H       -2.15132163       1.61358972      -0.15657142
H       -0.57474674      -2.31273863       0.05527788
H        3.48240872      -0.19694507       0.13855370
H        2.62586777       1.26233286      -0.21022544
H        0.34312171       1.29424639      -0.70167281
14
Frame=5 idx=011687 GeodesicLength=0.4989555342753019 rxn_smarts="[C:1]([c:2]1[c:3]([H:11])[o:4][c:5]([N:6]([H:12])[H:13])[c:7]1[H:14])([H:8])([H:9])[H:10]>>[C:1]([C:2]1=[C:3]([H:11])[C@@:7]1([C:5](=[O:4])[N:6]([H:12])[H:13])[H:14])([H:8])([H:9])[H:10]"
C       -2.22226104       0.62298695       0.33058802
C       -1.01402071      -0.18937970       0.01594927
C       -0.90581992      -1.42615472      -0.51851390
O        1.46627395      -1.65341405       0.11357152
C        1.47405954      -0.41870310       0.04290027
N        2.64969205       0.25074903      -0.15930188
C        0.25655548       0.30024107      -0.33180504
H       -2.25546485       0.80001403       1.40801338
H       -3.12945236       0.09533405       0.03867038
H       -2.19001529       1.59586266      -0.16340480
H       -0.61762371      -2.32140892       0.02471125
H        3.48065186      -0.21464177       0.16057979
H        2.65469484       1.25005815      -0.23911616
H        0.35273015       1.30845629      -0.72284210
14
Frame=6 idx=011687 GeodesicLength=0.5993814386438165 rxn_smarts="[C:1]([c:2]1[c:3]([H:11])[o:4][c:5]([N:6]([H:12])[H:13])[c:7]1[H:14])([H:8])([H:9])[H:10]>>[C:1]([C:2]1=[C:3]([H:11])[C@@:7]1([C:5](=[O:4])[N:6]([H:12])[H:13])[H:14])([H:8])([H:9])[H:10]"
C       -2.22620540       0.61144379       0.34045719
C       -1.00859952      -0.17750824       0.00994444
C       -0.85826992      -1.39908644      -0.53814244
O        1.43247660      -1.63320094       0.14866394
C        1.46868214      -0.39588487       0.06513265
N        2.65939626       0.23976819      -0.15823740
C        0.26310383       0.31740024      -0.34620429
H       -2.23785569       0.80598750       1.41526369
H       -3.12701062       0.05746329       0.07880302
H       -2.22932419       1.57613065      -0.17039511
H       -0.65974792      -2.32848508      -0.01542262
H        3.47785224      -0.23133949       0.18481049
H        2.68322590       1.23598781      -0.26811198
H        0.36227628       1.32132360      -0.74656158
14
Frame=7 idx=011687 GeodesicLength=0.6998090777697153 rxn_smarts="[C:1]([c:2]1[c:3]([H:11])[o:4][c:5]([N:6]([H:12])[H:13])[c:7]1[H:14])([H:8])([H:9])[H:10]>>[C:1]([C:2]1=[C:3]([H:11])[C@@:7]1([C:5](=[O:4])[N:6]([H:12])[H:13])[H:14])([H:8])([H:9])[H:10]"
C       -2.22948723       0.59994086       0.35093343
C       -1.00348144      -0.16565057       0.00368032
C       -0.81247796      -1.37318571      -0.55231222
O        1.39868339      -1.61140264       0.18569350
C        1.46317092      -0.37252874       0.08554332
N        2.66844291       0.22849264      -0.15619089
C        0.26953679       0.33387061      -0.36117076
H       -2.21916327       0.81438417       1.42192636
H       -3.12254647       0.01955686       0.12160195
H       -2.26906958       1.55437748      -0.17741673
H       -0.70051515      -2.33351819      -0.06381031
H        3.47401952      -0.24715882       0.21038885
H        2.71115181       1.22043335      -0.29553281
H        0.37173578       1.33238870      -0.77333402
14
Frame=8 idx=011687 GeodesicLength=0.8001510059187296 rxn_smarts="[C:1]([c:2]1[c:3]([H:11])[o:4][c:5]([N:6]([H:12])[H:13])[c:7]1[H:14])([H:8])([H:9])[H:10]>>[C:1]([C:2]1=[C:3]([H:11])[C@@:7]1([C:5](=[O:4])[N:6]([H:12])[H:13])[H:14])([H:8])([H:9])[H:10]"
C       -2.23209829       0.58860543       0.36204559
C       -0.99878040      -0.15388509      -0.00291227
C       -0.76857820      -1.34882347      -0.56125215
O        1.36495981      -1.58813245       0.22399455
C        1.45745568      -0.34874963       0.10432150
N        2.67671387       0.21708855      -0.15299742
C        0.27577411       0.34934001      -0.37704531
H       -2.19954169       0.82516602       1.42793661
H       -3.11601404      -0.01790957       0.16699402
H       -2.30908510       1.53072618      -0.18415284
H       -0.73932291      -2.33618243      -0.11968151
H        3.46917084      -0.26223896       0.23677957
H        2.73826931       1.20375086      -0.32047289
H        0.38107701       1.34124455      -0.80355746
14
Frame=9 idx=011687 GeodesicLength=0.9003770861274827 rxn_smarts="[C:1]([c:2]1[c:3]([H:11])[o:4][c:5]([N:6]([H:12])[H:13])[c:7]1[H:14])([H:8])([H:9])[H:10]>>[C:1]([C:2]1=[C:3]([H:11])[C@@:7]1([C:5](=[O:4])[N:6]([H:12])[H:13])[H:14])([H:8])([H:9])[H:10]"
C       -2.23394980       0.57748378       0.37393012
C       -0.99461898      -0.14229939      -0.00989288
C       -0.72679083      -1.32610872      -0.56524714
O        1.33128069      -1.56341428       0.26330198
C        1.45140313      -0.32461707       0.12163699
N        2.68409573       0.20555779      -0.14852543
C        0.28169862       0.36346116      -0.39405913
H       -2.17896660       0.83790018       1.43329717
H       -3.10737297      -0.05436837       0.21484392
H       -2.34906007       1.50530383      -0.18986310
H       -0.77547395      -2.33585098      -0.18306962
H        3.46306214      -0.27615660       0.26490406
H        2.76446684       1.18580334      -0.34378831
H        0.39022605       1.34730534      -0.83746863
14
Frame=10 idx=011687 GeodesicLength=1.0004261915831556 rxn_smarts="[C:1]([c:2]1[c:3]([H:11])[o:4][c:5]([N:6]([H:12])[H:13])[c:7]1[H:14])([H:8])([H:9])[H:10]>>[C:1]([C:2]1=[C:3]([H:11])[C@@:7]1([C:5](=[O:4])[N:6]([H:12])[H:13])[H:14])([H:8])([H:9])[H:10]"
C       -2.23490457       0.56668611       0.38671602
C       -0.99111549      -0.13104062      -0.01743106
C       -0.68732597      -1.30535044      -0.56453469
O        1.29766607      -1.53734187       0.30315853
C        1.44488277      -0.30030090       0.13740525
N        2.69044577       0.19408371      -0.14253808
C        0.28720657       0.37578267      -0.41265495
H       -2.15711761       0.85261313       1.43799245
H       -3.09655630      -0.08939016       0.26544240
H       -2.38881954       1.47820278      -0.19419648
H       -0.80850168      -2.33205463      -0.25385091
H        3.45553521      -0.28866809       0.29500150
H        2.78949064       1.16686695      -0.36492072
H        0.39911414       1.34991136      -0.87558928
14
Frame=11 idx=011687 GeodesicLength=1.1002075366376176 rxn_smarts="[C:1]([c:2]1[c:3]([H:11])[o:4][c:5]([N:6]([H:12])[H:13])[c:7]1[H:14])([H:8])([H:9])[H:10]>>[C:1]([C:2]1=[C:3]([H:11])[C@@:7]1([C:5](=[O:4])[N:6]([H:12])[H:13])[H:14])([H:8])([H:9])[H:10]"
C       -2.23483282       0.55634574       0.40054479
C       -0.98840235      -0.12031361      -0.02566771
C       -0.65039562      -1.28693117      -0.55922921
O        1.26414524      -1.51005965       0.34329886
C        1.43775906      -0.27598672       0.15152830
N        2.69563296       0.18289802      -0.13484139
C        0.29219882       0.38576622      -0.43328080
H       -2.13375254       0.86924327       1.44205002
H       -3.08353763      -0.12247544       0.31895874
H       -2.42810288       1.44965920      -0.19669097
H       -0.83792188      -2.32427086      -0.33210102
H        3.44644604      -0.29948891       0.32724637
H        2.81308693       1.14732675      -0.38334713
H        0.40767666       1.34828718      -0.91846885
14
Frame=12 idx=011687 GeodesicLength=1.1996406115625668 rxn_smarts="[C:1]([c:2]1[c:3]([H:11])[o:4][c:5]([N:6]([H:12])[H:13])[c:7]1[H:14])([H:8])([H:9])[H:10]>>[C:1]([C:2]1=[C:3]([H:11])[C@@:7]1([C:5](=[O:4])[N:6]([H:12])[H:13])[H:14])([H:8])([H:9])[H:10]"
C       -2.23351674       0.54663495       0.41555910
C       -0.98659559      -0.11043023      -0.03469382
C       -0.61628306      -1.27134558      -0.54927851
O        1.23079579      -1.48181922       0.38336843
C        1.42985994      -0.25195065       0.16379440
N        2.69945890       0.17236080      -0.12522776
C        0.29655641       0.39265179      -0.45648502
H       -2.10850993       0.88778573       1.44548369
H       -3.06825728      -0.15303316       0.37559077
H       -2.46650816       1.41996672      -0.19692293
H       -0.86324568      -2.31176025      -0.41797956
H        3.43559470      -0.30830918       0.36166675
H        2.83483847       1.12786066      -0.39813745
H        0.41581224       1.34138761      -0.96673811
14
Frame=13 idx=011687 GeodesicLength=1.2986433322578246 rxn_smarts="[C:1]([c:2]1[c:3]([H:11])[o:4][c:5]([N:6]([H:12])[H:13])[c:7]1[H:14])([H:8])([H:9])[H:10]>>[C:1]([C:2]1=[C:3]([H:11])[C@@:7]1([C:5](=[O:4])[N:6]([H:12])[H:13])[H:14])([H:8])([H:9])[H:10]"
C       -2.23092085       0.53762146       0.43185328
C       -0.98586254      -0.10170745      -0.04431409
C       -0.58518150      -1.25888194      -0.53441196
O        1.19752232      -1.45253181       0.42406849
C        1.42104256      -0.22829564       0.17440194
N        2.70178085       0.16247234      -0.11383334
C        0.30010754       0.39578441      -0.48219173
H       -2.08150097       0.90765911       1.44839479
H       -3.05091906      -0.18047602       0.43478301
H       -2.50354920       1.38963923      -0.19417255
H       -0.88322335      -2.29309575      -0.51244939
H        3.42284326      -0.31469774       0.39845110
H        2.85454179       1.10837979      -0.41014954
H        0.42331915       1.32813001      -1.02043001
14
Frame=14 idx=011687 GeodesicLength=1.3970726069900086 rxn_smarts="[C:1]([c:2]1[c:3]([H:11])[o:4][c:5]([N:6]([H:12])[H:13])[c:7]1[H:14])([H:8])([H:9])[H:10]>>[C:1]([C:2]1=[C:3]([H:11])[C@@:7]1([C:5](=[O:4])[N:6]([H:12])[H:13])[H:14])([H:8])([H:9])[H:10]"
C       -2.22685491       0.52948970       0.44950793
C       -0.98631162      -0.09471056      -0.05424584
C       -0.55754430      -1.25015892      -0.51435240
O        1.16443148      -1.42258135       0.46510146
C        1.41111834      -0.20548139       0.18308928
N        2.70233883       0.15354500      -0.10065093
C        0.30263991       0.39405410      -0.51070873
H       -2.05250768       0.92872422       1.45084532
H       -3.03171836      -0.20412799       0.49636257
H       -2.53857784       1.35919711      -0.18815521
H       -0.89651488      -2.26632718      -0.61574050
H        3.40798118      -0.31825826       0.43744541
H        2.87159389       1.08956811      -0.41873033
H        0.42992595       1.30706741      -1.07976803
14
Frame=15 idx=011687 GeodesicLength=1.4948225003425115 rxn_smarts="[C:1]([c:2]1[c:3]([H:11])[o:4][c:5]([N:6]([H:12])[H:13])[c:7]1[H:14])([H:8])([H:9])[H:10]>>[C:1]([C:2]1=[C:3]([H:11])[C@@:7]1([C:5](=[O:4])[N:6]([H:12])[H:13])[H:14])([H:8])([H:9])[H:10]"
C       -2.22148802       0.52220297       0.46840618
C       -0.98806654      -0.08995856      -0.06392957
C       -0.53367504      -1.24535019      -0.48938464
O        1.13133844      -1.39207744       0.50683850
C        1.39996777      -0.18383541       0.18997361
N        2.70098148       0.14532587      -0.08614929
C        0.30390469       0.38682821      -0.54143027
H       -2.02206678       0.95022806       1.45295359
H       -3.01124896      -0.22367666       0.55925126
H       -2.57109092       1.32926522      -0.17863870
H       -0.90055242      -2.22845499      -0.72724399
H        3.39093813      -0.31886559       0.47829102
H        2.88576684       1.07109385      -0.42505970
H        0.43529133       1.27727469      -1.14387800
14
Frame=16 idx=011687 GeodesicLength=1.5923041145445174 rxn_smarts="[C:1]([c:2]1[c:3]([H:11])[o:4][c:5]([N:6]([H:12])[H:13])[c:7]1[H:14])([H:8])([H:9])[H:10]>>[C:1]([C:2]1=[C:3]([H:11])[C@@:7]1([C:5](=[O:4])[N:6]([H:12])[H:13])[H:14])([H:8])([H:9])[H:10]"
C       -2.21500532       0.51545671       0.48807351
C       -0.99105408      -0.08769549      -0.07335536
C       -0.51371557      -1.24374307      -0.46244920
O        1.09770652      -1.36160704       0.54777879
C        1.38748498      -0.16389149       0.19476126
N        2.69763422       0.13739831      -0.07076604
C        0.30385972       0.37450374      -0.57348303
H       -1.99045745       0.97230653       1.45402178
H       -2.98937624      -0.23982583       0.62348689
H       -2.60172891       1.29917428      -0.16654988
H       -0.89351802      -2.17696822      -0.84194470
H        3.37157719      -0.31747746       0.52001499
H        2.89712374       1.05288437      -0.42890549
H        0.43946920       1.23948464      -1.21068352
