18
Frame=0 idx=000701 GeodesicLength=0.0 rxn_smarts="[C:1]([O:2][C:3]([C:4]([H:10])([H:11])[H:12])([C:5]([H:13])([H:14])[H:15])[C:6]([H:16])([H:17])[H:18])([H:7])([H:8])[H:9]>>[C:1]([H:7])([H:8])([H:9])[H:12].[O:2]=[C:3]([C:4]([C:5]([H:13])([H:14])[H:15])([H:10])[H:11])[C:6]([H:16])([H:17])[H:18]"
C        2.03033446       0.98764367      -0.73000690
O        1.00710005      -0.84578361       0.47683868
C       -0.23500655      -0.41122442       0.30626368
C       -0.35281251       0.22698666      -1.05742779
C       -1.23194435      -1.62554492       0.20878530
C       -0.71789124       0.55235420       1.40222933
H        2.25688216       1.21507553       0.29993172
H        2.05728871       1.84716094      -1.39885584
H        2.52982832       0.10760593      -1.10356103
H       -0.08384013      -0.43005817      -1.88227659
H       -1.17061466       0.91166953      -1.29489291
H        0.72511511       0.87032160      -0.90893344
H       -0.87739478      -2.33592368      -0.53723015
H       -1.21697238      -2.11283258       1.18245339
H       -2.25630630      -1.32630844      -0.01931033
H       -0.62127247       0.05891687       2.36951734
H       -0.08540033       1.44351516       1.41894873
H       -1.75709319       0.86642569       1.26752688
18
Frame=1 idx=000701 GeodesicLength=0.11804136718461461 rxn_smarts="[C:1]([O:2][C:3]([C:4]([H:10])([H:11])[H:12])([C:5]([H:13])([H:14])[H:15])[C:6]([H:16])([H:17])[H:18])([H:7])([H:8])[H:9]>>[C:1]([H:7])([H:8])([H:9])[H:12].[O:2]=[C:3]([C:4]([C:5]([H:13])([H:14])[H:15])([H:10])[H:11])[C:6]([H:16])([H:17])[H:18]"
C        2.04001124       0.97169298      -0.73298546
O        1.01715541      -0.81732100       0.49737877
C       -0.22777873      -0.39718622       0.32444543
C       -0.37322325       0.22285037      -1.04403261
C       -1.22856399      -1.62382705       0.18559845
C       -0.72432048       0.55813584       1.41865508
H        2.29191407       1.22903063       0.28458035
H        2.08832045       1.81469403      -1.42184052
H        2.52779240       0.08199158      -1.10179685
H       -0.09658720      -0.42393787      -1.87426182
H       -1.19977936       0.90023268      -1.27014868
H        0.71450577       0.89454189      -0.92118604
H       -0.84805241      -2.33342728      -0.54829117
H       -1.23192100      -2.11424931       1.15830305
H       -2.25558888      -1.34484922      -0.05559909
H       -0.61773274       0.06669447       2.38586772
H       -0.10735437       1.46021823       1.42872692
H       -1.76879694       0.85471524       1.28658649
18
Frame=2 idx=000701 GeodesicLength=0.2359059182044827 rxn_smarts="[C:1]([O:2][C:3]([C:4]([H:10])([H:11])[H:12])([C:5]([H:13])([H:14])[H:15])[C:6]([H:16])([H:17])[H:18])([H:7])([H:8])[H:9]>>[C:1]([H:7])([H:8])([H:9])[H:12].[O:2]=[C:3]([C:4]([C:5]([H:13])([H:14])[H:15])([H:10])[H:11])[C:6]([H:16])([H:17])[H:18]"
C        2.04923096       0.95590841      -0.73519997
O        1.02656660      -0.78853902       0.51752842
C       -0.22114606      -0.38299039       0.34210831
C       -0.39350329       0.21879900      -1.03060115
C       -1.22498027      -1.62196958       0.16251169
C       -0.73072883       0.56397628       1.43482700
H        2.32791331       1.24152837       0.26840983
H        2.11790128       1.78150403      -1.44361392
H        2.52548424       0.05679672      -1.09910191
H       -0.10951155      -0.41714547      -1.86655782
H       -1.22837528       0.88906249      -1.24532139
H        0.70427010       0.91829827      -0.93404607
H       -0.81909777      -2.33053796      -0.55873798
H       -1.24599539      -2.11525879       1.13404459
H       -2.25423901      -1.36401955      -0.09214036
H       -0.61350310       0.07516268       2.40209750
H       -0.12991549       1.47694507       1.43794821
H       -1.78037044       0.84247944       1.30584504
18
Frame=3 idx=000701 GeodesicLength=0.3536122794095918 rxn_smarts="[C:1]([O:2][C:3]([C:4]([H:10])([H:11])[H:12])([C:5]([H:13])([H:14])[H:15])[C:6]([H:16])([H:17])[H:18])([H:7])([H:8])[H:9]>>[C:1]([H:7])([H:8])([H:9])[H:12].[O:2]=[C:3]([C:4]([C:5]([H:13])([H:14])[H:15])([H:10])[H:11])[C:6]([H:16])([H:17])[H:18]"
C        2.05808158       0.94030557      -0.73668536
O        1.03536121      -0.75939719       0.53730753
C       -0.21507215      -0.36861799       0.35928662
C       -0.41368404       0.21484196      -1.01712815
C       -1.22120405      -1.62000348       0.13952380
C       -0.73714018       0.56987694       1.45077587
H        2.36487577       1.25249530       0.25140508
H        2.14608613       1.74761515      -1.46425625
H        2.52285603       0.03196246      -1.09551155
H       -0.12261103      -0.40965899      -1.85913118
H       -1.25645759       0.87815415      -1.22040178
H        0.69439079       0.94167702      -0.94749174
H       -0.79049057      -2.32722480      -0.56862971
H       -1.25922318      -2.11589427       1.10970759
H       -2.25219086      -1.38383875      -0.12896993
H       -0.60864425       0.08433163       2.41821896
H       -0.15312430       1.49367200       1.44666336
H       -1.79180931       0.82970330       1.32531684
18
Frame=4 idx=000701 GeodesicLength=0.47117722657496147 rxn_smarts="[C:1]([O:2][C:3]([C:4]([H:10])([H:11])[H:12])([C:5]([H:13])([H:14])[H:15])[C:6]([H:16])([H:17])[H:18])([H:7])([H:8])[H:9]>>[C:1]([H:7])([H:8])([H:9])[H:12].[O:2]=[C:3]([C:4]([C:5]([H:13])([H:14])[H:15])([H:10])[H:11])[C:6]([H:16])([H:17])[H:18]"
C        2.06664260       0.92489186      -0.73746875
O        1.04356313      -0.72985402       0.55673825
C       -0.20952104      -0.35404794       0.37601359
C       -0.43379448       0.21098842      -1.00360503
C       -1.21724003      -1.61795430       0.11662714
C       -0.74357652       0.57583955       1.46653145
H        2.40279764       1.26185255       0.23354633
H        2.17292108       1.71304116      -1.48384894
H        2.51985062       0.00743532      -1.09105266
H       -0.13588641      -0.40145554      -1.85194911
H       -1.28408586       0.86748966      -1.19537986
H        0.68485009       0.96476546      -0.96150539
H       -0.76217510      -2.32345140      -0.57801912
H       -1.27163733      -2.11618334       1.08531254
H       -2.24936876      -1.40431250      -0.16612545
H       -0.60321682       0.09421057       2.43424277
H       -0.17701953       1.51037327       1.45492470
H       -1.80310329       0.81637120       1.34501753
18
Frame=5 idx=000701 GeodesicLength=0.5886053694654861 rxn_smarts="[C:1]([O:2][C:3]([C:4]([H:10])([H:11])[H:12])([C:5]([H:13])([H:14])[H:15])[C:6]([H:16])([H:17])[H:18])([H:7])([H:8])[H:9]>>[C:1]([H:7])([H:8])([H:9])[H:12].[O:2]=[C:3]([C:4]([C:5]([H:13])([H:14])[H:15])([H:10])[H:11])[C:6]([H:16])([H:17])[H:18]"
C        2.07497378       0.90967705      -0.73757987
O        1.05119944      -0.69986990       0.57583706
C       -0.20445814      -0.33926382       0.39232095
C       -0.45385760       0.20723322      -0.99002262
C       -1.21309031      -1.61584342       0.09381463
C       -0.75005136       0.58186694       1.48211848
H        2.44165833       1.26951305       0.21481685
H        2.19843848       1.67780163      -1.50244370
H        2.51641505      -0.01682289      -1.08575164
H       -0.14932943      -0.39252087      -1.84497317
H       -1.31132181       0.85702538      -1.17024829
H        0.67563680       0.98765117      -0.97607382
H       -0.73411888      -2.31918611      -0.58696286
H       -1.28327948      -2.11614457       1.06087858
H       -2.24568182      -1.42542303      -0.20364505
H       -0.59726854       0.10481487       2.45017495
H       -0.20163178       1.52702423       1.46277669
H       -1.81423272       0.80246709       1.36496284
18
Frame=6 idx=000701 GeodesicLength=0.7059154047223222 rxn_smarts="[C:1]([O:2][C:3]([C:4]([H:10])([H:11])[H:12])([C:5]([H:13])([H:14])[H:15])[C:6]([H:16])([H:17])[H:18])([H:7])([H:8])[H:9]>>[C:1]([H:7])([H:8])([H:9])[H:12].[O:2]=[C:3]([C:4]([C:5]([H:13])([H:14])[H:15])([H:10])[H:11])[C:6]([H:16])([H:17])[H:18]"
C        2.08314178       0.89466375      -0.73703394
O        1.05829343      -0.66940595       0.59461304
C       -0.19984954      -0.32424235       0.40823575
C       -0.47389674       0.20357366      -0.97637408
C       -1.20874853      -1.61369010       0.07107263
C       -0.75657568       0.58796176       1.49756348
H        2.48143024       1.27538880       0.19520557
H        2.22266267       1.64190775      -1.52009819
H        2.51249700      -0.04085393      -1.07962424
H       -0.16293834      -0.38283643      -1.83817323
H       -1.33823624       0.84670799      -1.14499991
H        0.66673632       1.01041664      -0.99119101
H       -0.70627579      -2.31438962      -0.59550621
H       -1.29418528      -2.11579735       1.03641394
H       -2.24104102      -1.44714149      -0.24155735
H       -0.59084598       0.11615545       2.46602122
H       -0.22699609       1.54359876       1.47026405
H       -1.82517223       0.78798266       1.38516848
18
Frame=7 idx=000701 GeodesicLength=0.8231125392430908 rxn_smarts="[C:1]([O:2][C:3]([C:4]([H:10])([H:11])[H:12])([C:5]([H:13])([H:14])[H:15])[C:6]([H:16])([H:17])[H:18])([H:7])([H:8])[H:9]>>[C:1]([H:7])([H:8])([H:9])[H:12].[O:2]=[C:3]([C:4]([C:5]([H:13])([H:14])[H:15])([H:10])[H:11])[C:6]([H:16])([H:17])[H:18]"
C        2.09120249       0.87985701      -0.73584831
O        1.06486865      -0.63842455       0.61306433
C       -0.19566522      -0.30896395       0.42378030
C       -0.49393013       0.20000097      -0.96265337
C       -1.20421267      -1.61150707       0.04838867
C       -0.76315512       0.59413146       1.51288266
H        2.52208549       1.27935987       0.17470698
H        2.24560099       1.60538202      -1.53683939
H        2.50805241      -0.06467057      -1.07268400
H       -0.17670480      -0.37239464      -1.83151801
H       -1.36489768       0.83646857      -1.11963078
H        0.65813511       1.03314676      -1.00685299
H       -0.67860919      -2.30903764      -0.60369400
H       -1.30439090      -2.11515555       1.01192727
H       -2.23536356      -1.46942736      -0.27988030
H       -0.58398169       0.12825295       2.48178011
H       -0.25314394       1.56007446       1.47742251
H       -1.83589024       0.77290726       1.40564832
18
Frame=8 idx=000701 GeodesicLength=0.9401996893096958 rxn_smarts="[C:1]([O:2][C:3]([C:4]([H:10])([H:11])[H:12])([C:5]([H:13])([H:14])[H:15])[C:6]([H:16])([H:17])[H:18])([H:7])([H:8])[H:9]>>[C:1]([H:7])([H:8])([H:9])[H:12].[O:2]=[C:3]([C:4]([C:5]([H:13])([H:14])[H:15])([H:10])[H:11])[C:6]([H:16])([H:17])[H:18]"
C        2.09920279       0.86526564      -0.73403401
O        1.07094718      -0.60688477       0.63118306
C       -0.19187364      -0.29340839       0.43897043
C       -0.51397815       0.19650298      -0.94886183
C       -1.19946871      -1.60930960       0.02575073
C       -0.76979679       0.60037836       1.52809593
H        2.56358775       1.28131903       0.15333730
H        2.26725447       1.56823776      -1.55270706
H        2.50304103      -0.08829671      -1.06493547
H       -0.19062488      -0.36118109      -1.82499064
H       -1.39138046       0.82622863      -1.09414144
H        0.64982845       1.05591882      -1.02307061
H       -0.65108637      -2.30309914      -0.61156570
H       -1.31393118      -2.11423094       0.98742215
H       -2.22855272      -1.49221688      -0.31861724
H       -0.57671368       0.14112361       2.49745062
H       -0.28010510       1.57641754       1.48429154
H       -1.84635000       0.75723514       1.42642223
18
Frame=9 idx=000701 GeodesicLength=1.0572251650994344 rxn_smarts="[C:1]([O:2][C:3]([C:4]([H:10])([H:11])[H:12])([C:5]([H:13])([H:14])[H:15])[C:6]([H:16])([H:17])[H:18])([H:7])([H:8])[H:9]>>[C:1]([H:7])([H:8])([H:9])[H:12].[O:2]=[C:3]([C:4]([C:5]([H:13])([H:14])[H:15])([H:10])[H:11])[C:6]([H:16])([H:17])[H:18]"
C        2.10720003       0.85085705      -0.73169501
O        1.07658402      -0.57471374       0.64896602
C       -0.18848071      -0.27753046       0.45387532
C       -0.53405761       0.19304262      -0.93496111
C       -1.19451431      -1.60711261       0.00314392
C       -0.77653313       0.60672826       1.54322537
H        2.60588017       1.28101416       0.13097876
H        2.28784758       1.53063772      -1.56754084
H        2.49738551      -0.11173468      -1.05658450
H       -0.20468166      -0.34918502      -1.81845866
H       -1.41777972       0.81581717      -1.06848783
H        0.64176122       1.07881513      -1.03976790
H       -0.62361286      -2.29665303      -0.61910653
H       -1.32283940      -2.11305373       0.96289894
H       -2.22058155      -1.51535903      -0.35788959
H       -0.56903127       0.15486026       2.51301124
H       -0.30802235       1.59266641       1.49088682
H       -1.85652398       0.74090355       1.44750557
18
Frame=10 idx=000701 GeodesicLength=1.1741754248556804 rxn_smarts="[C:1]([O:2][C:3]([C:4]([H:10])([H:11])[H:12])([C:5]([H:13])([H:14])[H:15])[C:6]([H:16])([H:17])[H:18])([H:7])([H:8])[H:9]>>[C:1]([H:7])([H:8])([H:9])[H:12].[O:2]=[C:3]([C:4]([C:5]([H:13])([H:14])[H:15])([H:10])[H:11])[C:6]([H:16])([H:17])[H:18]"
C        2.11523994       0.83664002      -0.72876595
O        1.08176792      -0.54188052       0.66641477
C       -0.18542772      -0.26131373       0.46846157
C       -0.55418611       0.18963639      -0.92096876
C       -1.18931030      -1.60492043      -0.01946007
C       -0.78334877       0.61316816       1.55828046
H        2.64892255       1.27841957       0.10775067
H        2.30716701       1.49244569      -1.58154912
H        2.49106473      -0.13502142      -1.04744386
H       -0.21889660      -0.33637252      -1.81198106
H       -1.44413388       0.80523857      -1.04268851
H        0.63397429       1.10192047      -1.05704327
H       -0.59618444      -2.28956649      -0.62640362
H       -1.33112080      -2.11162461       0.93833767
H       -2.21130521      -1.53886945      -0.39758543
H       -0.56100888       0.16942789       2.52847297
H       -0.33684655       1.60873535       1.49725613
H       -1.86636717       0.72393705       1.46891539
18
Frame=11 idx=000701 GeodesicLength=1.291065655900566 rxn_smarts="[C:1]([O:2][C:3]([C:4]([H:10])([H:11])[H:12])([C:5]([H:13])([H:14])[H:15])[C:6]([H:16])([H:17])[H:18])([H:7])([H:8])[H:9]>>[C:1]([H:7])([H:8])([H:9])[H:12].[O:2]=[C:3]([C:4]([C:5]([H:13])([H:14])[H:15])([H:10])[H:11])[C:6]([H:16])([H:17])[H:18]"
C        2.12336789       0.82258390      -0.72527330
O        1.08651121      -0.50831806       0.68353824
C       -0.18268943      -0.24471830       0.48274872
C       -0.57437915       0.18627967      -0.90686626
C       -1.18382645      -1.60274256      -0.04209009
C       -0.79025211       0.61970107       1.57327838
H        2.69260311       1.27344401       0.08363923
H        2.32524903       1.45363174      -1.59475273
H        2.48401790      -0.15819906      -1.03752611
H       -0.23327731      -0.32270915      -1.80550757
H       -1.47049416       0.79442216      -1.01671547
H        0.62647946       1.12531148      -1.07491679
H       -0.56873746      -2.28179945      -0.63350086
H       -1.33878515      -2.10995905       0.91371523
H       -2.20064470      -1.56268015      -0.43770335
H       -0.55267548       0.18484759       2.54382942
H       -0.36662636       1.62460306       1.50343477
H       -1.87584083       0.70630111       1.49066853
18
Frame=12 idx=000701 GeodesicLength=1.4079138379431506 rxn_smarts="[C:1]([O:2][C:3]([C:4]([H:10])([H:11])[H:12])([C:5]([H:13])([H:14])[H:15])[C:6]([H:16])([H:17])[H:18])([H:7])([H:8])[H:9]>>[C:1]([H:7])([H:8])([H:9])[H:12].[O:2]=[C:3]([C:4]([C:5]([H:13])([H:14])[H:15])([H:10])[H:11])[C:6]([H:16])([H:17])[H:18]"
C        2.13163679       0.80863702      -0.72123647
O        1.09083371      -0.47396085       0.70033553
C       -0.18024162      -0.22769850       0.49675176
C       -0.59464969       0.18296808      -0.89263581
C       -1.17801834      -1.60057760      -0.06477922
C       -0.79725052       0.62633455       1.58823722
H        2.73679960       1.26599342       0.05864567
H        2.34210224       1.41416301      -1.60715910
H        2.47617861      -0.18131607      -1.02683883
H       -0.24784174      -0.30815973      -1.79899862
H       -1.49692375       0.78328347      -0.99054199
H        0.61929464       1.14905545      -1.09342335
H       -0.54119766      -2.27330652      -0.64044106
H       -1.34582896      -2.10807173       0.88899661
H       -2.18851484      -1.58670044      -0.47823215
H       -0.54406167       0.20114885       2.55907370
H       -0.39741469       1.64024475       1.50945910
H       -1.88490211       0.68796284       1.51278701
18
Frame=13 idx=000701 GeodesicLength=1.5247373796250998 rxn_smarts="[C:1]([O:2][C:3]([C:4]([H:10])([H:11])[H:12])([C:5]([H:13])([H:14])[H:15])[C:6]([H:16])([H:17])[H:18])([H:7])([H:8])[H:9]>>[C:1]([H:7])([H:8])([H:9])[H:12].[O:2]=[C:3]([C:4]([C:5]([H:13])([H:14])[H:15])([H:10])[H:11])[C:6]([H:16])([H:17])[H:18]"
C        2.14009303       0.79476123      -0.71667718
O        1.09474573      -0.43873595       0.71680254
C       -0.17805861      -0.21020969       0.51048064
C       -0.61501097       0.17968800      -0.87826435
C       -1.17184707      -1.59842760      -0.08755589
C       -0.80434491       0.63307458       1.60317090
H        2.78139018       1.25596533       0.03277611
H        2.35774010       1.37401651      -1.61877172
H        2.46749171      -0.20440470      -1.01536649
H       -0.26260878      -0.29268423      -1.79241941
H       -1.52347744       0.77172672      -0.96414053
H        0.61243575       1.17321921      -1.11260743
H       -0.51350972      -2.26405651      -0.64726872
H       -1.35224269      -2.10598450       0.86415051
H       -2.17484961      -1.61083284      -0.51915481
H       -0.53518950       0.21836272       2.57419541
H       -0.42925573       1.65562870       1.51535897
H       -1.89350148       0.66889303       1.53529147
18
Frame=14 idx=000701 GeodesicLength=1.6415514244732297 rxn_smarts="[C:1]([O:2][C:3]([C:4]([H:10])([H:11])[H:12])([C:5]([H:13])([H:14])[H:15])[C:6]([H:16])([H:17])[H:18])([H:7])([H:8])[H:9]>>[C:1]([H:7])([H:8])([H:9])[H:12].[O:2]=[C:3]([C:4]([C:5]([H:13])([H:14])[H:15])([H:10])[H:11])[C:6]([H:16])([H:17])[H:18]"
C        2.14877815       0.78090178      -0.71161463
O        1.09826147      -0.40255340       0.73292232
C       -0.17612521      -0.19219455       0.52394191
C       -0.63548250       0.17643589      -0.86373775
C       -1.16525715      -1.59628295      -0.11045243
C       -0.81154638       0.63992829       1.61809685
H        2.82625444       1.24322798       0.00603836
H        2.37216148       1.33314506      -1.62959610
H        2.45791495      -0.22750952      -1.00308211
H       -0.27760657      -0.27623720      -1.78573516
H       -1.55022153       0.75965010      -0.93748025
H        0.60592054       1.19786990      -1.13252113
H       -0.48560572      -2.25399464      -0.65403324
H       -1.35798237      -2.10372062       0.83913819
H       -2.15957278      -1.63496750      -0.56044734
H       -0.52608636       0.23652336       2.58918281
H       -0.46222267       1.67072243       1.52117196
H       -1.90158180       0.64905558       1.55820773
18
Frame=15 idx=000701 GeodesicLength=1.7583728141446093 rxn_smarts="[C:1]([O:2][C:3]([C:4]([H:10])([H:11])[H:12])([C:5]([H:13])([H:14])[H:15])[C:6]([H:16])([H:17])[H:18])([H:7])([H:8])[H:9]>>[C:1]([H:7])([H:8])([H:9])[H:12].[O:2]=[C:3]([C:4]([C:5]([H:13])([H:14])[H:15])([H:10])[H:11])[C:6]([H:16])([H:17])[H:18]"
C        2.15773518       0.76700368      -0.70607083
O        1.10139002      -0.36531711       0.74867102
C       -0.17442570      -0.17359417       0.53713600
C       -0.65608237       0.17319741      -0.84904417
C       -1.15819235      -1.59413603      -0.13350055
C       -0.81885900       0.64690282       1.63302718
H        2.87124563       1.22764545      -0.02154147
H        2.38536453       1.29150558      -1.63963146
H        2.44741258      -0.25066504      -0.98993980
H       -0.29286717      -0.25876950      -1.77891110
H       -1.57721399       0.74693903      -0.91052668
H        0.59976796       1.22306951      -1.15323139
H       -0.45742493      -2.24306877      -0.66079470
H       -1.36299885      -2.10130496       0.81391946
H       -2.14262840      -1.65898407      -0.60207875
H       -0.51676568       0.25567679       2.60401876
H       -0.49638776       1.68548568       1.52693308
H       -1.90906970       0.62841369       1.58156539
18
Frame=16 idx=000701 GeodesicLength=1.8752335671981737 rxn_smarts="[C:1]([O:2][C:3]([C:4]([H:10])([H:11])[H:12])([C:5]([H:13])([H:14])[H:15])[C:6]([H:16])([H:17])[H:18])([H:7])([H:8])[H:9]>>[C:1]([H:7])([H:8])([H:9])[H:12].[O:2]=[C:3]([C:4]([C:5]([H:13])([H:14])[H:15])([H:10])[H:11])[C:6]([H:16])([H:17])[H:18]"
C        2.16699687       0.75299579      -0.70007269
O        1.10413950      -0.32689468       0.76402636
C       -0.17295419      -0.15432934       0.55006512
C       -0.67683670       0.16996759      -0.83416505
C       -1.15057598      -1.59196956      -0.15673666
C       -0.82630546       0.65400966       1.64797899
H        2.91628457       1.20901351      -0.04996004
H        2.39732409       1.24903277      -1.64888505
H        2.43593724      -0.27391148      -0.97587316
H       -0.30844065      -0.24021031      -1.77190736
H       -1.60452332       0.73347128      -0.88323237
H        0.59399086       1.24888885      -1.17481052
H       -0.42887452      -2.23120848      -0.66761510
H       -1.36720889      -2.09876883       0.78844377
H       -2.12394004      -1.68276290      -0.64403475
H       -0.50725533       0.27588214       2.61868937
H       -0.53185483       1.69987640       1.53269208
H       -1.91590321       0.60691760       1.60539704
