11
Frame=0 idx=002418 GeodesicLength=0.0 rxn_smarts="[C:1]1([H:6])([H:7])[C@@:2]2([H:8])[C:3]([H:9])([H:10])[O:4][C@@:5]12[H:11]>>[C:1]([C:2]1=[C:5]([H:11])[O:4][C:3]1([H:9])[H:10])([H:6])([H:7])[H:8]"
C       -1.16697098      -0.40292393       0.06828759
C        0.29782187       0.34416587       0.97024861
C        1.36996771      -0.10663656      -0.02716689
O        0.70626684       0.47830661      -1.16970985
C       -0.35837063       0.81887951      -0.29401335
H       -2.14904646      -0.18153848       0.47014902
H       -1.10026479      -1.20812830      -0.65660793
H       -0.61089497      -0.76211465       1.07021935
H        1.58686982      -1.17095876      -0.14340554
H        2.29371475       0.43450943       0.19614496
H       -0.86909315       1.75643930      -0.48414599
11
Frame=1 idx=002418 GeodesicLength=0.10449393261343827 rxn_smarts="[C:1]1([H:6])([H:7])[C@@:2]2([H:8])[C:3]([H:9])([H:10])[O:4][C@@:5]12[H:11]>>[C:1]([C:2]1=[C:5]([H:11])[O:4][C:3]1([H:9])[H:10])([H:6])([H:7])[H:8]"
C       -1.16724476      -0.40869566       0.07760766
C        0.28136466       0.33133834       0.95207349
C        1.37096698      -0.10489991      -0.03008696
O        0.71886288       0.49283638      -1.17319024
C       -0.35324934       0.82816143      -0.30636186
H       -2.14980919      -0.17747429       0.47283417
H       -1.10622628      -1.21777838      -0.64384409
H       -0.61452586      -0.77719704       1.09481699
H        1.59134283      -1.16672812      -0.16135250
H        2.29133964       0.43375627       0.21185875
H       -0.86282157       1.76668098      -0.49435540
11
Frame=2 idx=002418 GeodesicLength=0.20910413586847687 rxn_smarts="[C:1]1([H:6])([H:7])[C@@:2]2([H:8])[C:3]([H:9])([H:10])[O:4][C@@:5]12[H:11]>>[C:1]([C:2]1=[C:5]([H:11])[O:4][C:3]1([H:9])[H:10])([H:6])([H:7])[H:8]"
C       -1.16771354      -0.41491644       0.08674349
C        0.26503932       0.31835675       0.93328754
C        1.37185219      -0.10327305      -0.03319036
O        0.73179671       0.50807394      -1.17642018
C       -0.34807965       0.83745136      -0.31873432
H       -2.15069277      -0.17382408       0.47512434
H       -1.11189934      -1.22803176      -0.63093539
H       -0.61810342      -0.79081258       1.12031054
H        1.59563670      -1.16236300      -0.17981134
H        2.28868478       0.43233636       0.22779531
H       -0.85652098       1.77700250      -0.50416963
11
Frame=3 idx=002418 GeodesicLength=0.3138025203060711 rxn_smarts="[C:1]1([H:6])([H:7])[C@@:2]2([H:8])[C:3]([H:9])([H:10])[O:4][C@@:5]12[H:11]>>[C:1]([C:2]1=[C:5]([H:11])[O:4][C:3]1([H:9])[H:10])([H:6])([H:7])[H:8]"
C       -1.16840267      -0.42163061       0.09567049
C        0.24884488       0.30521659       0.91387807
C        1.37261827      -0.10176825      -0.03648009
O        0.74507624       0.52404583      -1.17934720
C       -0.34285847       0.84674901      -0.33110442
H       -2.15171144      -0.17061688       0.47699516
H       -1.11728474      -1.23893971      -0.61789834
H       -0.62157546      -0.80279099       1.14671451
H        1.59975333      -1.15784742      -0.19882494
H        2.28573549       0.43018528       0.24395737
H       -0.85019542       1.78739716      -0.51356061
11
Frame=4 idx=002418 GeodesicLength=0.41856942277666387 rxn_smarts="[C:1]1([H:6])([H:7])[C@@:2]2([H:8])[C:3]([H:9])([H:10])[O:4][C@@:5]12[H:11]>>[C:1]([C:2]1=[C:5]([H:11])[O:4][C:3]1([H:9])[H:10])([H:6])([H:7])[H:8]"
C       -1.16933492      -0.42888339       0.10436829
C        0.23277674       0.29190408       0.89382488
C        1.37325632      -0.10040212      -0.03996018
O        0.75871265       0.54077971      -1.18191193
C       -0.33758130       0.85605681      -0.34344760
H       -2.15287729      -0.16788352       0.47841857
H       -1.12238838      -1.25055340      -0.60474517
H       -0.62488181      -0.81295333       1.17404294
H        1.60369868      -1.15315870      -0.21843882
H        2.28246891       0.42723395       0.26035012
H       -0.84384961       1.79785991      -0.52250110
11
Frame=5 idx=002418 GeodesicLength=0.523398846884952 rxn_smarts="[C:1]1([H:6])([H:7])[C@@:2]2([H:8])[C:3]([H:9])([H:10])[O:4][C@@:5]12[H:11]>>[C:1]([C:2]1=[C:5]([H:11])[O:4][C:3]1([H:9])[H:10])([H:6])([H:7])[H:8]"
C       -1.17052717      -0.43672158       0.11281418
C        0.21682270       0.27840479       0.87310246
C        1.37376026      -0.09918364      -0.04363588
O        0.77271460       0.55830517      -1.18405421
C       -0.33224560       0.86538043      -0.35574169
H       -2.15419766      -0.16566103       0.47937870
H       -1.12722004      -1.26291574      -0.59150471
H       -0.62795200      -0.82111148       1.20231477
H        1.60747431      -1.14828735      -0.23869243
H        2.27886511       0.42340825       0.27698557
H       -0.83749452       1.80838217      -0.53096678
11
Frame=6 idx=002418 GeodesicLength=0.6282573074237687 rxn_smarts="[C:1]1([H:6])([H:7])[C@@:2]2([H:8])[C:3]([H:9])([H:10])[O:4][C@@:5]12[H:11]>>[C:1]([C:2]1=[C:5]([H:11])[O:4][C:3]1([H:9])[H:10])([H:6])([H:7])[H:8]"
C       -1.17199080      -0.44519443       0.12100053
C        0.20096721       0.26469183       0.85168745
C        1.37411978      -0.09813450      -0.04751068
O        0.78709959       0.57665102      -1.18569572
C       -0.32684376       0.87472627      -0.36796587
H       -2.15567789      -0.16398303       0.47984192
H       -1.13179174      -1.27608123      -0.57817353
H       -0.63072322      -0.82706731       1.23152119
H        1.61109004      -1.14319582      -0.25963821
H        2.27488811       0.41862635       0.29386436
H       -0.83113733       1.81896083      -0.53893144
11
Frame=7 idx=002418 GeodesicLength=0.7331102173796207 rxn_smarts="[C:1]1([H:6])([H:7])[C@@:2]2([H:8])[C:3]([H:9])([H:10])[O:4][C@@:5]12[H:11]>>[C:1]([C:2]1=[C:5]([H:11])[O:4][C:3]1([H:9])[H:10])([H:6])([H:7])[H:8]"
C       -1.17373379      -0.45435631       0.12891895
C        0.18519486       0.25073553       0.82954883
C        1.37432614      -0.09727638      -0.05159039
O        0.80187822       0.59584518      -1.18676441
C       -0.32137211       0.88410031      -0.38009586
H       -2.15732041      -0.16289089       0.47978369
H       -1.13612195      -1.29009581      -0.56477020
H       -0.63312493      -0.83060097       1.26164844
H        1.61455157      -1.13786597      -0.28131155
H        2.27051183       0.41281626       0.31099213
H       -0.82478942       1.82958906      -0.54635962
11
Frame=8 idx=002418 GeodesicLength=0.8379691680085654 rxn_smarts="[C:1]1([H:6])([H:7])[C@@:2]2([H:8])[C:3]([H:9])([H:10])[O:4][C@@:5]12[H:11]>>[C:1]([C:2]1=[C:5]([H:11])[O:4][C:3]1([H:9])[H:10])([H:6])([H:7])[H:8]"
C       -1.17574992      -0.46426225       0.13656496
C        0.16947426       0.23650245       0.80664894
C        1.37437060      -0.09662574      -0.05588128
O        0.81706368       0.61592661      -1.18715462
C       -0.31582328       0.89351589      -0.39211227
H       -2.15911605      -0.16243064       0.47917737
H       -1.14021601      -1.30500867      -0.55129657
H       -0.63510034      -0.83148267       1.29269019
H        1.61786601      -1.13226185      -0.30377381
H        2.26569744       0.40587013       0.32836922
H       -0.81846640       1.84025675      -0.55323214
11
Frame=9 idx=002418 GeodesicLength=0.9422472125383294 rxn_smarts="[C:1]1([H:6])([H:7])[C@@:2]2([H:8])[C:3]([H:9])([H:10])[O:4][C@@:5]12[H:11]>>[C:1]([C:2]1=[C:5]([H:11])[O:4][C:3]1([H:9])[H:10])([H:6])([H:7])[H:8]"
C       -1.17798300      -0.47497435       0.14413234
C        0.15382506       0.22200474       0.78302088
C        1.37424957      -0.09618461      -0.06037515
O        0.83272721       0.63681301      -1.18673027
C       -0.31015967       0.90296594      -0.40401301
H       -2.16100056      -0.16259333       0.47812451
H       -1.14419052      -1.32077700      -0.53770331
H       -0.63671010      -0.82969936       1.32414856
H        1.62101988      -1.12638514      -0.32695392
H        2.26039424       0.39790307       0.34592511
H       -0.81217212       1.85092705      -0.55957573
11
Frame=10 idx=002418 GeodesicLength=1.0464403668066857 rxn_smarts="[C:1]1([H:6])([H:7])[C@@:2]2([H:8])[C:3]([H:9])([H:10])[O:4][C@@:5]12[H:11]>>[C:1]([C:2]1=[C:5]([H:11])[O:4][C:3]1([H:9])[H:10])([H:6])([H:7])[H:8]"
C       -1.18047587      -0.48655611       0.15147605
C        0.13818024       0.20715168       0.75854695
C        1.37394272      -0.09599924      -0.06509956
O        0.84883656       0.65864796      -1.18539427
C       -0.30440434       0.91247216      -0.41574634
H       -2.16303242      -0.16350018       0.47645288
H       -1.14795934      -1.33755437      -0.52400648
H       -0.63776051      -0.82470963       1.35635595
H        1.62404414      -1.12015661      -0.35103574
H        2.25456548       0.38858978       0.36373559
H       -0.80593665       1.86161455      -0.56528504
11
Frame=11 idx=002418 GeodesicLength=1.150580662409953 rxn_smarts="[C:1]1([H:6])([H:7])[C@@:2]2([H:8])[C:3]([H:9])([H:10])[O:4][C@@:5]12[H:11]>>[C:1]([C:2]1=[C:5]([H:11])[O:4][C:3]1([H:9])[H:10])([H:6])([H:7])[H:8]"
C       -1.18322715      -0.49907503       0.15859915
C        0.12251022       0.19188944       0.73316622
C        1.37343813      -0.09609683      -0.07006101
O        0.86540998       0.68146614      -1.18301638
C       -0.29855073       0.92204338      -0.42727411
H       -2.16521439      -0.16522027       0.47412163
H       -1.15153793      -1.35540672      -0.51020218
H       -0.63814484      -0.81617631       1.38924750
H        1.62693775      -1.11355273      -0.37609109
H        2.24815791       0.37782097       0.38181741
H       -0.79977896       1.87230795      -0.57030714
11
Frame=12 idx=002418 GeodesicLength=1.2546828390868763 rxn_smarts="[C:1]1([H:6])([H:7])[C@@:2]2([H:8])[C:3]([H:9])([H:10])[O:4][C@@:5]12[H:11]>>[C:1]([C:2]1=[C:5]([H:11])[O:4][C:3]1([H:9])[H:10])([H:6])([H:7])[H:8]"
C       -1.18622381      -0.51260723       0.16553015
C        0.10678075       0.17615848       0.70681195
C        1.37271910      -0.09651735      -0.07527137
O        0.88246512       0.70530559      -1.17942023
C       -0.29258755       0.93169013      -0.43854976
H       -2.16754534      -0.16783606       0.47107234
H       -1.15493574      -1.37440775      -0.49625936
H       -0.63777281      -0.80370956       1.42270531
H        1.62970932      -1.10651513      -0.40220161
H        2.24111241       0.36545182       0.40016521
H       -0.79372145       1.88298707      -0.57458263
11
Frame=13 idx=002418 GeodesicLength=1.3587884984500722 rxn_smarts="[C:1]1([H:6])([H:7])[C@@:2]2([H:8])[C:3]([H:9])([H:10])[O:4][C@@:5]12[H:11]>>[C:1]([C:2]1=[C:5]([H:11])[O:4][C:3]1([H:9])[H:10])([H:6])([H:7])[H:8]"
C       -1.18945369      -0.52724891       0.17229680
C        0.09094716       0.15986478       0.67939925
C        1.37177204      -0.09730497      -0.08074489
O        0.90001383       0.73020440      -1.17443108
C       -0.28651121       0.94141883      -0.44951298
H       -2.17002907      -0.17146003       0.46723768
H       -1.15815642      -1.39464777      -0.48215104
H       -0.63652311      -0.78679547       1.45657328
H        1.63235969      -1.09901520      -0.42946228
H        2.23336159       0.35134061       0.41879870
H       -0.78778080       1.89364372      -0.57800344
11
Frame=14 idx=002418 GeodesicLength=1.4629181006380831 rxn_smarts="[C:1]1([H:6])([H:7])[C@@:2]2([H:8])[C:3]([H:9])([H:10])[O:4][C@@:5]12[H:11]>>[C:1]([C:2]1=[C:5]([H:11])[O:4][C:3]1([H:9])[H:10])([H:6])([H:7])[H:8]"
C       -1.19289297      -0.54307673       0.17895141
C        0.07497073       0.14295612       0.65084053
C        1.37057076      -0.09850135      -0.08648798
O        0.91806771       0.75618755      -1.16781971
C       -0.28031112       0.95124013      -0.46010162
H       -2.17265555      -0.17618256       0.46257187
H       -1.16120691      -1.41621221      -0.46780322
H       -0.63429382      -0.76500649       1.49060216
H        1.63490447      -1.09095696      -0.45794757
H        2.22482998       0.33529545       0.43770208
H       -0.78198328       1.90425706      -0.58050797
11
Frame=15 idx=002418 GeodesicLength=1.5671077417037114 rxn_smarts="[C:1]1([H:6])([H:7])[C@@:2]2([H:8])[C:3]([H:9])([H:10])[O:4][C@@:5]12[H:11]>>[C:1]([C:2]1=[C:5]([H:11])[O:4][C:3]1([H:9])[H:10])([H:6])([H:7])[H:8]"
C       -1.19651950      -0.56018376       0.18555376
C        0.05880227       0.12535565       0.62103451
C        1.36908882      -0.10015839      -0.09250366
O        0.93662896       0.78326711      -1.15933669
C       -0.27397783       0.96116243      -0.47022988
H       -2.17542029      -0.18212436       0.45703005
H       -1.16409793      -1.43918694      -0.45315496
H       -0.63094493      -0.73780671       1.52446522
H        1.63734499      -1.08228640      -0.48773660
H        2.21544789       0.31715511       0.45687388
H       -0.77635244       1.91480625      -0.58199562
11
Frame=16 idx=002418 GeodesicLength=1.6714035375848988 rxn_smarts="[C:1]1([H:6])([H:7])[C@@:2]2([H:8])[C:3]([H:9])([H:10])[O:4][C@@:5]12[H:11]>>[C:1]([C:2]1=[C:5]([H:11])[O:4][C:3]1([H:9])[H:10])([H:6])([H:7])[H:8]"
C       -1.20030376      -0.57866070       0.19220041
C        0.04238475       0.10699396       0.58986440
C        1.36728741      -0.10233737      -0.09879333
O        0.95570828       0.81145342      -1.14868645
C       -0.26750345       0.97119029      -0.47980937
H       -2.17831753      -0.18941651       0.45056626
H       -1.16684010      -1.46366786      -0.43809431
H       -0.62631101      -0.70463968       1.55771922
H        1.63968568      -1.07291455      -0.51891404
H        2.20512406       0.29671854       0.47631560
H       -0.77091432       1.92528047      -0.58236840
