13
Frame=0 idx=002090 GeodesicLength=0.0 rxn_smarts="[C:1]([c:2]1[c:3]([H:10])[c:4]([H:11])[c:5]([H:12])[n:6]1[H:13])([H:7])([H:8])[H:9]>>[C:1]([C:2]1=[C:3]([H:10])[C:4]([H:11])([H:13])[C:5]([H:12])=[N:6]1)([H:7])([H:8])[H:9]"
C        1.98699123       0.01732607      -0.16335426
C        0.49321867       0.01468793      -0.14221602
C       -0.36535084       1.04840728       0.23537600
C       -1.66181745       0.55555077       0.22388993
C       -1.57593023      -0.77666124      -0.18418504
N       -0.19474859      -1.09894051      -0.46071114
H        2.39635155      -0.37489681       0.77120346
H        2.35827368      -0.60587750      -0.97651325
H        2.37036939       1.02942421      -0.29563348
H       -0.06125969       2.04536806       0.52212991
H       -2.56868263       1.08628031       0.47140143
H       -2.34496948      -1.43631736      -0.55843690
H       -0.83244564      -1.50435115       0.55704939
13
Frame=1 idx=002090 GeodesicLength=0.09459655291097027 rxn_smarts="[C:1]([c:2]1[c:3]([H:10])[c:4]([H:11])[c:5]([H:12])[n:6]1[H:13])([H:7])([H:8])[H:9]>>[C:1]([C:2]1=[C:3]([H:10])[C:4]([H:11])([H:13])[C:5]([H:12])=[N:6]1)([H:7])([H:8])[H:9]"
C        1.98785460       0.01737063      -0.16486508
C        0.49439116       0.01957233      -0.15084064
C       -0.36438835       1.05113744       0.22273146
C       -1.65595416       0.53551903       0.26968532
C       -1.57526940      -0.77203119      -0.21715164
N       -0.19672475      -1.10187300      -0.44805272
H        2.39319127      -0.38569476       0.76677249
H        2.36061442      -0.59881531      -0.98293447
H        2.37424572       1.02966825      -0.28587119
H       -0.06214962       2.04914901       0.50737564
H       -2.56791525       1.07721472       0.47137456
H       -2.34609237      -1.43508331      -0.58046685
H       -0.84180324      -1.48613384       0.59224311
13
Frame=2 idx=002090 GeodesicLength=0.18933991064055006 rxn_smarts="[C:1]([c:2]1[c:3]([H:10])[c:4]([H:11])[c:5]([H:12])[n:6]1[H:13])([H:7])([H:8])[H:9]>>[C:1]([C:2]1=[C:3]([H:10])[C:4]([H:11])([H:13])[C:5]([H:12])=[N:6]1)([H:7])([H:8])[H:9]"
C        1.98845105       0.01734615      -0.16655486
C        0.49538202       0.02412371      -0.15906320
C       -0.36386834       1.05304587       0.21178006
C       -1.65024580       0.51761486       0.30346491
C       -1.57400684      -0.76678326      -0.24805936
N       -0.19929376      -1.10474822      -0.43455715
H        2.39020854      -0.39666687       0.76176983
H        2.36241058      -0.59156068      -0.98975041
H        2.37743430       1.02987825      -0.27615811
H       -0.06366473       2.05189326       0.49515767
H       -2.56497525       1.06584240       0.47486712
H       -2.34597066      -1.43355678      -0.60131435
H       -0.85186111      -1.46642870       0.62841785
13
Frame=3 idx=002090 GeodesicLength=0.28413600588878224 rxn_smarts="[C:1]([c:2]1[c:3]([H:10])[c:4]([H:11])[c:5]([H:12])[n:6]1[H:13])([H:7])([H:8])[H:9]>>[C:1]([C:2]1=[C:3]([H:10])[C:4]([H:11])([H:13])[C:5]([H:12])=[N:6]1)([H:7])([H:8])[H:9]"
C        1.98887642       0.01720130      -0.16855440
C        0.49624905       0.02842243      -0.16689947
C       -0.36343257       1.05439331       0.20253070
C       -1.64506313       0.50149359       0.32842670
C       -1.57213597      -0.76152207      -0.27708903
N       -0.20233352      -1.10742000      -0.42047529
H        2.38752340      -0.40797203       0.75599970
H        2.36369060      -0.58412570      -0.99715733
H        2.38018818       1.02995331      -0.26658301
H       -0.06530495       2.05375044       0.48578115
H       -2.56160094       1.05352328       0.47963982
H       -2.34468609      -1.43223806      -0.62112042
H       -0.86197047      -1.44545980       0.66550088
13
Frame=4 idx=002090 GeodesicLength=0.37895789223857973 rxn_smarts="[C:1]([c:2]1[c:3]([H:10])[c:4]([H:11])[c:5]([H:12])[n:6]1[H:13])([H:7])([H:8])[H:9]>>[C:1]([C:2]1=[C:3]([H:10])[C:4]([H:11])([H:13])[C:5]([H:12])=[N:6]1)([H:7])([H:8])[H:9]"
C        1.98913751       0.01693691      -0.17088842
C        0.49698405       0.03252584      -0.17427863
C       -0.36297978       1.05528142       0.19505098
C       -1.64042758       0.48650642       0.34794662
C       -1.56971955      -0.75648062      -0.30422689
N       -0.20583103      -1.10970901      -0.40621646
H        2.38515147      -0.41983506       0.74932159
H        2.36441860      -0.57631934      -1.00531963
H        2.38259841       1.02987240      -0.25696957
H       -0.06693749       2.05493765       0.47887293
H       -2.55837777       1.04119566       0.48332752
H       -2.34247067      -1.43117269      -0.63982706
H       -0.87154618      -1.42373959       0.70320702
13
Frame=5 idx=002090 GeodesicLength=0.47379166576417014 rxn_smarts="[C:1]([c:2]1[c:3]([H:10])[c:4]([H:11])[c:5]([H:12])[n:6]1[H:13])([H:7])([H:8])[H:9]>>[C:1]([C:2]1=[C:3]([H:10])[C:4]([H:11])([H:13])[C:5]([H:12])=[N:6]1)([H:7])([H:8])[H:9]"
C        1.98923840       0.01654164      -0.17347385
C        0.49758241       0.03647462      -0.18123667
C       -0.36250145       1.05582982       0.18904006
C       -1.63629827       0.47227948       0.36386388
C       -1.56683727      -0.75168640      -0.32974428
N       -0.20976022      -1.11155468      -0.39205995
H        2.38297954      -0.43229632       0.74183447
H        2.36466507      -0.56813093      -1.01411626
H        2.38474207       1.02958760      -0.24717966
H       -0.06855653       2.05568111       0.47375957
H       -2.55542983       1.02907928       0.48554664
H       -2.33951580      -1.43031658      -0.65758583
H       -0.88030812      -1.40148863       0.74135188
13
Frame=6 idx=002090 GeodesicLength=0.5686307512188233 rxn_smarts="[C:1]([c:2]1[c:3]([H:10])[c:4]([H:11])[c:5]([H:12])[n:6]1[H:13])([H:7])([H:8])[H:9]>>[C:1]([C:2]1=[C:3]([H:10])[C:4]([H:11])([H:13])[C:5]([H:12])=[N:6]1)([H:7])([H:8])[H:9]"
C        1.98918339       0.01600550      -0.17623458
C        0.49804364       0.04029209      -0.18782380
C       -0.36201241       1.05612840       0.18418186
C       -1.63262608       0.45858439       0.37721578
C       -1.56355538      -0.74710383      -0.35396199
N       -0.21409246      -1.11296167      -0.37814668
H        2.38090343      -0.44534980       0.73364401
H        2.36450382      -0.55957827      -1.02341116
H        2.38667161       1.02905588      -0.23711731
H       -0.07018158       2.05613047       0.46992127
H       -2.55276840       1.01718668       0.48642320
H       -2.33595816      -1.42962489      -0.67457245
H       -0.88811142      -1.37876495       0.77988184
13
Frame=7 idx=002090 GeodesicLength=0.6634710327658478 rxn_smarts="[C:1]([c:2]1[c:3]([H:10])[c:4]([H:11])[c:5]([H:12])[n:6]1[H:13])([H:7])([H:8])[H:9]>>[C:1]([C:2]1=[C:3]([H:10])[C:4]([H:11])([H:13])[C:5]([H:12])=[N:6]1)([H:7])([H:8])[H:9]"
C        1.98897600       0.01532044      -0.17911678
C        0.49836890       0.04398913      -0.19408233
C       -0.36153323       1.05623616       0.18022526
C       -1.62936619       0.44526197       0.38863573
C       -1.55992334      -0.74267789      -0.37718095
N       -0.21880616      -1.11396233      -0.36453299
H        2.37884671      -0.45896809       0.72483056
H        2.36399221      -0.55068801      -1.03309072
H        2.38841850       1.02824120      -0.22673320
H       -0.07183773       2.05637599       0.46700549
H       -2.55037672       1.00546883       0.48617642
H       -2.33189464      -1.42905148      -0.69095882
H       -0.89486430      -1.35554592       0.81882233
13
Frame=8 idx=002090 GeodesicLength=0.758311108846267 rxn_smarts="[C:1]([c:2]1[c:3]([H:10])[c:4]([H:11])[c:5]([H:12])[n:6]1[H:13])([H:7])([H:8])[H:9]>>[C:1]([C:2]1=[C:3]([H:10])[C:4]([H:11])([H:13])[C:5]([H:12])=[N:6]1)([H:7])([H:8])[H:9]"
C        1.98861672       0.01447921      -0.18208562
C        0.49855759       0.04756980      -0.20004581
C       -0.36108512       1.05618835       0.17698536
C       -1.62648170       0.43218755       0.39853829
C       -1.55597441      -0.73834946      -0.39966708
N       -0.22389011      -1.11459839      -0.35122776
H        2.37675289      -0.47311355       0.71545116
H        2.36316957      -0.54149292      -1.04306398
H        2.38999874       1.02711217      -0.21601371
H       -0.07354867       2.05646676       0.46478340
H       -2.54823488       0.99385850       0.48501230
H       -2.32739063      -1.42854812      -0.70691267
H       -0.90049001      -1.33175990       0.85824611
13
Frame=9 idx=002090 GeodesicLength=0.8531464859989514 rxn_smarts="[C:1]([c:2]1[c:3]([H:10])[c:4]([H:11])[c:5]([H:12])[n:6]1[H:13])([H:7])([H:8])[H:9]>>[C:1]([C:2]1=[C:3]([H:10])[C:4]([H:11])([H:13])[C:5]([H:12])=[N:6]1)([H:7])([H:8])[H:9]"
C        1.98810273       0.01347361      -0.18512024
C        0.49860745       0.05103324      -0.20574113
C       -0.36069123       1.05600409       0.17432636
C       -1.62394251       0.41925438       0.40720856
C       -1.55172737      -0.73406095      -0.42165143
N       -0.22934256      -1.11491333      -0.33821193
H        2.37457706      -0.48774282       0.70554714
H        2.36206060      -0.53203375      -1.05325620
H        2.39141708       1.02563938      -0.20497246
H       -0.07534033       2.05642286       0.46311505
H       -2.54632401       0.98228115       0.48310479
H       -2.32248936      -1.42806080      -0.72260342
H       -0.90490753      -1.30729706       0.89825491
13
Frame=10 idx=002090 GeodesicLength=0.9479798504777643 rxn_smarts="[C:1]([c:2]1[c:3]([H:10])[c:4]([H:11])[c:5]([H:12])[n:6]1[H:13])([H:7])([H:8])[H:9]>>[C:1]([C:2]1=[C:3]([H:10])[C:4]([H:11])([H:13])[C:5]([H:12])=[N:6]1)([H:7])([H:8])[H:9]"
C        1.98742831       0.01229213      -0.18820732
C        0.49851254       0.05437415      -0.21118893
C       -0.36037544       1.05569372       0.17214322
C       -1.62172681       0.40636464       0.41484914
C       -1.54718918      -0.72976046      -0.44333297
N       -0.23517266      -1.11495050      -0.32544599
H        2.37228219      -0.50284249       0.69513551
H        2.36067638      -0.52233153      -1.06362180
H        2.39267399       1.02379282      -0.19360391
H       -0.07723830       2.05625629       0.46189780
H       -2.54463588       0.97065505       0.48059402
H       -2.31721480      -1.42753518      -0.73819607
H       -0.90802035      -1.28200864       0.93897729
13
Frame=11 idx=002090 GeodesicLength=1.0428105685664524 rxn_smarts="[C:1]([c:2]1[c:3]([H:10])[c:4]([H:11])[c:5]([H:12])[n:6]1[H:13])([H:7])([H:8])[H:9]>>[C:1]([C:2]1=[C:3]([H:10])[C:4]([H:11])([H:13])[C:5]([H:12])=[N:6]1)([H:7])([H:8])[H:9]"
C        1.98658417       0.01092063      -0.19133891
C        0.49826462       0.05758307      -0.21640383
C       -0.36016553       1.05525929       0.17035256
C       -1.61981583       0.39342174       0.42161562
C       -1.54235581      -0.72540045      -0.46488343
N       -0.24139821      -1.11475102      -0.31288164
H        2.36983365      -0.51839649       0.68422821
H        2.35901858      -0.51241629      -1.07411991
H        2.39376250       1.02154073      -0.18191743
H       -0.07927321       2.05596447       0.46106668
H       -2.54316397       0.95889081       0.47760286
H       -2.31157871      -1.42690541      -0.75387317
H       -0.90971225      -1.25571108       0.98055240
13
Frame=12 idx=002090 GeodesicLength=1.1376388909742245 rxn_smarts="[C:1]([c:2]1[c:3]([H:10])[c:4]([H:11])[c:5]([H:12])[n:6]1[H:13])([H:7])([H:8])[H:9]>>[C:1]([C:2]1=[C:3]([H:10])[C:4]([H:11])([H:13])[C:5]([H:12])=[N:6]1)([H:7])([H:8])[H:9]"
C        1.98555826       0.00934162      -0.19451002
C        0.49785299       0.06064545      -0.22139125
C       -0.36009319       1.05469714       0.16888458
C       -1.61819375       0.38032656       0.42763386
C       -1.53721340      -0.72093935      -0.48644913
N       -0.24804561      -1.11435524      -0.30046177
H        2.36720014      -0.53439885       0.67282854
H        2.35707925      -0.50231640      -1.08471979
H        2.39467079       1.01884941      -0.16992101
H       -0.08148022       2.05553761       0.46057496
H       -2.54190630       0.94688983       0.47423990
H       -2.30558231      -1.42609600      -0.76983748
H       -0.90984665      -1.22818177       1.02312862
13
Frame=13 idx=002090 GeodesicLength=1.2324675200112978 rxn_smarts="[C:1]([c:2]1[c:3]([H:10])[c:4]([H:11])[c:5]([H:12])[n:6]1[H:13])([H:7])([H:8])[H:9]>>[C:1]([C:2]1=[C:3]([H:10])[C:4]([H:11])([H:13])[C:5]([H:12])=[N:6]1)([H:7])([H:8])[H:9]"
C        1.98433572       0.00753417      -0.19771438
C        0.49726428       0.06354301      -0.22615428
C       -0.36019447       1.05400005       0.16767422
C       -1.61684361       0.36697257       0.43301596
C       -1.53174165      -0.71633967      -0.50815459
N       -0.25515042      -1.11380158      -0.28813494
H        2.36434589      -0.55084630       0.66094336
H        2.35484691      -0.49206696      -1.09538920
H        2.39538373       1.01568298      -0.15762382
H       -0.08389946       2.05496320       0.46038053
H       -2.54086266       0.93453810       0.47062002
H       -2.29922249      -1.42501937      -0.78631218
H       -0.90826177      -1.19916020       1.06684932
13
Frame=14 idx=002090 GeodesicLength=1.3273185939384928 rxn_smarts="[C:1]([c:2]1[c:3]([H:10])[c:4]([H:11])[c:5]([H:12])[n:6]1[H:13])([H:7])([H:8])[H:9]>>[C:1]([C:2]1=[C:3]([H:10])[C:4]([H:11])([H:13])[C:5]([H:12])=[N:6]1)([H:7])([H:8])[H:9]"
C        1.98290595       0.00547730      -0.20094195
C        0.49648436       0.06625590      -0.23069871
C       -0.36050729       1.05316042       0.16665266
C       -1.61574784       0.35324128       0.43787039
C       -1.52592607      -0.71157036      -0.53010563
N       -0.26276222      -1.11312919      -0.27586412
H        2.36123419      -0.56773478       0.64859435
H        2.35231484      -0.48170816      -1.10609263
H        2.39589596       1.01200978      -0.14503561
H       -0.08656774       2.05422954       0.46044258
H       -2.54003720       0.92170196       0.46687169
H       -2.29251188      -1.42358240      -0.80354021
H       -0.90477505      -1.16835130       1.11184720
13
Frame=15 idx=002090 GeodesicLength=1.42211715568689 rxn_smarts="[C:1]([c:2]1[c:3]([H:10])[c:4]([H:11])[c:5]([H:12])[n:6]1[H:13])([H:7])([H:8])[H:9]>>[C:1]([C:2]1=[C:3]([H:10])[C:4]([H:11])([H:13])[C:5]([H:12])=[N:6]1)([H:7])([H:8])[H:9]"
C        1.98123052       0.00313082      -0.20418444
C        0.49548938       0.06874820      -0.23499683
C       -0.36109363       1.05215334       0.16576364
C       -1.61487979       0.33901531       0.44229417
C       -1.51969904      -0.70658708      -0.55236713
N       -0.27090270      -1.11236129      -0.26360254
H        2.35782136      -0.58507070       0.63576221
H        2.34945041      -0.47129432      -1.11678313
H        2.39613662       1.00776000      -0.13217267
H       -0.08956804       2.05329252       0.46073650
H       -2.53942810       0.90824265       0.46310872
H       -2.28536998      -1.42164556      -0.82176063
H       -0.89918702      -1.13538388       1.15820213
13
Frame=16 idx=002090 GeodesicLength=1.5169520823804068 rxn_smarts="[C:1]([c:2]1[c:3]([H:10])[c:4]([H:11])[c:5]([H:12])[n:6]1[H:13])([H:7])([H:8])[H:9]>>[C:1]([C:2]1=[C:3]([H:10])[C:4]([H:11])([H:13])[C:5]([H:12])=[N:6]1)([H:7])([H:8])[H:9]"
C        1.97930491       0.00046766      -0.20740904
C        0.49427413       0.07099208      -0.23903137
C       -0.36198359       1.05097464       0.16492895
C       -1.61420276       0.32415984       0.44641032
C       -1.51305052      -0.70139057      -0.57498473
N       -0.27964325      -1.11155576      -0.25132722
H        2.35405978      -0.60300335       0.62240910
H        2.34623834      -0.46071899      -1.12749808
H        2.39612935       1.00289490      -0.11883674
H       -0.09295497       2.05220836       0.46104313
H       -2.53902651       0.89399303       0.45949787
H       -2.27783838      -1.41915101      -0.84121604
H       -0.89130653      -1.09987083       1.20601386
