11
Frame=0 idx=011329 GeodesicLength=0.0 rxn_smarts="[C:1]([C:2]#[C:3][C:4](=[O:5])[C:6]#[C:7][H:11])([H:8])([H:9])[H:10]>>[C:1]([C:2]#[C:3][C:4](=[O:5])[C:7](=[C:6])[H:11])([H:8])([H:9])[H:10]"
C       -2.28649493      -0.12502769      -0.81219832
C       -0.93740543       0.16332593      -0.36056849
C        0.17419700       0.40202780       0.02446780
C        1.50103336       0.67383461       0.48136091
O        2.12835411       1.66425547       0.28340348
C        1.78965882      -0.44803135       2.00098773
C        2.42535811      -0.68633293       0.94464454
H       -2.96269035      -0.15341867       0.04369437
H       -2.32141521      -1.09767167      -1.30469398
H       -2.63639419       0.63656557      -1.50923236
H        3.12579869      -1.02952711       0.20813434
11
Frame=1 idx=011329 GeodesicLength=0.044121437654905775 rxn_smarts="[C:1]([C:2]#[C:3][C:4](=[O:5])[C:6]#[C:7][H:11])([H:8])([H:9])[H:10]>>[C:1]([C:2]#[C:3][C:4](=[O:5])[C:7](=[C:6])[H:11])([H:8])([H:9])[H:10]"
C       -2.29285319      -0.12111937      -0.81060479
C       -0.94519927       0.16939768      -0.35652416
C        0.17008213       0.40235464       0.02140040
C        1.49290956       0.67239901       0.49494716
O        2.10032369       1.68406958       0.34000408
C        1.78558308      -0.50750217       1.96412295
C        2.44178827      -0.70132590       0.91269086
H       -2.98831235      -0.05411887       0.02759579
H       -2.34834633      -1.13241488      -1.21587069
H       -2.60741960       0.58272589      -1.58143665
H        3.19144401      -0.99446560       0.20367505
11
Frame=2 idx=011329 GeodesicLength=0.08806695719233379 rxn_smarts="[C:1]([C:2]#[C:3][C:4](=[O:5])[C:6]#[C:7][H:11])([H:8])([H:9])[H:10]>>[C:1]([C:2]#[C:3][C:4](=[O:5])[C:7](=[C:6])[H:11])([H:8])([H:9])[H:10]"
C       -2.30121570      -0.11594990      -0.80919182
C       -0.94971767       0.16150240      -0.35900544
C        0.16863102       0.39201567       0.01124837
C        1.48379135       0.66806764       0.50639604
O        2.06583955       1.70157793       0.39553236
C        1.78309603      -0.56379953       1.92561436
C        2.46405113      -0.71127835       0.88388009
H       -3.00612758       0.04509549       0.00804276
H       -2.39085574      -1.15417792      -1.13201387
H       -2.58014137       0.53143215      -1.64092072
H        3.26264898      -0.95448558       0.21041786
11
Frame=3 idx=011329 GeodesicLength=0.13162362865949526 rxn_smarts="[C:1]([C:2]#[C:3][C:4](=[O:5])[C:6]#[C:7][H:11])([H:8])([H:9])[H:10]>>[C:1]([C:2]#[C:3][C:4](=[O:5])[C:7](=[C:6])[H:11])([H:8])([H:9])[H:10]"
C       -2.30798946      -0.11160982      -0.80804444
C       -0.95556128       0.16226479      -0.35890455
C        0.16480368       0.38986005       0.00715447
C        1.47476467       0.66516610       0.52027242
O        2.03367144       1.71656077       0.45533426
C        1.78291223      -0.62169307       1.88237951
C        2.48419192      -0.72177624       0.84992622
H       -3.02173765       0.14373397      -0.02310825
H       -2.42782155      -1.17095961      -1.03979515
H       -2.55306684       0.46600443      -1.69974056
H        3.32583284      -0.91755137       0.21452608
11
Frame=4 idx=011329 GeodesicLength=0.17509867792458095 rxn_smarts="[C:1]([C:2]#[C:3][C:4](=[O:5])[C:6]#[C:7][H:11])([H:8])([H:9])[H:10]>>[C:1]([C:2]#[C:3][C:4](=[O:5])[C:7](=[C:6])[H:11])([H:8])([H:9])[H:10]"
C       -2.31465814      -0.10722615      -0.80913566
C       -0.96647680       0.16276564      -0.34486859
C        0.15367717       0.38823940       0.02321777
C        1.46461585       0.66172105       0.53877346
O        2.00019142       1.72821388       0.51353454
C        1.79707725      -0.67673912       1.83858907
C        2.50644924      -0.73077487       0.80951579
H       -3.04232853       0.24569336      -0.07632569
H       -2.46737854      -1.17917564      -0.94327271
H       -2.51384876       0.38897732      -1.75954370
H        3.38267986      -0.88169487       0.20951573
11
Frame=5 idx=011329 GeodesicLength=0.21859142051843797 rxn_smarts="[C:1]([C:2]#[C:3][C:4](=[O:5])[C:6]#[C:7][H:11])([H:8])([H:9])[H:10]>>[C:1]([C:2]#[C:3][C:4](=[O:5])[C:7](=[C:6])[H:11])([H:8])([H:9])[H:10]"
C       -2.32204764      -0.10233595      -0.80802715
C       -0.97028419       0.15871635      -0.34976862
C        0.15093799       0.38313141       0.01585855
C        1.45429410       0.65690234       0.55401375
O        1.96231301       1.73805445       0.58225973
C        1.79978734      -0.73604286       1.78562449
C        2.53106986      -0.73541120       0.77190776
H       -3.04529259       0.34661957      -0.12522828
H       -2.51617832      -1.17549119      -0.84265118
H       -2.49007783       0.30626541      -1.80494527
H        3.44547829      -0.84040834       0.22095621
11
Frame=6 idx=011329 GeodesicLength=0.2620065255534926 rxn_smarts="[C:1]([C:2]#[C:3][C:4](=[O:5])[C:6]#[C:7][H:11])([H:8])([H:9])[H:10]>>[C:1]([C:2]#[C:3][C:4](=[O:5])[C:7](=[C:6])[H:11])([H:8])([H:9])[H:10]"
C       -2.32619122      -0.09939109      -0.80750439
C       -0.97884737       0.17591214      -0.34450857
C        0.14256403       0.39487347       0.02385504
C        1.44502320       0.65556916       0.57432352
O        1.93316989       1.74437683       0.65703645
C        1.80417004      -0.79566664       1.72598532
C        2.54904458      -0.74192100       0.72488954
H       -3.05347483       0.43790567      -0.19667161
H       -2.54958266      -1.16486285      -0.73221227
H       -2.46011056       0.20224291      -1.84691798
H        3.49423491      -0.80903860       0.22172495
11
Frame=7 idx=011329 GeodesicLength=0.30535877688253626 rxn_smarts="[C:1]([C:2]#[C:3][C:4](=[O:5])[C:6]#[C:7][H:11])([H:8])([H:9])[H:10]>>[C:1]([C:2]#[C:3][C:4](=[O:5])[C:7](=[C:6])[H:11])([H:8])([H:9])[H:10]"
C       -2.33177812      -0.09522198      -0.81011091
C       -0.99221031       0.17873955      -0.32402379
C        0.12630126       0.39439792       0.05502620
C        1.43362488       0.65077232       0.59949502
O        1.89830855       1.74696136       0.72589545
C        1.82820284      -0.84736365       1.67021438
C        2.57338715      -0.74224887       0.67461991
H       -3.05934778       0.53203746      -0.29223278
H       -2.60250089      -1.13658593      -0.62857074
H       -2.41448044       0.09370326      -1.88104565
H        3.54049287      -0.77519144       0.21073292
11
Frame=8 idx=011329 GeodesicLength=0.3482804762858101 rxn_smarts="[C:1]([C:2]#[C:3][C:4](=[O:5])[C:6]#[C:7][H:11])([H:8])([H:9])[H:10]>>[C:1]([C:2]#[C:3][C:4](=[O:5])[C:7](=[C:6])[H:11])([H:8])([H:9])[H:10]"
C       -2.33803260      -0.09106299      -0.81063941
C       -0.99682724       0.17575951      -0.32562460
C        0.11894352       0.39134311       0.06133540
C        1.42163900       0.64450419       0.62188965
O        1.85766618       1.74562651       0.80581437
C        1.84167441      -0.90118490       1.60452229
C        2.60092215      -0.73621439       0.62910528
H       -3.04606629       0.62018332      -0.38218493
H       -2.65968486      -1.09343491      -0.52330237
H       -2.39196627      -0.01817893      -1.89736044
H        3.59173199      -0.73734052       0.21644475
11
Frame=9 idx=011329 GeodesicLength=0.39119128759367966 rxn_smarts="[C:1]([C:2]#[C:3][C:4](=[O:5])[C:6]#[C:7][H:11])([H:8])([H:9])[H:10]>>[C:1]([C:2]#[C:3][C:4](=[O:5])[C:7](=[C:6])[H:11])([H:8])([H:9])[H:10]"
C       -2.34334852      -0.08760387      -0.81133129
C       -1.00200007       0.17872258      -0.32576245
C        0.11082936       0.39311135       0.07036364
C        1.40978805       0.63838015       0.64664810
O        1.81883387       1.73946112       0.89093934
C        1.85518441      -0.95282333       1.53301657
C        2.62718188      -0.72709695       0.58121157
H       -3.02899422       0.69621531      -0.48536459
H       -2.71386279      -1.03633917      -0.41941748
H       -2.37154155      -0.13874078      -1.90037064
H        3.63792959      -0.70328641       0.22006724
11
Frame=10 idx=011329 GeodesicLength=0.4342136501588335 rxn_smarts="[C:1]([C:2]#[C:3][C:4](=[O:5])[C:6]#[C:7][H:11])([H:8])([H:9])[H:10]>>[C:1]([C:2]#[C:3][C:4](=[O:5])[C:7](=[C:6])[H:11])([H:8])([H:9])[H:10]"
C       -2.34739502      -0.08437693      -0.81312642
C       -1.01261975       0.18574853      -0.31179924
C        0.09694151       0.39543926       0.09573985
C        1.39763348       0.63136273       0.67535514
O        1.78253427       1.72839713       0.97639486
C        1.87521392      -0.99895462       1.45920060
C        2.65168972      -0.71462842       0.52816128
H       -3.00865990       0.75951056      -0.61017357
H       -2.77169355      -0.96279113      -0.32407749
H       -2.34092845      -0.26707404      -1.88816120
H        3.67728377      -0.67263308       0.21248620
11
Frame=11 idx=011329 GeodesicLength=0.4777758430077064 rxn_smarts="[C:1]([C:2]#[C:3][C:4](=[O:5])[C:6]#[C:7][H:11])([H:8])([H:9])[H:10]>>[C:1]([C:2]#[C:3][C:4](=[O:5])[C:7](=[C:6])[H:11])([H:8])([H:9])[H:10]"
C       -2.35116483      -0.08244982      -0.81233653
C       -1.02117427       0.19753333      -0.30303538
C        0.08829587       0.40538639       0.10580290
C        1.38668017       0.62532939       0.70033385
O        1.74738822       1.71180377       1.06731071
C        1.88541771      -1.04246107       1.37488131
C        2.67555325      -0.69819308       0.47731713
H       -2.98350731       0.80323490      -0.73305403
H       -2.82292266      -0.88025106      -0.23631146
H       -2.32094100      -0.39295659      -1.85724431
H        3.71637485      -0.64697617       0.21633580
11
Frame=12 idx=011329 GeodesicLength=0.5212732334837711 rxn_smarts="[C:1]([C:2]#[C:3][C:4](=[O:5])[C:6]#[C:7][H:11])([H:8])([H:9])[H:10]>>[C:1]([C:2]#[C:3][C:4](=[O:5])[C:7](=[C:6])[H:11])([H:8])([H:9])[H:10]"
C       -2.35676643      -0.07958172      -0.81236615
C       -1.02976049       0.19444729      -0.29158224
C        0.07852479       0.40435986       0.11953880
C        1.37504482       0.61618415       0.72451094
O        1.70800364       1.69105825       1.15106096
C        1.90423592      -1.07666634       1.29415265
C        2.70403981      -0.67543759       0.43062059
H       -2.94570615       0.83790431      -0.85478046
H       -2.88364751      -0.78398662      -0.16665069
H       -2.31030317      -0.50792986      -1.81411939
H        3.75633476      -0.62035173       0.21961499
11
Frame=13 idx=011329 GeodesicLength=0.564828063006665 rxn_smarts="[C:1]([C:2]#[C:3][C:4](=[O:5])[C:6]#[C:7][H:11])([H:8])([H:9])[H:10]>>[C:1]([C:2]#[C:3][C:4](=[O:5])[C:7](=[C:6])[H:11])([H:8])([H:9])[H:10]"
C       -2.36289352      -0.07693271      -0.81067370
C       -1.03171156       0.19272448      -0.29748579
C        0.07551507       0.40776926       0.11396958
C        1.36330814       0.60663076       0.74510613
O        1.66492969       1.66359186       1.23803001
C        1.91654170      -1.10681680       1.20686203
C        2.73470260      -0.64840941       0.39155026
H       -2.90736591       0.85617745      -0.96324352
H       -2.92956689      -0.68314969      -0.10214876
H       -2.32089816      -0.61325462      -1.75918556
H        3.79743884      -0.59833058       0.23721931
11
Frame=14 idx=011329 GeodesicLength=0.6089181757133839 rxn_smarts="[C:1]([C:2]#[C:3][C:4](=[O:5])[C:6]#[C:7][H:11])([H:8])([H:9])[H:10]>>[C:1]([C:2]#[C:3][C:4](=[O:5])[C:7](=[C:6])[H:11])([H:8])([H:9])[H:10]"
C       -2.36568623      -0.07607625      -0.80828135
C       -1.03547407       0.20953472      -0.30030417
C        0.07178371       0.42601796       0.11056067
C        1.35225937       0.59975109       0.76716008
O        1.62811206       1.63029754       1.32926436
C        1.92100301      -1.13156936       1.11236703
C        2.75943229      -0.62084721       0.35183283
H       -2.87613622       0.85024928      -1.07560948
H       -2.96253258      -0.58209523      -0.04778803
H       -2.32245467      -0.71612044      -1.69003522
H        3.82969333      -0.58914209       0.25083327
11
Frame=15 idx=011329 GeodesicLength=0.6531416847525507 rxn_smarts="[C:1]([C:2]#[C:3][C:4](=[O:5])[C:6]#[C:7][H:11])([H:8])([H:9])[H:10]>>[C:1]([C:2]#[C:3][C:4](=[O:5])[C:7](=[C:6])[H:11])([H:8])([H:9])[H:10]"
C       -2.36820134      -0.07515189      -0.80714021
C       -1.04372598       0.22207879      -0.28977072
C        0.06326266       0.44005054       0.12129302
C        1.34118098       0.59156714       0.79171230
O        1.59343918       1.59337958       1.41608126
C        1.93154914      -1.14749916       1.02059249
C        2.78384170      -0.58932855       0.31188695
H       -2.83531498       0.83189900      -1.19314487
H       -3.00402406      -0.47192522      -0.01423053
H       -2.32011851      -0.81227019      -1.60925043
H        3.85811120      -0.58280005       0.25197073
11
Frame=16 idx=011329 GeodesicLength=0.6974384977706048 rxn_smarts="[C:1]([C:2]#[C:3][C:4](=[O:5])[C:6]#[C:7][H:11])([H:8])([H:9])[H:10]>>[C:1]([C:2]#[C:3][C:4](=[O:5])[C:7](=[C:6])[H:11])([H:8])([H:9])[H:10]"
C       -2.37334286      -0.07315464      -0.80442548
C       -1.04414233       0.22244884      -0.29763972
C        0.06074052       0.44952113       0.11451278
C        1.32896830       0.58032784       0.81082194
O        1.54823657       1.54800798       1.50047015
C        1.94464189      -1.15697227       0.92591355
C        2.81565054      -0.55205244       0.28275648
H       -2.79394275       0.80637902      -1.29350512
H       -3.03485632      -0.35602018       0.01564337
H       -2.34369655      -0.89322646      -1.52223813
H        3.89174299      -0.57525882       0.26769019
