20
Frame=0 idx=009797 GeodesicLength=0.0 rxn_smarts="[C:1]([C:2]([C:3]([N:4]1[C:5]([H:15])([H:16])[C@:6]1([C:7]([H:18])([H:19])[H:20])[H:17])([H:13])[H:14])([H:11])[H:12])([H:8])([H:9])[H:10]>>[C:1]([C:2]([C:3]([C:5](/[N:4]=[C:6](\[C:7]([H:18])([H:19])[H:20])[H:17])([H:15])[H:16])([H:13])[H:14])([H:11])[H:12])([H:8])([H:9])[H:10]"
C        3.02195062      -0.28076644      -0.75614425
C        1.67475600      -0.57268846      -0.10094612
C        0.75665983       0.62648102      -0.20254383
N       -0.50976340      -0.15648840       0.96767784
C       -1.07851761       0.68775637      -0.36940872
C       -1.80407875       0.36460360       0.88688063
C       -2.94513433      -0.62811114       0.77780749
H        3.51106074       0.58277199      -0.29814451
H        2.91746230      -0.07580385      -1.82468700
H        3.69344088      -1.13388627      -0.64843951
H        1.19449094      -1.42560612      -0.58528707
H        1.79909832      -0.84124096       0.94679114
H        0.80656178       0.96596933      -1.24428857
H        1.05343646       1.45412502       0.43530941
H       -1.32927102       0.08677899      -1.23446222
H       -1.01662730       1.75945436      -0.53673044
H       -2.05720228       1.23624499       1.51112010
H       -3.85859803      -0.14771636       0.41748430
H       -2.67318136      -1.43961707       0.10103521
H       -3.15654378      -1.06226058       1.75697613
20
Frame=1 idx=009797 GeodesicLength=0.08415721065893454 rxn_smarts="[C:1]([C:2]([C:3]([N:4]1[C:5]([H:15])([H:16])[C@:6]1([C:7]([H:18])([H:19])[H:20])[H:17])([H:13])[H:14])([H:11])[H:12])([H:8])([H:9])[H:10]>>[C:1]([C:2]([C:3]([C:5](/[N:4]=[C:6](\[C:7]([H:18])([H:19])[H:20])[H:17])([H:15])[H:16])([H:13])[H:14])([H:11])[H:12])([H:8])([H:9])[H:10]"
C        3.03536591      -0.28134543      -0.73985833
C        1.67644892      -0.57422243      -0.11004985
C        0.75625002       0.62308824      -0.22493225
N       -0.51606407      -0.14144530       0.93862005
C       -1.08341188       0.69380679      -0.38149255
C       -1.81224783       0.36546887       0.89392986
C       -2.95059426      -0.62923167       0.78975471
H        3.51533260       0.58147410      -0.27096760
H        2.94962942      -0.07424115      -1.80961902
H        3.70519632      -1.13439436      -0.62124443
H        1.20658974      -1.42773132      -0.60393363
H        1.78531077      -0.84562007       0.93910801
H        0.81317620       0.95692932      -1.26815033
H        1.05440437       1.45594621       0.40683438
H       -1.35617983       0.09543902      -1.24217470
H       -1.02440762       1.76544816      -0.55078441
H       -2.04929561       1.22434425       1.54057570
H       -3.87409128      -0.14324512       0.46434595
H       -2.69404895      -1.42323872       0.08691017
H       -3.13736293      -1.08722937       1.76312825
20
Frame=2 idx=009797 GeodesicLength=0.16815741821331856 rxn_smarts="[C:1]([C:2]([C:3]([N:4]1[C:5]([H:15])([H:16])[C@:6]1([C:7]([H:18])([H:19])[H:20])[H:17])([H:13])[H:14])([H:11])[H:12])([H:8])([H:9])[H:10]>>[C:1]([C:2]([C:3]([C:5](/[N:4]=[C:6](\[C:7]([H:18])([H:19])[H:20])[H:17])([H:15])[H:16])([H:13])[H:14])([H:11])[H:12])([H:8])([H:9])[H:10]"
C        3.04797748      -0.28217898      -0.72315260
C        1.67773214      -0.57566582      -0.11896660
C        0.75571104       0.61980685      -0.24770146
N       -0.52254157      -0.12558717       0.90950931
C       -1.08836046       0.70055403      -0.39415451
C       -1.81984625       0.36635652       0.90111277
C       -2.95519454      -0.63063402       0.80150673
H        3.51862661       0.58000238      -0.24376309
H        2.98109717      -0.07321498      -1.79386263
H        3.71585445      -1.13520820      -0.59338401
H        1.21843243      -1.42987908      -0.62195236
H        1.77092931      -0.84956748       0.93148295
H        0.81995904       0.94766386      -1.29240679
H        1.05539984       1.45798922       0.37766639
H       -1.38333504       0.10495981      -1.24991542
H       -1.03214608       1.77218601      -0.56498787
H       -2.04038620       1.21133521       1.57039461
H       -3.88804970      -0.13999464       0.51189832
H       -2.71482369      -1.40613995       0.07294216
H       -3.11703597      -1.11278357       1.76773410
20
Frame=3 idx=009797 GeodesicLength=0.2519599356527914 rxn_smarts="[C:1]([C:2]([C:3]([N:4]1[C:5]([H:15])([H:16])[C@:6]1([C:7]([H:18])([H:19])[H:20])[H:17])([H:13])[H:14])([H:11])[H:12])([H:8])([H:9])[H:10]>>[C:1]([C:2]([C:3]([C:5](/[N:4]=[C:6](\[C:7]([H:18])([H:19])[H:20])[H:17])([H:15])[H:16])([H:13])[H:14])([H:11])[H:12])([H:8])([H:9])[H:10]"
C        3.05971694      -0.28329209      -0.70610681
C        1.67859662      -0.57701958      -0.12762667
C        0.75506026       0.61668920      -0.27074500
N       -0.52917566      -0.10885320       0.88045707
C       -1.09334131       0.70802488      -0.40737670
C       -1.82684675       0.36726178       0.90847359
C       -2.95890598      -0.63235978       0.81300457
H        3.52095477       0.57837747      -0.21667115
H        3.01167799      -0.07277607      -1.77752989
H        3.72533947      -1.13639033      -0.56499154
H        1.22993118      -1.43208883      -0.63923194
H        1.75602535      -0.85305938       0.92401636
H        0.82691852       0.93827402      -1.31695913
H        1.05646705       1.46030489       0.34795251
H       -1.41067511       0.11530834      -1.25766273
H       -1.03984066       1.77973204      -0.57935023
H       -2.03046341       1.19722615       1.60052986
H       -3.90036009      -0.13808857       0.55977203
H       -2.73535743      -1.38849329       0.05927953
H       -3.09572173      -1.13877766       1.77076627
20
Frame=4 idx=009797 GeodesicLength=0.33550076806714546 rxn_smarts="[C:1]([C:2]([C:3]([N:4]1[C:5]([H:15])([H:16])[C@:6]1([C:7]([H:18])([H:19])[H:20])[H:17])([H:13])[H:14])([H:11])[H:12])([H:8])([H:9])[H:10]>>[C:1]([C:2]([C:3]([C:5](/[N:4]=[C:6](\[C:7]([H:18])([H:19])[H:20])[H:17])([H:15])[H:16])([H:13])[H:14])([H:11])[H:12])([H:8])([H:9])[H:10]"
C        3.07050037      -0.28469268      -0.68882899
C        1.67899398      -0.57819071      -0.13599367
C        0.75432457       0.61372785      -0.29392933
N       -0.53599861      -0.09111531       0.85149538
C       -1.09828313       0.71617288      -0.42104968
C       -1.83326563       0.36813647       0.91598738
C       -2.96168402      -0.63438502       0.82417878
H        3.52230252       0.57652330      -0.18997530
H        3.04122719      -0.07303976      -1.76063707
H        3.73353226      -1.13786722      -0.53625681
H        1.24096560      -1.43417769      -0.65559963
H        1.74057101      -0.85592390       0.91664382
H        0.83414542       0.92877124      -1.34154392
H        1.05762583       1.46274482       0.31779415
H       -1.43800061       0.12644484      -1.26517830
H       -1.04742550       1.78791935      -0.59376234
H       -2.01962448       1.18185135       1.63078816
H       -3.91091066      -0.13770283       0.60762906
H       -2.75540104      -1.37028911       0.04612776
H       -3.07359508      -1.16490786       1.77211055
20
Frame=5 idx=009797 GeodesicLength=0.4187962629349152 rxn_smarts="[C:1]([C:2]([C:3]([N:4]1[C:5]([H:15])([H:16])[C@:6]1([C:7]([H:18])([H:19])[H:20])[H:17])([H:13])[H:14])([H:11])[H:12])([H:8])([H:9])[H:10]>>[C:1]([C:2]([C:3]([C:5](/[N:4]=[C:6](\[C:7]([H:18])([H:19])[H:20])[H:17])([H:15])[H:16])([H:13])[H:14])([H:11])[H:12])([H:8])([H:9])[H:10]"
C        3.08033091      -0.28638306      -0.67131456
C        1.67893260      -0.57924343      -0.14402932
C        0.75349041       0.61096714      -0.31724245
N       -0.54297176      -0.07239247       0.82270323
C       -1.10322234       0.72504169      -0.43524027
C       -1.83904264       0.36898818       0.92372408
C       -2.96353426      -0.63675484       0.83503088
H        3.52271928       0.57451868      -0.16357686
H        3.06969224      -0.07393846      -1.74328068
H        3.74045298      -1.13972954      -0.50718959
H        1.25150434      -1.43630809      -0.67108326
H        1.72462714      -0.85825630       0.90950442
H        0.84157455       0.91922516      -1.36623803
H        1.05889976       1.46544235       0.28725758
H       -1.46540163       0.13833734      -1.27259069
H       -1.05495595       1.79690316      -0.60834478
H       -2.00773508       1.16530591       1.66121352
H       -3.91969587      -0.13879364       0.65529851
H       -2.77495424      -1.35174334       0.03351621
H       -3.05071043      -1.19118644       1.77188207
20
Frame=6 idx=009797 GeodesicLength=0.5018706515426232 rxn_smarts="[C:1]([C:2]([C:3]([N:4]1[C:5]([H:15])([H:16])[C@:6]1([C:7]([H:18])([H:19])[H:20])[H:17])([H:13])[H:14])([H:11])[H:12])([H:8])([H:9])[H:10]>>[C:1]([C:2]([C:3]([C:5](/[N:4]=[C:6](\[C:7]([H:18])([H:19])[H:20])[H:17])([H:15])[H:16])([H:13])[H:14])([H:11])[H:12])([H:8])([H:9])[H:10]"
C        3.08922295      -0.28830819      -0.65351951
C        1.67840436      -0.58017209      -0.15174781
C        0.75252956       0.60834020      -0.34071464
N       -0.55012253      -0.05272514       0.79399675
C       -1.10817247       0.73458305      -0.44997236
C       -1.84413978       0.36977657       0.93166768
C       -2.96447293      -0.63940360       0.84558315
H        3.52216791       0.57241431      -0.13742310
H        3.09714461      -0.07543247      -1.72539529
H        3.74614107      -1.14186385      -0.47772630
H        1.26158507      -1.43846850      -0.68569686
H        1.70814034      -0.86003656       0.90255711
H        0.84919183       0.90952567      -1.39104097
H        1.06023947       1.46831128       0.25627601
H       -1.49290358       0.15094733      -1.27985677
H       -1.06244228       1.80659853      -0.62314117
H       -1.99462658       1.14746829       1.69175674
H       -3.92672395      -0.14126619       0.70292462
H       -2.79414849      -1.33271994       0.02142763
H       -3.02701458      -1.21756871       1.77004508
20
Frame=7 idx=009797 GeodesicLength=0.5847668789964932 rxn_smarts="[C:1]([C:2]([C:3]([N:4]1[C:5]([H:15])([H:16])[C@:6]1([C:7]([H:18])([H:19])[H:20])[H:17])([H:13])[H:14])([H:11])[H:12])([H:8])([H:9])[H:10]>>[C:1]([C:2]([C:3]([C:5](/[N:4]=[C:6](\[C:7]([H:18])([H:19])[H:20])[H:17])([H:15])[H:16])([H:13])[H:14])([H:11])[H:12])([H:8])([H:9])[H:10]"
C        3.09717350      -0.29044526      -0.63537936
C        1.67738060      -0.58098804      -0.15915710
C        0.75140775       0.60580430      -0.36441760
N       -0.55745126      -0.03209016       0.76533256
C       -1.11316022       0.74482820      -0.46526619
C       -1.84849924       0.37048096       0.93983328
C       -2.96447082      -0.64232028       0.85584791
H        3.52061139       0.57025365      -0.11142997
H        3.12363745      -0.07750503      -1.70691982
H        3.75059840      -1.14422396      -0.44774321
H        1.27120765      -1.44069636      -0.69944962
H        1.69104594      -0.86125855       0.89579750
H        0.85694228       0.89954369      -1.41603839
H        1.06163590       1.47134098       0.22470711
H       -1.52060597       0.16435922      -1.28697218
H       -1.06989026       1.81703827      -0.63817699
H       -1.98013988       1.12822691       1.72241807
H       -3.93195512      -0.14510203       0.75059506
H       -2.81300965      -1.31316694       0.00986087
H       -3.00245842      -1.24407956       1.76655808
20
Frame=8 idx=009797 GeodesicLength=0.6675143064946141 rxn_smarts="[C:1]([C:2]([C:3]([N:4]1[C:5]([H:15])([H:16])[C@:6]1([C:7]([H:18])([H:19])[H:20])[H:17])([H:13])[H:14])([H:11])[H:12])([H:8])([H:9])[H:10]>>[C:1]([C:2]([C:3]([C:5](/[N:4]=[C:6](\[C:7]([H:18])([H:19])[H:20])[H:17])([H:15])[H:16])([H:13])[H:14])([H:11])[H:12])([H:8])([H:9])[H:10]"
C        3.10417776      -0.29274836      -0.61686134
C        1.67584831      -0.58169301      -0.16624942
C        0.75010561       0.60331498      -0.38836630
N       -0.56497608      -0.01051144       0.73666537
C       -1.11819511       0.75575323      -0.48115109
C       -1.85206389       0.37106156       0.94822294
C       -2.96353930      -0.64546678       0.86583363
H        3.51802128       0.56810030      -0.08556320
H        3.14918958      -0.08012192      -1.68782015
H        3.75383239      -1.14673114      -0.41719001
H        1.28037766      -1.44301011      -0.71232851
H        1.67330889      -0.86190678       0.88922975
H        0.86481017       0.88919922      -1.44123637
H        1.06307184       1.47448505       0.19251072
H       -1.54854236       0.17855681      -1.29391667
H       -1.07729952       1.82818932      -0.65350283
H       -1.96408082       1.10747079       1.75314331
H       -3.93536418      -0.15024270       0.79837964
H       -2.83164867      -1.29300894      -0.00117262
H       -2.97703355      -1.27069004       1.76137315
20
Frame=9 idx=009797 GeodesicLength=0.7501193171073867 rxn_smarts="[C:1]([C:2]([C:3]([N:4]1[C:5]([H:15])([H:16])[C@:6]1([C:7]([H:18])([H:19])[H:20])[H:17])([H:13])[H:14])([H:11])[H:12])([H:8])([H:9])[H:10]>>[C:1]([C:2]([C:3]([C:5](/[N:4]=[C:6](\[C:7]([H:18])([H:19])[H:20])[H:17])([H:15])[H:16])([H:13])[H:14])([H:11])[H:12])([H:8])([H:9])[H:10]"
C        3.11019715      -0.29521339      -0.59796002
C        1.67377581      -0.58228394      -0.17299100
C        0.74860423       0.60086472      -0.41254678
N       -0.57270081       0.01206585       0.70800706
C       -1.12328276       0.76738486      -0.49763316
C       -1.85477792       0.37149384       0.95684786
C       -2.96163857      -0.64884843       0.87551840
H        3.51437606       0.56598504      -0.05984951
H        3.17374502      -0.08331434      -1.66810107
H        3.75580392      -1.14937149      -0.38604518
H        1.28904138      -1.44543016      -0.72426743
H        1.65490757      -0.86194218       0.88289467
H        0.87276700       0.87844892      -1.46661815
H        1.06455083       1.47773807       0.15967117
H       -1.57673141       0.19357704      -1.30065893
H       -1.08467372       1.84008109      -0.66914060
H       -1.94632315       1.08510842       1.78386274
H       -3.93688437      -0.15672064       0.84620130
H       -2.85001793      -1.27225918      -0.01163622
H       -2.95073832      -1.29736410       1.75444485
20
Frame=10 idx=009797 GeodesicLength=0.8325968441991235 rxn_smarts="[C:1]([C:2]([C:3]([N:4]1[C:5]([H:15])([H:16])[C@:6]1([C:7]([H:18])([H:19])[H:20])[H:17])([H:13])[H:14])([H:11])[H:12])([H:8])([H:9])[H:10]>>[C:1]([C:2]([C:3]([C:5](/[N:4]=[C:6](\[C:7]([H:18])([H:19])[H:20])[H:17])([H:15])[H:16])([H:13])[H:14])([H:11])[H:12])([H:8])([H:9])[H:10]"
C        3.11518987      -0.29783670      -0.57866823
C        1.67112386      -0.58275348      -0.17934654
C        0.74688402       0.59844609      -0.43694401
N       -0.58063358       0.03570881       0.67936943
C       -1.12842708       0.77975243      -0.51471922
C       -1.85658270       0.37175136       0.96571525
C       -2.95872437      -0.65247307       0.88488069
H        3.50965502       0.56393490      -0.03431657
H        3.19724972      -0.08711816      -1.64776450
H        3.75646495      -1.15212890      -0.35428396
H        1.29713293      -1.44796931      -0.73519554
H        1.63580764      -0.86131713       0.87683298
H        0.88078696       0.86724444      -1.49216329
H        1.06607853       1.48109049       0.12616940
H       -1.60518646       0.20946120      -1.30716199
H       -1.09201183       1.85274129      -0.68511567
H       -1.92673386       1.06103956       1.81449087
H       -3.93644846      -0.16457730       0.89399211
H       -2.86806696      -1.25092791      -0.02149621
H       -2.92355821      -1.32406860       1.74572499
20
Frame=11 idx=009797 GeodesicLength=0.9149599340559831 rxn_smarts="[C:1]([C:2]([C:3]([N:4]1[C:5]([H:15])([H:16])[C@:6]1([C:7]([H:18])([H:19])[H:20])[H:17])([H:13])[H:14])([H:11])[H:12])([H:8])([H:9])[H:10]>>[C:1]([C:2]([C:3]([C:5](/[N:4]=[C:6](\[C:7]([H:18])([H:19])[H:20])[H:17])([H:15])[H:16])([H:13])[H:14])([H:11])[H:12])([H:8])([H:9])[H:10]"
C        3.11911969      -0.30059856      -0.55896734
C        1.66785852      -0.58309417      -0.18528300
C        0.74491793       0.59603565      -0.46154583
N       -0.58878866       0.06045375       0.65074123
C       -1.13363801       0.79286505      -0.53242400
C       -1.85740405       0.37179307       0.97482517
C       -2.95476240      -0.65632832       0.89390396
H        3.50382895       0.56199140      -0.00897738
H        3.21966168      -0.09155083      -1.62679436
H        3.75578113      -1.15496043      -0.32186836
H        1.30460620      -1.45063874      -0.74504629
H        1.61597544      -0.85998426       0.87107662
H        0.88883714       0.85552125      -1.51784673
H        1.06764326       1.48451157       0.09198315
H       -1.63392919       0.22623607      -1.31338601
H       -1.09932217       1.86617220      -0.70146417
H       -1.90512551       1.03513883       1.84492221
H       -3.93398395      -0.17380718       0.94173241
H       -2.88580246      -1.22898315      -0.03072460
H       -2.89547355      -1.35077319       1.73514333
20
Frame=12 idx=009797 GeodesicLength=0.9972507180521928 rxn_smarts="[C:1]([C:2]([C:3]([N:4]1[C:5]([H:15])([H:16])[C@:6]1([C:7]([H:18])([H:19])[H:20])[H:17])([H:13])[H:14])([H:11])[H:12])([H:8])([H:9])[H:10]>>[C:1]([C:2]([C:3]([C:5](/[N:4]=[C:6](\[C:7]([H:18])([H:19])[H:20])[H:17])([H:15])[H:16])([H:13])[H:14])([H:11])[H:12])([H:8])([H:9])[H:10]"
C        3.12194148      -0.30349744      -0.53883182
C        1.66393484      -0.58330820      -0.19074791
C        0.74267412       0.59362718      -0.48635369
N       -0.59717823       0.08637596       0.62213360
C       -1.13892964       0.80677990      -0.55077768
C       -1.85716087       0.37159243       0.98418919
C       -2.94969913      -0.66043482       0.90256699
H        3.49687315       0.56021195       0.01615331
H        3.24092383      -0.09667162      -1.60519920
H        3.75370443      -1.15785745      -0.28871926
H        1.31138956      -1.45349119      -0.75372858
H        1.59537324      -0.85788817       0.86570884
H        0.89686947       0.84321074      -1.54368838
H        1.06924568       1.48801945       0.05706741
H       -1.66300275       0.24397849      -1.31932816
H       -1.10660798       1.88045310      -0.71823795
H       -1.88129812       1.00728025       1.87508814
H       -3.92940681      -0.18445167       0.98941073
H       -2.90321760      -1.20641522      -0.03933163
H       -2.86642868      -1.37751367       1.72262606
20
Frame=13 idx=009797 GeodesicLength=1.0794725093979425 rxn_smarts="[C:1]([C:2]([C:3]([N:4]1[C:5]([H:15])([H:16])[C@:6]1([C:7]([H:18])([H:19])[H:20])[H:17])([H:13])[H:14])([H:11])[H:12])([H:8])([H:9])[H:10]>>[C:1]([C:2]([C:3]([C:5](/[N:4]=[C:6](\[C:7]([H:18])([H:19])[H:20])[H:17])([H:15])[H:16])([H:13])[H:14])([H:11])[H:12])([H:8])([H:9])[H:10]"
C        3.12359430      -0.30651618      -0.51827087
C        1.65929179      -0.58334998      -0.19570110
C        0.74013316       0.59119164      -0.51131435
N       -0.60581600       0.11356960       0.59355402
C       -1.14428975       0.82147961      -0.56974413
C       -1.85576418       0.37107741       0.99378983
C       -2.94347537      -0.66477582       0.91083473
H        3.48877413       0.55857501       0.04101144
H        3.26095834      -0.10248361      -1.58294235
H        3.75014562      -1.16076105      -0.25488056
H        1.31737269      -1.45645155      -0.76112874
H        1.57394197      -0.85492589       0.86072340
H        0.90486786       0.83023441      -1.56957379
H        1.07089960       1.49152723       0.02140537
H       -1.69239298       0.26272752      -1.32484708
H       -1.11385323       1.89550539      -0.73543774
H       -1.85511407       0.97730340       1.90473754
H       -3.92261461      -0.19655883       1.03690306
H       -2.92018403      -1.18321551      -0.04719269
H       -2.83647523      -1.40415281       1.70807401
20
Frame=14 idx=009797 GeodesicLength=1.1617441214201392 rxn_smarts="[C:1]([C:2]([C:3]([N:4]1[C:5]([H:15])([H:16])[C@:6]1([C:7]([H:18])([H:19])[H:20])[H:17])([H:13])[H:14])([H:11])[H:12])([H:8])([H:9])[H:10]>>[C:1]([C:2]([C:3]([C:5](/[N:4]=[C:6](\[C:7]([H:18])([H:19])[H:20])[H:17])([H:15])[H:16])([H:13])[H:14])([H:11])[H:12])([H:8])([H:9])[H:10]"
C        3.12403338      -0.30963347      -0.49714113
C        1.65386465      -0.58324654      -0.20010351
C        0.73721725       0.58866630      -0.53654828
N       -0.61472617       0.14212075       0.56493791
C       -1.14977127       0.83707941      -0.58940418
C       -1.85308740       0.37023633       1.00361901
C       -2.93599592      -0.66936366       0.91870792
H        3.47941884       0.55719192       0.06572635
H        3.27979837      -0.10904604      -1.55991576
H        3.74506475      -1.16361625      -0.22004639
H        1.32253846      -1.45963498      -0.76717481
H        1.55156061      -0.85105712       0.85619652
H        0.91271091       0.81634886      -1.59567762
H        1.07257586       1.49505031      -0.01525830
H       -1.72227037       0.28269323      -1.32997402
H       -1.12106356       1.91148011      -0.75315262
H       -1.82620255       0.94498781       1.93382316
H       -3.91344483      -0.21020491       1.08458828
H       -2.93690740      -1.15913795      -0.05442225
H       -2.80531361      -1.43091411       1.69121974
20
Frame=15 idx=009797 GeodesicLength=1.2442041141094013 rxn_smarts="[C:1]([C:2]([C:3]([N:4]1[C:5]([H:15])([H:16])[C@:6]1([C:7]([H:18])([H:19])[H:20])[H:17])([H:13])[H:14])([H:11])[H:12])([H:8])([H:9])[H:10]>>[C:1]([C:2]([C:3]([C:5](/[N:4]=[C:6](\[C:7]([H:18])([H:19])[H:20])[H:17])([H:15])[H:16])([H:13])[H:14])([H:11])[H:12])([H:8])([H:9])[H:10]"
C        3.12321699      -0.31273521      -0.47522942
C        1.64759641      -0.58303242      -0.20395365
C        0.73384001       0.58592317      -0.56219696
N       -0.62396773       0.17196205       0.53610874
C       -1.15542869       0.85359137      -0.60990204
C       -1.84895145       0.36903097       1.01362403
C       -2.92723816      -0.67411115       0.92622786
H        3.46862465       0.55626338       0.09051246
H        3.29753598      -0.11630905      -1.53590375
H        3.73843815      -1.16622342      -0.18382754
H        1.32694215      -1.46313914      -0.77187071
H        1.52807267      -0.84629039       0.85212769
H        0.92029910       0.80128641      -1.62215296
H        1.07419580       1.49850379      -0.05316626
H       -1.75278015       0.30395220      -1.33475050
H       -1.12822776       1.92840700      -0.77155666
H       -1.79388869       0.90993401       1.96222391
H       -3.90165537      -0.22536142       1.13312501
H       -2.95397527      -1.13366532      -0.06106257
H       -2.77264863      -1.45798683       1.67162330
20
Frame=16 idx=009797 GeodesicLength=1.3268080137862366 rxn_smarts="[C:1]([C:2]([C:3]([N:4]1[C:5]([H:15])([H:16])[C@:6]1([C:7]([H:18])([H:19])[H:20])[H:17])([H:13])[H:14])([H:11])[H:12])([H:8])([H:9])[H:10]>>[C:1]([C:2]([C:3]([C:5](/[N:4]=[C:6](\[C:7]([H:18])([H:19])[H:20])[H:17])([H:15])[H:16])([H:13])[H:14])([H:11])[H:12])([H:8])([H:9])[H:10]"
C        3.12098274      -0.31595469      -0.45273355
C        1.64036558      -0.58259242      -0.20706789
C        0.72998778       0.58305364      -0.58800298
N       -0.63352514       0.20349639       0.50732081
C       -1.16121518       0.87111695      -0.63105527
C       -1.84328743       0.36738395       1.02380895
C       -2.91696692      -0.67915083       0.93322025
H        3.45648711       0.55561176       0.11494939
H        3.31379436      -0.12454070      -1.51108825
H        3.73002560      -1.16872432      -0.14654345
H        1.33021453      -1.46682407      -0.77479474
H        1.50349974      -0.84030856       0.84867891
H        0.92759527       0.78508138      -1.64866029
H        1.07583952       1.50186736      -0.09215458
H       -1.78379372       0.32668280      -1.33888794
H       -1.13534865       1.94631001      -0.79053167
H       -1.75842362       0.87216153       1.98946657
H       -3.88706450      -0.24237653       1.18167237
H       -2.97053983      -1.10724289      -0.06688257
H       -2.73862722      -1.48505076       1.64928595
