14
Frame=0 idx=006008 GeodesicLength=0.0 rxn_smarts="[C:1]([C@@:2]1([H:10])[C@:3]([O:4][H:12])([H:11])[C@:5]1([O:6][H:14])[H:13])([H:7])([H:8])[H:9]>>[C:1]1([H:7])([H:9])[C@:2]2([H:10])[C@@:3]([O:4][H:12])([H:11])[C@:5]12[H:13].[O:6]([H:8])[H:14]"
C        1.33903105      -0.09476439      -0.15615283
C        0.47960093      -0.07065566       1.05896968
C       -0.72618791       0.79043179       0.74785784
O       -0.70230026       1.85079058      -0.13702520
C       -0.69475642      -0.63566523       0.39488857
O       -0.62209860      -1.25123519      -1.49407977
H        1.95018585      -0.98946334      -0.22671675
H        0.27006919      -0.74873080      -1.36565849
H        1.88196227       0.82225254      -0.38230554
H        0.78949491      -0.28647916       2.08024586
H       -1.42662857       0.99997811       1.55268630
H        0.04383587       1.69452155      -0.72973141
H       -1.37156580      -1.44867511       0.60187154
H       -1.21064254      -0.63230568      -1.94484984
14
Frame=1 idx=006008 GeodesicLength=0.0961283217744711 rxn_smarts="[C:1]([C@@:2]1([H:10])[C@:3]([O:4][H:12])([H:11])[C@:5]1([O:6][H:14])[H:13])([H:7])([H:8])[H:9]>>[C:1]1([H:7])([H:9])[C@:2]2([H:10])[C@@:3]([O:4][H:12])([H:11])[C@:5]12[H:13].[O:6]([H:8])[H:14]"
C        1.33666526      -0.11378150      -0.15349030
C        0.48221080      -0.05986348       1.06388162
C       -0.73065036       0.78373136       0.74301325
O       -0.73712719       1.82182857      -0.16909918
C       -0.68299612      -0.64493560       0.39687704
O       -0.63882447      -1.23099850      -1.50942200
H        1.95262403      -1.00688504      -0.20169723
H        0.28972982      -0.75735548      -1.38013409
H        1.87822921       0.79871395      -0.39950225
H        0.79138620      -0.26790971       2.08624633
H       -1.43202411       0.99459276       1.54673308
H        0.05018047       1.72367602      -0.71778805
H       -1.34687056      -1.46346910       0.62348437
H       -1.21253297      -0.57734425      -1.92910258
14
Frame=2 idx=006008 GeodesicLength=0.19236295419801974 rxn_smarts="[C:1]([C@@:2]1([H:10])[C@:3]([O:4][H:12])([H:11])[C@:5]1([O:6][H:14])[H:13])([H:7])([H:8])[H:9]>>[C:1]1([H:7])([H:9])[C@:2]2([H:10])[C@@:3]([O:4][H:12])([H:11])[C@:5]12[H:13].[O:6]([H:8])[H:14]"
C        1.33378322      -0.13273413      -0.15132570
C        0.48446228      -0.04940772       1.06786085
C       -0.73508276       0.77730290       0.73802080
O       -0.76780620       1.79289229      -0.19980654
C       -0.67199869      -0.65365959       0.39836786
O       -0.65458542      -1.21186725      -1.52408488
H        1.95492240      -1.02339149      -0.17724092
H        0.30902102      -0.76632967      -1.39494425
H        1.87367254       0.77495288      -0.41729858
H        0.79297992      -0.25018242       2.09114991
H       -1.43716941       0.99012947       1.54060251
H        0.05370098       1.75579888      -0.70251480
H       -1.32324947      -1.47678572       0.64458840
H       -1.21265041      -0.52671843      -1.91337466
14
Frame=3 idx=006008 GeodesicLength=0.28863650447210054 rxn_smarts="[C:1]([C@@:2]1([H:10])[C@:3]([O:4][H:12])([H:11])[C@:5]1([O:6][H:14])[H:13])([H:7])([H:8])[H:9]>>[C:1]1([H:7])([H:9])[C@:2]2([H:10])[C@@:3]([O:4][H:12])([H:11])[C@:5]12[H:13].[O:6]([H:8])[H:14]"
C        1.33046164      -0.15164838      -0.14952456
C        0.48639632      -0.03933306       1.07098914
C       -0.73942564       0.77111759       0.73291348
O       -0.79416374       1.76459805      -0.22882401
C       -0.66169573      -0.66189232       0.39939262
O       -0.66945943      -1.19366595      -1.53817580
H        1.95713986      -1.03900537      -0.15326310
H        0.32820164      -0.77575357      -1.40994605
H        1.86818960       0.75104572      -0.43554535
H        0.79428314      -0.23332661       2.09503380
H       -1.44199773       0.98649844       1.53432330
H        0.05378682       1.78987866      -0.68484246
H       -1.30063810      -1.48868230       0.66529160
H       -1.21107864      -0.47983089      -1.89782262
14
Frame=4 idx=006008 GeodesicLength=0.3852153857599299 rxn_smarts="[C:1]([C@@:2]1([H:10])[C@:3]([O:4][H:12])([H:11])[C@:5]1([O:6][H:14])[H:13])([H:7])([H:8])[H:9]>>[C:1]1([H:7])([H:9])[C@:2]2([H:10])[C@@:3]([O:4][H:12])([H:11])[C@:5]12[H:13].[O:6]([H:8])[H:14]"
C        1.32693250      -0.17058153      -0.14799013
C        0.48815258      -0.02967196       1.07348543
C       -0.74370164       0.76512848       0.72781636
O       -0.81653176       1.73734751      -0.25605599
C       -0.65207931      -0.66965495       0.40005257
O       -0.68363245      -1.17610483      -1.55197428
H        1.95957913      -1.05375689      -0.12960010
H        0.34751004      -0.78573111      -1.42517362
H        1.86200556       0.72696145      -0.45410201
H        0.79547593      -0.21735908       2.09825908
H       -1.44657971       0.98354795       1.52814563
H        0.05009409       1.82507017      -0.66582577
H       -1.27913040      -1.49913677       0.68575202
H       -1.20809455      -0.43605844      -1.88278918
14
Frame=5 idx=006008 GeodesicLength=0.4814063175680588 rxn_smarts="[C:1]([C@@:2]1([H:10])[C@:3]([O:4][H:12])([H:11])[C@:5]1([O:6][H:14])[H:13])([H:7])([H:8])[H:9]>>[C:1]1([H:7])([H:9])[C@:2]2([H:10])[C@@:3]([O:4][H:12])([H:11])[C@:5]12[H:13].[O:6]([H:8])[H:14]"
C        1.32291222      -0.18956776      -0.14663646
C        0.48961872      -0.02036763       1.07511106
C       -0.74770779       0.75936611       0.72261632
O       -0.83510877       1.71140070      -0.28137823
C       -0.64295256      -0.67700374       0.40023483
O       -0.69696558      -1.15913840      -1.56523271
H        1.96168763      -1.06776553      -0.10636888
H        0.36696361      -0.79618022      -1.44028531
H        1.85480466       0.70269760      -0.47259669
H        0.79634754      -0.20214919       2.10030939
H       -1.45052392       0.98125440       1.52180314
H        0.04268033       1.86088239      -0.64554613
H       -1.25826042      -1.50831814       0.70584194
H       -1.20349566      -0.39511061      -1.86787228
14
Frame=6 idx=006008 GeodesicLength=0.577838241645686 rxn_smarts="[C:1]([C@@:2]1([H:10])[C@:3]([O:4][H:12])([H:11])[C@:5]1([O:6][H:14])[H:13])([H:7])([H:8])[H:9]>>[C:1]1([H:7])([H:9])[C@:2]2([H:10])[C@@:3]([O:4][H:12])([H:11])[C@:5]12[H:13].[O:6]([H:8])[H:14]"
C        1.31881106      -0.20867871      -0.14542568
C        0.49102095      -0.01145792       1.07622239
C       -0.75157154       0.75379359       0.71752253
O       -0.85060986       1.68687407      -0.30497555
C       -0.63441273      -0.68394510       0.40012580
O       -0.70972772      -1.14246273      -1.57837996
H        1.96401685      -1.08109902      -0.08339616
H        0.38676487      -0.80708598      -1.45554284
H        1.84724659       0.67815953      -0.49093530
H        0.79722040      -0.18775467       2.10183889
H       -1.45410501       0.97946919       1.51575140
H        0.03147722       1.89685766      -0.62503601
H       -1.23834246      -1.51618127       0.72580499
H       -1.19778862      -0.35648863      -1.85357450
14
Frame=7 idx=006008 GeodesicLength=0.6742711979421935 rxn_smarts="[C:1]([C@@:2]1([H:10])[C@:3]([O:4][H:12])([H:11])[C@:5]1([O:6][H:14])[H:13])([H:7])([H:8])[H:9]>>[C:1]1([H:7])([H:9])[C@:2]2([H:10])[C@@:3]([O:4][H:12])([H:11])[C@:5]12[H:13].[O:6]([H:8])[H:14]"
C        1.31453274      -0.22796846      -0.14433105
C        0.49234033      -0.00289792       1.07673416
C       -0.75521892       0.74842388       0.71248675
O       -0.86340776       1.66378574      -0.32695201
C       -0.62636640      -0.69052392       0.39970248
O       -0.72189733      -1.12602305      -1.59135201
H        1.96632453      -1.09388375      -0.06072888
H        0.40694864      -0.81838564      -1.47082780
H        1.83935511       0.65327849      -0.50891857
H        0.79804659      -0.17405355       2.10267047
H       -1.45717881       0.97816870       1.50989682
H        0.01664329       1.93288908      -0.60427611
H       -1.21913674      -1.52283969       0.74563199
H       -1.19098528      -0.31996990      -1.83973623
14
Frame=8 idx=006008 GeodesicLength=0.7707774568137514 rxn_smarts="[C:1]([C@@:2]1([H:10])[C@:3]([O:4][H:12])([H:11])[C@:5]1([O:6][H:14])[H:13])([H:7])([H:8])[H:9]>>[C:1]1([H:7])([H:9])[C@:2]2([H:10])[C@@:3]([O:4][H:12])([H:11])[C@:5]12[H:13].[O:6]([H:8])[H:14]"
C        1.31014645      -0.24749045      -0.14333192
C        0.49364809       0.00532364       1.07670425
C       -0.75864074       0.74325138       0.70754393
O       -0.87391701       1.64211897      -0.34745790
C       -0.61879788      -0.69676953       0.39901142
O       -0.73356675      -1.10969419      -1.60424010
H        1.96864562      -1.10620466      -0.03831760
H        0.42759314      -0.83005860      -1.48615167
H        1.83137993       0.62798613      -0.52641679
H        0.79891476      -0.16100181       2.10290248
H       -1.45974645       0.97729438       1.50432183
H       -0.00176712       1.96888000      -0.58352598
H       -1.20063384      -1.52834375       0.76535679
H       -1.18325821      -0.28529151      -1.82639875
14
Frame=9 idx=006008 GeodesicLength=0.8672156812188168 rxn_smarts="[C:1]([C@@:2]1([H:10])[C@:3]([O:4][H:12])([H:11])[C@:5]1([O:6][H:14])[H:13])([H:7])([H:8])[H:9]>>[C:1]1([H:7])([H:9])[C@:2]2([H:10])[C@@:3]([O:4][H:12])([H:11])[C@:5]12[H:13].[O:6]([H:8])[H:14]"
C        1.30559598      -0.26728451      -0.14241437
C        0.49494962       0.01325920       1.07610786
C       -0.76179454       0.73827675       0.70266642
O       -0.88237794       1.62177720      -0.36661977
C       -0.61165309      -0.70269514       0.39805043
O       -0.74474742      -1.09344584      -1.61704935
H        1.97080580      -1.11815250      -0.01620679
H        0.44872901      -0.84204271      -1.50149186
H        1.82339863       0.60219827      -0.54332086
H        0.79983052      -0.14846073       2.10248674
H       -1.46172320       0.97683776       1.49898128
H       -0.02368493       2.00476130      -0.56264145
H       -1.18268827      -1.53271609       0.78499064
H       -1.17464018      -0.25231296      -1.81353892
14
Frame=10 idx=006008 GeodesicLength=0.9636800304406606 rxn_smarts="[C:1]([C@@:2]1([H:10])[C@:3]([O:4][H:12])([H:11])[C@:5]1([O:6][H:14])[H:13])([H:7])([H:8])[H:9]>>[C:1]1([H:7])([H:9])[C@:2]2([H:10])[C@@:3]([O:4][H:12])([H:11])[C@:5]12[H:13].[O:6]([H:8])[H:14]"
C        1.30095021      -0.28741110      -0.14156534
C        0.49631299       0.02089328       1.07498214
C       -0.76468056       0.73350964       0.69786863
O       -0.88907714       1.60276289      -0.38459406
C       -0.60492505      -0.70833233       0.39687195
O       -0.75551280      -1.07716605      -1.62982071
H        1.97286544      -1.12983393       0.00565477
H        0.47045525      -0.85434898      -1.51683447
H        1.81562601       0.57586236      -0.55958010
H        0.80087547      -0.13644436       2.10149146
H       -1.46313810       0.97677318       1.49391725
H       -0.04916816       2.04054984      -0.54180123
H       -1.16531476      -1.53601426       0.80456021
H       -1.16526878      -0.22080019      -1.80115049
14
Frame=11 idx=006008 GeodesicLength=1.060137893185022 rxn_smarts="[C:1]([C@@:2]1([H:10])[C@:3]([O:4][H:12])([H:11])[C@:5]1([O:6][H:14])[H:13])([H:7])([H:8])[H:9]>>[C:1]1([H:7])([H:9])[C@:2]2([H:10])[C@@:3]([O:4][H:12])([H:11])[C@:5]12[H:13].[O:6]([H:8])[H:14]"
C        1.29619613      -0.30791421      -0.14077670
C        0.49776512       0.02825389       1.07332076
C       -0.76727558       0.72895797       0.69313105
O       -0.89415113       1.58501620      -0.40149994
C       -0.59859028      -0.71369255       0.39548802
O       -0.76590329      -1.06080898      -1.64257430
H        1.97474845      -1.14133366       0.02725745
H        0.49283451      -0.86700053      -1.53215923
H        1.80815311       0.54890981      -0.57516625
H        0.80208268      -0.12486681       2.09991234
H       -1.46396126       0.97710570       1.48910199
H       -0.07827195       2.07624361      -0.52088283
H       -1.14844253      -1.53826064       0.82407250
H       -1.15518398      -0.19060980      -1.78922485
14
Frame=12 idx=006008 GeodesicLength=1.156652019568586 rxn_smarts="[C:1]([C@@:2]1([H:10])[C@:3]([O:4][H:12])([H:11])[C@:5]1([O:6][H:14])[H:13])([H:7])([H:8])[H:9]>>[C:1]1([H:7])([H:9])[C@:2]2([H:10])[C@@:3]([O:4][H:12])([H:11])[C@:5]12[H:13].[O:6]([H:8])[H:14]"
C        1.29137379      -0.32883745      -0.14003159
C        0.49937101       0.03533437       1.07115500
C       -0.76955900       0.72463734       0.68847156
O       -0.89774533       1.56853792      -0.41744646
C       -0.59265338      -0.71879181       0.39394001
O       -0.77600054      -1.04426678      -1.65535359
H        1.97648025      -1.15272894       0.04864781
H        0.51595016      -0.88007483      -1.54743529
H        1.80112555       0.52130881      -0.59007068
H        0.80353416      -0.11373279       2.09780629
H       -1.46418528       0.97782022       1.48457303
H       -0.11115745       2.11181678      -0.50000649
H       -1.13210295      -1.53950055       0.84352583
H       -1.14443099      -0.16152231      -1.77777543
14
Frame=13 idx=006008 GeodesicLength=1.253001074149301 rxn_smarts="[C:1]([C@@:2]1([H:10])[C@:3]([O:4][H:12])([H:11])[C@:5]1([O:6][H:14])[H:13])([H:7])([H:8])[H:9]>>[C:1]1([H:7])([H:9])[C@:2]2([H:10])[C@@:3]([O:4][H:12])([H:11])[C@:5]12[H:13].[O:6]([H:8])[H:14]"
C        1.28635183      -0.35022372      -0.13934436
C        0.50108852       0.04220412       1.06838780
C       -0.77147044       0.72056671       0.68381966
O       -0.89976690       1.55323824      -0.43246073
C       -0.58703430      -0.72360263       0.39217421
O       -0.78573264      -1.02755454      -1.66808977
H        1.97780193      -1.16409668       0.06972251
H        0.53985095      -0.89360628      -1.56260048
H        1.79443726       0.49293756      -0.60425929
H        0.80516711      -0.10284633       2.09500496
H       -1.46370109       0.97898340       1.48019655
H       -0.14798413       2.14716898      -0.47870430
H       -1.11609648      -1.53965530       0.86284842
H       -1.13291162      -0.13351353      -1.76669518
14
Frame=14 idx=006008 GeodesicLength=1.34938506728039 rxn_smarts="[C:1]([C@@:2]1([H:10])[C@:3]([O:4][H:12])([H:11])[C@:5]1([O:6][H:14])[H:13])([H:7])([H:8])[H:9]>>[C:1]1([H:7])([H:9])[C@:2]2([H:10])[C@@:3]([O:4][H:12])([H:11])[C@:5]12[H:13].[O:6]([H:8])[H:14]"
C        1.28126336      -0.37210196      -0.13867231
C        0.50304533       0.04880236       1.06513173
C       -0.77299257       0.71678410       0.67925296
O       -0.90038807       1.53921090      -0.44664861
C       -0.58178780      -0.72813898       0.39028368
O       -0.79524028      -1.01047023      -1.68087240
H        1.97888247      -1.17552884       0.09057878
H        0.56465590      -0.90765511      -1.57764241
H        1.78834920       0.46383347      -0.61773494
H        0.80713998      -0.09237312       2.09169847
H       -1.46254197       0.98055792       1.47611305
H       -0.18903868       2.18215948      -0.45750378
H       -1.10061058      -1.53880574       0.88206758
H       -1.12073629      -0.10627426      -1.75605181
14
Frame=15 idx=006008 GeodesicLength=1.4457472710450807 rxn_smarts="[C:1]([C@@:2]1([H:10])[C@:3]([O:4][H:12])([H:11])[C@:5]1([O:6][H:14])[H:13])([H:7])([H:8])[H:9]>>[C:1]1([H:7])([H:9])[C@:2]2([H:10])[C@@:3]([O:4][H:12])([H:11])[C@:5]12[H:13].[O:6]([H:8])[H:14]"
C        1.27606529      -0.39451025      -0.13801224
C        0.50526314       0.05514910       1.06136074
C       -0.77406940       0.71332842       0.67475897
O       -0.89954235       1.52646091      -0.46003276
C       -0.57688761      -0.73237304       0.38825620
O       -0.80452342      -0.99292010      -1.69369338
H        1.97961575      -1.18710797       0.11118368
H        0.59044449      -0.92233983      -1.59249408
H        1.78285250       0.43392723      -0.63049961
H        0.80947005      -0.08225542       2.08783982
H       -1.46063734       0.98258733       1.47229296
H       -0.23463719       2.21662796      -0.43629654
H       -1.08558676      -1.53691645       0.90113729
H       -1.10782716      -0.07965790      -1.74580104
14
Frame=16 idx=006008 GeodesicLength=1.542055031250867 rxn_smarts="[C:1]([C@@:2]1([H:10])[C@:3]([O:4][H:12])([H:11])[C@:5]1([O:6][H:14])[H:13])([H:7])([H:8])[H:9]>>[C:1]1([H:7])([H:9])[C@:2]2([H:10])[C@@:3]([O:4][H:12])([H:11])[C@:5]12[H:13].[O:6]([H:8])[H:14]"
C        1.27072636      -0.41747865      -0.13735212
C        0.50778278       0.06124222       1.05707608
C       -0.77461943       0.71025767       0.67036552
O       -0.89717214       1.51502476      -0.47259466
C       -0.57231450      -0.73625790       0.38609031
O       -0.81357537      -0.97474754      -1.70655255
H        1.97992243      -1.19890716       0.13151642
H        0.61730587      -0.93779218      -1.60707143
H        1.77794809       0.40317379      -0.64253566
H        0.81218895      -0.07251048       2.08341213
H       -1.45788841       0.98511336       1.46876472
H       -0.28517890       2.25030214      -0.41520611
H       -1.07102223      -1.53395012       0.91996630
H       -1.09410350      -0.05346992      -1.73587895
