18
Frame=0 idx=004590 GeodesicLength=0.0 rxn_smarts="[C:1]([C:2]([C:3]([H:11])([H:12])[H:13])([C:4]([C:5]([O:6][H:18])([H:16])[H:17])([H:14])[H:15])[H:10])([H:7])([H:8])[H:9]>>[C:1]([H:7])([H:8])([H:9])[H:16].[C@@:2]1([C:3]([H:11])([H:12])[H:13])([H:10])[C:4]([H:14])([H:15])[C@:5]1([O:6][H:18])[H:17]"
C       -0.65641822       1.15147784      -1.24954597
C       -0.48855297      -0.96555308       0.18431978
C       -1.85342575      -0.87016774       0.75919649
C        0.69769732      -0.46102324       0.81859727
C        1.66213615       0.30273769      -0.08867159
O        2.70445579       0.90959200       0.56626676
H       -0.33972110       2.02368185      -1.82888493
H       -1.39567727       1.46627272      -0.51617549
H       -1.09370152       0.42646572      -1.93090739
H       -0.34814975      -1.67656209      -0.62467827
H       -1.88359866      -0.18938020       1.61207644
H       -2.24213755      -1.84137226       1.08651760
H       -2.56604754      -0.49349438       0.01197406
H        0.50640044       0.12091422       1.72218085
H        1.33186825      -1.32485464       1.08131722
H        0.45504467       0.92706501      -0.73479978
H        1.98110646      -0.27279715      -0.96770054
H        3.52872123       0.76699766       0.09891748
18
Frame=1 idx=004590 GeodesicLength=0.10602290112567399 rxn_smarts="[C:1]([C:2]([C:3]([H:11])([H:12])[H:13])([C:4]([C:5]([O:6][H:18])([H:16])[H:17])([H:14])[H:15])[H:10])([H:7])([H:8])[H:9]>>[C:1]([H:7])([H:8])([H:9])[H:16].[C@@:2]1([C:3]([H:11])([H:12])[H:13])([H:10])[C:4]([H:14])([H:15])[C@:5]1([O:6][H:18])[H:17]"
C       -0.66539092       1.16964517      -1.24013255
C       -0.47054607      -0.94887452       0.17336981
C       -1.84292460      -0.89456232       0.73933855
C        0.69540074      -0.44271227       0.84938405
C        1.65585380       0.28632268      -0.08381748
O        2.73228408       0.85884822       0.55135642
H       -0.33065051       2.01586013      -1.84717394
H       -1.39332675       1.51691142      -0.50969326
H       -1.14753059       0.46579534      -1.91403599
H       -0.30770651      -1.68118755      -0.61244829
H       -1.90720132      -0.18944863       1.57016520
H       -2.19313993      -1.86979316       1.09586070
H       -2.56619766      -0.57001762      -0.02135406
H        0.48008597       0.17236013       1.72438228
H        1.31729359      -1.30134194       1.15096057
H        0.46184205       0.98076893      -0.70203460
H        1.94073856      -0.26726728      -0.98744480
H        3.54111607       0.69869326       0.06331737
18
Frame=2 idx=004590 GeodesicLength=0.2118131862081111 rxn_smarts="[C:1]([C:2]([C:3]([H:11])([H:12])[H:13])([C:4]([C:5]([O:6][H:18])([H:16])[H:17])([H:14])[H:15])[H:10])([H:7])([H:8])[H:9]>>[C:1]([H:7])([H:8])([H:9])[H:16].[C@@:2]1([C:3]([H:11])([H:12])[H:13])([H:10])[C:4]([H:14])([H:15])[C@:5]1([O:6][H:18])[H:17]"
C       -0.67387214       1.18683849      -1.23075569
C       -0.45275080      -0.93314976       0.16226867
C       -1.83125583      -0.91830107       0.71981316
C        0.69240817      -0.42505155       0.87821937
C        1.64817590       0.27083592      -0.07898311
O        2.75571616       0.80833852       0.53810319
H       -0.32082083       2.00359758      -1.86701329
H       -1.38619628       1.57021163      -0.50250011
H       -1.20449745       0.50680657      -1.89336191
H       -0.26848299      -1.68620790      -0.59931618
H       -1.92967792      -0.18984894       1.52670451
H       -2.14433679      -1.89413366       1.10703900
H       -2.56240023      -0.64741356      -0.05362280
H        0.45481025       0.21962884       1.72496335
H        1.30180563      -1.27773830       1.21589908
H        0.47008123       1.03128991      -0.67281792
H        1.90202357      -0.25822952      -1.00551457
H        3.54927035       0.63252679       0.03087526
18
Frame=3 idx=004590 GeodesicLength=0.3174045270741877 rxn_smarts="[C:1]([C:2]([C:3]([H:11])([H:12])[H:13])([C:4]([C:5]([O:6][H:18])([H:16])[H:17])([H:14])[H:15])[H:10])([H:7])([H:8])[H:9]>>[C:1]([H:7])([H:8])([H:9])[H:16].[C@@:2]1([C:3]([H:11])([H:12])[H:13])([H:10])[C:4]([H:14])([H:15])[C@:5]1([O:6][H:18])[H:17]"
C       -0.68240490       1.20331092      -1.22112978
C       -0.43513600      -0.91835736       0.15096219
C       -1.81858581      -0.94158501       0.70042513
C        0.68871313      -0.40777505       0.90514529
C        1.63946893       0.25615647      -0.07426579
O        2.77535452       0.75809642       0.52629187
H       -0.31118684       1.98671655      -1.88815352
H       -1.37433824       1.62623071      -0.49456360
H       -1.26423480       0.54987881      -1.86820702
H       -0.23021862      -1.69145259      -0.58545123
H       -1.95127562      -0.19098298       1.48158149
H       -2.09600589      -1.91471269       1.11954416
H       -2.55472609      -0.72574180      -0.08488606
H        0.43020987       0.26354407       1.72393902
H        1.28540375      -1.25380324       1.27686861
H        0.47985662       1.07873276      -0.64753680
H        1.86516862      -0.24628529      -1.02200338
H        3.55393738       0.56802931       0.00143943
18
Frame=4 idx=004590 GeodesicLength=0.4228219619808201 rxn_smarts="[C:1]([C:2]([C:3]([H:11])([H:12])[H:13])([C:4]([C:5]([O:6][H:18])([H:16])[H:17])([H:14])[H:15])[H:10])([H:7])([H:8])[H:9]>>[C:1]([H:7])([H:8])([H:9])[H:16].[C@@:2]1([C:3]([H:11])([H:12])[H:13])([H:10])[C:4]([H:14])([H:15])[C@:5]1([O:6][H:18])[H:17]"
C       -0.69141438       1.21924807      -1.21098388
C       -0.41765599      -0.90447945       0.13942993
C       -1.80503770      -0.96452464       0.68100688
C        0.68433894      -0.39070703       0.93022767
C        1.63000318       0.24221794      -0.06971237
O        2.79171468       0.70806360       0.51578172
H       -0.30273338       1.96493567      -1.91036745
H       -1.35791621       1.68489154      -0.48617885
H       -1.32614800       0.59520855      -1.83798034
H       -0.19269120      -1.69676773      -0.57099270
H       -1.97211512      -0.19319275       1.43476666
H       -2.04846477      -1.93177933       1.13284110
H       -2.54317880      -0.80480778      -0.11517012
H        0.40604108       0.30468454       1.72135680
H        1.26811142      -1.22937409       1.33439318
H        0.49118524       1.12343348      -0.62621030
H        1.83026171      -0.23187127      -1.03699995
H        3.55569929       0.50482068      -0.02520796
18
Frame=5 idx=004590 GeodesicLength=0.5280982839696097 rxn_smarts="[C:1]([C:2]([C:3]([H:11])([H:12])[H:13])([C:4]([C:5]([O:6][H:18])([H:16])[H:17])([H:14])[H:15])[H:10])([H:7])([H:8])[H:9]>>[C:1]([H:7])([H:8])([H:9])[H:16].[C@@:2]1([C:3]([H:11])([H:12])[H:13])([H:10])[C:4]([H:14])([H:15])[C@:5]1([O:6][H:18])[H:17]"
C       -0.70121307       1.23479718      -1.20004974
C       -0.40026190      -0.89149783       0.12767959
C       -1.79071309      -0.98716331       0.66141834
C        0.67932814      -0.37373052       0.95355169
C        1.61997035       0.22902670      -0.06533903
O        2.80522074       0.65816816       0.50646944
H       -0.29641645       1.93788435      -1.93339637
H       -1.33713944       1.74603873      -0.47786763
H       -1.38949578       0.64285184      -1.80220931
H       -0.15572538      -1.70200975      -0.55606878
H       -1.99221581      -0.19678444       1.38636078
H       -2.00205035      -1.94558520       1.14636238
H       -2.52775728      -0.88419098      -0.14449042
H        0.38214219       0.34345306       1.71731754
H        1.24997466      -1.20435372       1.38884057
H        0.50403481       1.16579493      -0.60869307
H        1.79732624      -0.21530373      -1.05057160
H        3.55499142       0.44260454      -0.04931437
18
Frame=6 idx=004590 GeodesicLength=0.6332560265534047 rxn_smarts="[C:1]([C:2]([C:3]([H:11])([H:12])[H:13])([C:4]([C:5]([O:6][H:18])([H:16])[H:17])([H:14])[H:15])[H:10])([H:7])([H:8])[H:9]>>[C:1]([H:7])([H:8])([H:9])[H:16].[C@@:2]1([C:3]([H:11])([H:12])[H:13])([H:10])[C:4]([H:14])([H:15])[C@:5]1([O:6][H:18])[H:17]"
C       -0.71201279       1.25004850      -1.18807998
C       -0.38290444      -0.87939053       0.11573962
C       -1.77569523      -1.00946753       0.64154311
C        0.67375088      -0.35679626       0.97520517
C        1.60950763       0.21662234      -0.06113621
O        2.81619973       0.60835400       0.49827381
H       -0.29318322       1.90529231      -1.95675471
H       -1.31232565       1.80935744      -0.47037942
H       -1.45335473       0.69268365      -1.76062733
H       -0.11920850      -1.70705659      -0.54077996
H       -2.01147208      -0.20197222       1.33655265
H       -1.95712050      -1.95634620       1.15955969
H       -2.50851140      -0.96324946      -0.17286212
H        0.35844839       0.38008990       1.71195382
H        1.23107889      -1.17872193       1.44043967
H        0.51833509       1.20617142      -0.59477060
H        1.76634935      -0.19685436      -1.06273407
H        3.55211858       0.38123553      -0.07114312
18
Frame=7 idx=004590 GeodesicLength=0.7383361131561764 rxn_smarts="[C:1]([C:2]([C:3]([H:11])([H:12])[H:13])([C:4]([C:5]([O:6][H:18])([H:16])[H:17])([H:14])[H:15])[H:10])([H:7])([H:8])[H:9]>>[C:1]([H:7])([H:8])([H:9])[H:16].[C@@:2]1([C:3]([H:11])([H:12])[H:13])([H:10])[C:4]([H:14])([H:15])[C@:5]1([O:6][H:18])[H:17]"
C       -0.72392969       1.26508887      -1.17485537
C       -0.36553836      -0.86811521       0.10365578
C       -1.76005693      -1.03136659       0.62130661
C        0.66768886      -0.33988963       0.99528880
C        1.59871643       0.20508547      -0.05707787
O        2.82491225       0.55857938       0.49111445
H       -0.29390098       1.86700850      -1.97979280
H       -1.28389861       1.87445425      -0.46462117
H       -1.51668864       0.74442399      -1.71322085
H       -0.08306894      -1.71178570      -0.52521947
H       -2.02971323      -0.20891103       1.28567175
H       -1.91398589      -1.96433912       1.17189788
H       -2.48559394      -1.04121215      -0.20028725
H        0.33494099       0.41474889       1.70543820
H        1.21152799      -1.15251688       1.48934738
H        0.53399027       1.24488642      -0.58420561
H        1.73729833      -0.17675992      -1.07348114
H        3.54730009       0.32062044      -0.09095934
18
Frame=8 idx=004590 GeodesicLength=0.8433901581032126 rxn_smarts="[C:1]([C:2]([C:3]([H:11])([H:12])[H:13])([C:4]([C:5]([O:6][H:18])([H:16])[H:17])([H:14])[H:15])[H:10])([H:7])([H:8])[H:9]>>[C:1]([H:7])([H:8])([H:9])[H:16].[C@@:2]1([C:3]([H:11])([H:12])[H:13])([H:10])[C:4]([H:14])([H:15])[C@:5]1([O:6][H:18])[H:17]"
C       -0.73696915       1.28001537      -1.16021350
C       -0.34813857      -0.85761005       0.09148459
C       -1.74387718      -1.05278118       0.60068840
C        0.66123176      -0.32302427       1.01392730
C        1.58768816       0.19451413      -0.05312424
O        2.83159343       0.50879528       0.48491121
H       -0.29931776       1.82315292      -2.00168007
H       -1.25239777       1.94083081      -0.46160961
H       -1.57837908       0.79762191      -1.66028964
H       -0.04730264      -1.71608801      -0.50947598
H       -2.04673919      -0.21767964       1.23416234
H       -1.87290825      -1.96992031       1.18289798
H       -2.45931118      -1.11727536      -0.22675293
H        0.31165374       0.44753523       1.69798655
H        1.19142875      -1.12582644       1.53570527
H        0.55091340       1.28223105      -0.57675229
H        1.71012095      -0.15524674      -1.08280374
H        3.54071058       0.26075529      -0.10906166
18
Frame=9 idx=004590 GeodesicLength=0.9485359229230789 rxn_smarts="[C:1]([C:2]([C:3]([H:11])([H:12])[H:13])([C:4]([C:5]([O:6][H:18])([H:16])[H:17])([H:14])[H:15])[H:10])([H:7])([H:8])[H:9]>>[C:1]([H:7])([H:8])([H:9])[H:16].[C@@:2]1([C:3]([H:11])([H:12])[H:13])([H:10])[C:4]([H:14])([H:15])[C@:5]1([O:6][H:18])[H:17]"
C       -0.75110590       1.29488940      -1.14399535
C       -0.33066055      -0.84775121       0.07927735
C       -1.72717379      -1.07355075       0.57965058
C        0.65447274      -0.30626999       1.03120043
C        1.57646501       0.18497618      -0.04919757
O        2.83633570       0.45892226       0.47960351
H       -0.30992506       1.77380630      -2.02144674
H       -1.21841640       2.00799230      -0.46238085
H       -1.63756659       0.85189887      -1.60223384
H       -0.01186121      -1.71976030      -0.49364497
H       -2.06236513      -0.22815797       1.18233804
H       -1.83389240      -1.97327094       1.19230166
H       -2.42991878      -1.19083786      -0.25232438
H        0.28860816       0.47842234       1.68978592
H        1.17091327      -1.09884415       1.57948610
H        0.56893512       1.31838982      -0.57210790
H        1.68475945      -0.13252770      -1.09062102
H        3.53239637       0.20167340      -0.12569097
18
Frame=10 idx=004590 GeodesicLength=1.0538122132084793 rxn_smarts="[C:1]([C:2]([C:3]([H:11])([H:12])[H:13])([C:4]([C:5]([O:6][H:18])([H:16])[H:17])([H:14])[H:15])[H:10])([H:7])([H:8])[H:9]>>[C:1]([H:7])([H:8])([H:9])[H:16].[C@@:2]1([C:3]([H:11])([H:12])[H:13])([H:10])[C:4]([H:14])([H:15])[C@:5]1([O:6][H:18])[H:17]"
C       -0.76613447       1.30983795      -1.12620084
C       -0.31312899      -0.83845587       0.06708771
C       -1.71004855      -1.09364989       0.55827592
C        0.64749826      -0.28966654       1.04726977
C        1.56514785       0.17657583      -0.04526310
O        2.83935143       0.40893012       0.47507686
H       -0.32609034       1.71983636      -2.03803107
H       -1.18265103       2.07525839      -0.46797257
H       -1.69326963       0.90658713      -1.53984390
H        0.02314718      -1.72275042      -0.47782443
H       -2.07646238      -0.24026007       1.13066375
H       -1.79706662      -1.97482449       1.19989722
H       -2.39794562      -1.26140486      -0.27695174
H        0.26589841       0.50750076       1.68110395
H        1.15007163      -1.07170935       1.62086190
H        0.58802975       1.35361917      -0.57002896
H        1.66113745      -0.10880080      -1.09698218
H        3.52251568       0.14337661      -0.14113829
18
Frame=11 idx=004590 GeodesicLength=1.1593167072204773 rxn_smarts="[C:1]([C:2]([C:3]([H:11])([H:12])[H:13])([C:4]([C:5]([O:6][H:18])([H:16])[H:17])([H:14])[H:15])[H:10])([H:7])([H:8])[H:9]>>[C:1]([H:7])([H:8])([H:9])[H:16].[C@@:2]1([C:3]([H:11])([H:12])[H:13])([H:10])[C:4]([H:14])([H:15])[C@:5]1([O:6][H:18])[H:17]"
C       -0.78184359       1.32496390      -1.10684272
C       -0.29554090      -0.82960253       0.05495719
C       -1.69252469      -1.11301574       0.53661557
C        0.64037537      -0.27328753       1.06225035
C        1.55378196       0.16936613      -0.04126045
O        2.84069884       0.35874667       0.47122109
H       -0.34784652       1.66206318      -2.05042431
H       -1.14577122       2.14197914      -0.47930468
H       -1.74490722       0.96125031      -1.47380538
H        0.05769342      -1.72494680      -0.46210526
H       -2.08896031      -0.25374743       1.07934598
H       -1.76231441      -1.97479992       1.20571219
H       -2.36374569      -1.32882123      -0.30064275
H        0.24356493       0.53478363       1.67214498
H        1.12899001      -1.04462830       1.65988562
H        0.60810312       1.38809582      -0.57022539
H        1.63916084      -0.08423555      -1.10188576
H        3.51108607       0.08583625      -0.15563628
18
Frame=12 idx=004590 GeodesicLength=1.2651505422202889 rxn_smarts="[C:1]([C:2]([C:3]([H:11])([H:12])[H:13])([C:4]([C:5]([O:6][H:18])([H:16])[H:17])([H:14])[H:15])[H:10])([H:7])([H:8])[H:9]>>[C:1]([H:7])([H:8])([H:9])[H:16].[C@@:2]1([C:3]([H:11])([H:12])[H:13])([H:10])[C:4]([H:14])([H:15])[C@:5]1([O:6][H:18])[H:17]"
C       -0.79798463       1.34036823      -1.08601509
C       -0.27791930      -0.82107920       0.04292592
C       -1.67465753      -1.13163072       0.51474389
C        0.63317904      -0.25720839       1.07628784
C        1.54243542       0.16338667      -0.03712667
O        2.84046903       0.30828016       0.46792248
H       -0.37497159       1.60151964      -2.05777620
H       -1.10845789       2.20744691      -0.49717838
H       -1.79213934       1.01550576      -1.40481049
H        0.09171451      -1.72626311      -0.44658318
H       -2.09987085      -0.26838057       1.02851201
H       -1.72952986      -1.97340185       1.20987161
H       -2.32769000      -1.39312094      -0.32339605
H        0.22166814       0.56028764       1.66314265
H        1.10776214      -1.01780548       1.69667640
H        0.62910335       1.42199594      -0.57238687
H        1.61873234      -0.05895504      -1.10536997
H        3.49815702       0.02905435      -0.16943990
18
Frame=13 idx=004590 GeodesicLength=1.3714243199526295 rxn_smarts="[C:1]([C:2]([C:3]([H:11])([H:12])[H:13])([C:4]([C:5]([O:6][H:18])([H:16])[H:17])([H:14])[H:15])[H:10])([H:7])([H:8])[H:9]>>[C:1]([H:7])([H:8])([H:9])[H:16].[C@@:2]1([C:3]([H:11])([H:12])[H:13])([H:10])[C:4]([H:14])([H:15])[C@:5]1([O:6][H:18])[H:17]"
C       -0.81432557       1.35608492      -1.06378660
C       -0.26026167      -0.81275834       0.03102052
C       -1.65646280      -1.14939647       0.49268197
C        0.62594835      -0.24153685       1.08946559
C        1.53114751       0.15857093      -0.03280375
O        2.83862497       0.25746884       0.46506758
H       -0.40704591       1.53899086      -2.05937902
H       -1.07131674       2.27080396      -0.52211269
H       -1.83488978       1.06922996      -1.33325793
H        0.12522152      -1.72658517      -0.43134519
H       -2.10925989      -0.28381318       0.97806477
H       -1.69856775      -1.97057290       1.21255397
H       -2.28994697      -1.45441995      -0.34523327
H        0.20018879       0.58397035       1.65424298
H        1.08645611      -0.99147776       1.73123471
H        0.65096641       1.45535188      -0.57620656
H        1.59978880      -0.03315385      -1.10743104
H        3.48373461      -0.02675724      -0.18277602
18
Frame=14 idx=004590 GeodesicLength=1.4781977373044668 rxn_smarts="[C:1]([C:2]([C:3]([H:11])([H:12])[H:13])([C:4]([C:5]([O:6][H:18])([H:16])[H:17])([H:14])[H:15])[H:10])([H:7])([H:8])[H:9]>>[C:1]([H:7])([H:8])([H:9])[H:16].[C@@:2]1([C:3]([H:11])([H:12])[H:13])([H:10])[C:4]([H:14])([H:15])[C@:5]1([O:6][H:18])[H:17]"
C       -0.83057350       1.37220895      -1.04037381
C       -0.24260936      -0.80457971       0.01926770
C       -1.63800435      -1.16637448       0.47050820
C        0.61873676      -0.22631577       1.10193887
C        1.51998238       0.15493129      -0.02825705
O        2.83522891       0.20626730       0.46249873
H       -0.44354802       1.47581308      -2.05481236
H       -1.03501165       2.33114451      -0.55448031
H       -1.87303357       1.12220065      -1.25962890
H        0.15812199      -1.72594818      -0.41643294
H       -2.11721177      -0.29982644       0.92788723
H       -1.66937783      -1.96644979       1.21399746
H       -2.25080108      -1.51302764      -0.36610227
H        0.17918444       0.60591808       1.64563202
H        1.06513698      -0.96577857       1.76377628
H        0.67372909       1.48836211      -0.58139089
H        1.58219513      -0.00688982      -1.10816780
H        3.46785545      -0.08165556      -0.19586014
18
Frame=15 idx=004590 GeodesicLength=1.5855587936486673 rxn_smarts="[C:1]([C:2]([C:3]([H:11])([H:12])[H:13])([C:4]([C:5]([O:6][H:18])([H:16])[H:17])([H:14])[H:15])[H:10])([H:7])([H:8])[H:9]>>[C:1]([H:7])([H:8])([H:9])[H:16].[C@@:2]1([C:3]([H:11])([H:12])[H:13])([H:10])[C:4]([H:14])([H:15])[C@:5]1([O:6][H:18])[H:17]"
C       -0.84649189       1.38876747      -1.01597626
C       -0.22496241      -0.79647549       0.00767582
C       -1.61930405      -1.18253934       0.44823600
C        0.61156798      -0.21160752       1.11380096
C        1.50897983       0.15239916      -0.02346234
O        2.83023814       0.15470616       0.46006686
H       -0.48386945       1.41291632      -2.04389303
H       -1.00018525       2.38745099      -0.59429451
H       -1.90660711       1.17448652      -1.18408113
H        0.19041997      -1.72436269      -0.40188381
H       -2.12382333      -0.31612715       0.87767584
H       -1.64190903      -1.96092572       1.21444390
H       -2.21033983      -1.56924868      -0.38597241
H        0.15862933       0.62616711       1.63741420
H        1.04386095      -0.94086042       1.79439933
H        0.69740450       1.52111508      -0.58766769
H        1.56586770       0.01973287      -1.10764608
H        3.45052394      -0.13559468      -0.20883565
18
Frame=16 idx=004590 GeodesicLength=1.6935870741370853 rxn_smarts="[C:1]([C:2]([C:3]([H:11])([H:12])[H:13])([C:4]([C:5]([O:6][H:18])([H:16])[H:17])([H:14])[H:15])[H:10])([H:7])([H:8])[H:9]>>[C:1]([H:7])([H:8])([H:9])[H:16].[C@@:2]1([C:3]([H:11])([H:12])[H:13])([H:10])[C:4]([H:14])([H:15])[C@:5]1([O:6][H:18])[H:17]"
C       -0.86185890       1.40573718      -0.99083511
C       -0.20731697      -0.78839131      -0.00375087
C       -1.60038855      -1.19785740       0.42585916
C        0.60446648      -0.19744677       1.12513268
C        1.49818129       0.15090707      -0.01840019
O        2.82362413       0.10282607       0.45761700
H       -0.52737294       1.35114533      -2.02665576
H       -0.96753465       2.43865392      -0.64130575
H       -1.93561495       1.22616888      -1.10666809
H        0.22211884      -1.72185456      -0.38770597
H       -2.12917500      -0.33244695       0.82706193
H       -1.61617011      -1.95385213       1.21408048
H       -2.16863829      -1.62335118      -0.40479178
H        0.13849966       0.64477591       1.62965331
H        1.02268458      -0.91681639       1.82321565
H        0.72203175       1.55370708      -0.59474380
H        1.55071583       0.04665056      -1.10593062
H        3.43174781      -0.18855531      -0.22183225
