17
Frame=0 idx=007838 GeodesicLength=0.0 rxn_smarts="[C:1]([C:2]([C@@:3]([O:4][H:14])([C:5]([C:6](=[O:7])[H:17])([H:15])[H:16])[H:13])([H:11])[H:12])([H:8])([H:9])[H:10]>>[C:1]([C:2]([C:3](=[C:5]([H:15])[H:16])[H:13])([H:11])[H:12])([H:8])([H:9])[H:10].[O:4]([C:6](=[O:7])[H:17])[H:14]"
C       -2.10171696      -0.71424632      -0.39774422
C       -1.09756264       0.41517111      -0.56027081
C       -0.07915375       0.52374180       0.51726932
O        0.82547264      -1.23638303       0.28323090
C        1.13541843       1.21648030       0.35287338
C        2.02642499      -0.28746162      -0.00221333
O        2.99753487      -0.49531202       0.70724958
H       -2.85536799      -0.67528339      -1.18484952
H       -1.59802800      -1.67910569      -0.44794050
H       -2.61938706      -0.64836067       0.56186965
H       -0.58598037       0.35835177      -1.52520922
H       -1.61361478       1.38524807      -0.55650934
H       -0.42044029       0.28660511       1.52021456
H        1.08008722      -1.63713878       1.12358666
H        1.60259622       1.62018105       1.24189669
H        1.22815990       1.84298791      -0.52863779
H        2.07555755      -0.27547560      -1.10481595
17
Frame=1 idx=007838 GeodesicLength=0.10319014256730828 rxn_smarts="[C:1]([C:2]([C@@:3]([O:4][H:14])([C:5]([C:6](=[O:7])[H:17])([H:15])[H:16])[H:13])([H:11])[H:12])([H:8])([H:9])[H:10]>>[C:1]([C:2]([C:3](=[C:5]([H:15])[H:16])[H:13])([H:11])[H:12])([H:8])([H:9])[H:10].[O:4]([C:6](=[O:7])[H:17])[H:14]"
C       -2.11346341      -0.70911028      -0.39415919
C       -1.11090619       0.42167369      -0.55908315
C       -0.07524518       0.51205231       0.50458209
O        0.83870464      -1.26066348       0.26705917
C        1.12965599       1.22138894       0.33394806
C        2.05634285      -0.29569418       0.01540473
O        2.99549056      -0.49993408       0.76548183
H       -2.88144678      -0.65899732      -1.16676713
H       -1.61266561      -1.67404747      -0.46776364
H       -2.61392644      -0.65629988       0.57534616
H       -0.61354284       0.37403334      -1.53197393
H       -1.62811027       1.39068010      -0.53665536
H       -0.40683242       0.28296206       1.51313037
H        1.08508812      -1.67030153       1.10555818
H        1.58515897       1.65360829       1.21594909
H        1.21870241       1.83697329      -0.55607827
H        2.14699561      -0.26832380      -1.08397902
17
Frame=2 idx=007838 GeodesicLength=0.20622574458434445 rxn_smarts="[C:1]([C:2]([C@@:3]([O:4][H:14])([C:5]([C:6](=[O:7])[H:17])([H:15])[H:16])[H:13])([H:11])[H:12])([H:8])([H:9])[H:10]>>[C:1]([C:2]([C:3](=[C:5]([H:15])[H:16])[H:13])([H:11])[H:12])([H:8])([H:9])[H:10].[O:4]([C:6](=[O:7])[H:17])[H:14]"
C       -2.12527056      -0.70395221      -0.39015970
C       -1.12473974       0.42856763      -0.55754609
C       -0.07108125       0.50026852       0.49083402
O        0.85268000      -1.28520154       0.24912851
C        1.12398865       1.22597182       0.31363841
C        2.08678502      -0.30380886       0.03475263
O        2.99057707      -0.50476080       0.82588113
H       -2.90784325      -0.64269741      -1.14728946
H       -1.62755749      -1.66842245      -0.48788508
H       -2.60768216      -0.66495717       0.58910511
H       -0.64274135       0.39097788      -1.53862537
H       -1.64288036       1.39620855      -0.51532133
H       -0.39250776       0.27942757       1.50502937
H        1.09023417      -1.70438267       1.08546595
H        1.56719579       1.68683144       1.18772690
H        1.20972920       1.82954913      -0.58537376
H        2.22111401      -0.25961946      -1.05936125
17
Frame=3 idx=007838 GeodesicLength=0.3089300778095145 rxn_smarts="[C:1]([C:2]([C@@:3]([O:4][H:14])([C:5]([C:6](=[O:7])[H:17])([H:15])[H:16])[H:13])([H:11])[H:12])([H:8])([H:9])[H:10]>>[C:1]([C:2]([C:3](=[C:5]([H:15])[H:16])[H:13])([H:11])[H:12])([H:8])([H:9])[H:10].[O:4]([C:6](=[O:7])[H:17])[H:14]"
C       -2.13708012      -0.69877856      -0.38576723
C       -1.13901703       0.43586250      -0.55562996
C       -0.06668937       0.48842819       0.47600445
O        0.86751539      -1.30992280       0.22950155
C        1.11843818       1.23017352       0.29191614
C        2.11757867      -0.31182197       0.05586464
O        2.98252073      -0.50989786       0.88805586
H       -2.93441888      -0.62646242      -1.12645683
H       -1.64265664      -1.66219862      -0.50824275
H       -2.60063405      -0.67431704       0.60303595
H       -0.67353838       0.40921982      -1.54505469
H       -1.65781609       1.40180773      -0.49248391
H       -0.37750597       0.27606232       1.49586908
H        1.09577516      -1.73921294       1.06332458
H        1.54881662       1.71966520       1.15716290
H        1.20129296       1.82062813      -0.61651952
H        2.29741882      -0.24923519      -1.03058026
17
Frame=4 idx=007838 GeodesicLength=0.41119803705804014 rxn_smarts="[C:1]([C:2]([C@@:3]([O:4][H:14])([C:5]([C:6](=[O:7])[H:17])([H:15])[H:16])[H:13])([H:11])[H:12])([H:8])([H:9])[H:10]>>[C:1]([C:2]([C:3](=[C:5]([H:15])[H:16])[H:13])([H:11])[H:12])([H:8])([H:9])[H:10].[O:4]([C:6](=[O:7])[H:17])[H:14]"
C       -2.14882850      -0.69359937      -0.38101578
C       -1.15368033       0.44356393      -0.55331199
C       -0.06210623       0.47657216       0.46008968
O        0.88330410      -1.33475941       0.20830840
C        1.11303217       1.23393268       0.26876296
C        2.14855321      -0.31974830       0.07874838
O        2.97110093      -0.51545769       0.95153448
H       -2.96104883      -0.61035040      -1.10430834
H       -1.65791745      -1.65534789      -0.52882362
H       -2.59274760      -0.68439250       0.61702351
H       -0.70586544       0.42878264      -1.55114505
H       -1.67279274       1.40744309      -0.46813547
H       -0.36188979       0.27295289       1.48562666
H        1.10195399      -1.77459528       1.03923100
H        1.53015958       1.75191013       1.12421233
H        1.19343076       1.81013753      -0.64948822
H        2.37534218      -0.23704422      -0.99730893
17
Frame=5 idx=007838 GeodesicLength=0.5134556130804409 rxn_smarts="[C:1]([C:2]([C@@:3]([O:4][H:14])([C:5]([C:6](=[O:7])[H:17])([H:15])[H:16])[H:13])([H:11])[H:12])([H:8])([H:9])[H:10]>>[C:1]([C:2]([C:3](=[C:5]([H:15])[H:16])[H:13])([H:11])[H:12])([H:8])([H:9])[H:10].[O:4]([C:6](=[O:7])[H:17])[H:14]"
C       -2.16055097      -0.68837705      -0.37591990
C       -1.16868893       0.45163016      -0.55057823
C       -0.05740962       0.46467850       0.44311488
O        0.90005043      -1.35981426       0.18565535
C        1.10776722       1.23720019       0.24420859
C        2.17959875      -0.32747348       0.10330990
O        2.95630904      -0.52144263       1.01585822
H       -2.98765611      -0.59438080      -1.08092045
H       -1.67343909      -1.64785038      -0.54946213
H       -2.58415570      -0.69501656       0.63093397
H       -0.73964325       0.44958427      -1.55676110
H       -1.68765545       1.41304085      -0.44238430
H       -0.34573951       0.27010026       1.47433031
H        1.10898507      -1.81051435       1.01336520
H        1.51134835       1.78340824       1.08890183
H        1.18613185       1.79802344      -0.68419013
H        2.45474792      -0.22279640      -0.95946202
17
Frame=6 idx=007838 GeodesicLength=0.6152801579181045 rxn_smarts="[C:1]([C:2]([C@@:3]([O:4][H:14])([C:5]([C:6](=[O:7])[H:17])([H:15])[H:16])[H:13])([H:11])[H:12])([H:8])([H:9])[H:10]>>[C:1]([C:2]([C:3](=[C:5]([H:15])[H:16])[H:13])([H:11])[H:12])([H:8])([H:9])[H:10].[O:4]([C:6](=[O:7])[H:17])[H:14]"
C       -2.17211980      -0.68313681      -0.37056301
C       -1.18394637       0.46008507      -0.54740333
C       -0.05262383       0.45281171       0.42510503
O        0.91786742      -1.38494747       0.16183615
C        1.10267721       1.23990870       0.21826045
C        2.21046651      -0.33512363       0.12951171
O        2.93803669      -0.52801154       1.08036471
H       -3.01406186      -0.57860289      -1.05638821
H       -1.68907924      -1.63967895      -0.57025872
H       -2.57475609      -0.70628298       0.64462501
H       -0.77472506       0.47167517      -1.56177870
H       -1.70228304       1.41858884      -0.41520301
H       -0.32913519       0.26764499       1.46197093
H        1.11716804      -1.84663329       0.98597765
H        1.49255111       1.81394325       1.05122786
H        1.17942418       1.78425160      -0.72053924
H        2.53453934      -0.20649176      -0.91674529
17
Frame=7 idx=007838 GeodesicLength=0.7164215965426611 rxn_smarts="[C:1]([C:2]([C@@:3]([O:4][H:14])([C:5]([C:6](=[O:7])[H:17])([H:15])[H:16])[H:13])([H:11])[H:12])([H:8])([H:9])[H:10]>>[C:1]([C:2]([C:3](=[C:5]([H:15])[H:16])[H:13])([H:11])[H:12])([H:8])([H:9])[H:10].[O:4]([C:6](=[O:7])[H:17])[H:14]"
C       -2.18345266      -0.67787864      -0.36503326
C       -1.19934968       0.46892112      -0.54376397
C       -0.04779519       0.44100310       0.40612787
O        0.93681971      -1.41008417       0.13717132
C        1.09778091       1.24201140       0.19097425
C        2.24092535      -0.34276282       0.15722713
O        2.91634498      -0.53528614       1.14435698
H       -3.04007062      -0.56307512      -1.03088435
H       -1.70475804      -1.63081377      -0.59119838
H       -2.56457448      -0.71815489       0.65791067
H       -0.81092587       0.49504479      -1.56604612
H       -1.71652127       1.42404432      -0.38663893
H       -0.31216551       0.26567191       1.44858512
H        1.12681146      -1.88268332       0.95740226
H        1.47394362       1.84332742       1.01126848
H        1.17328940       1.76882656      -0.75838541
H        2.61369788      -0.18811175      -0.86907367
17
Frame=8 idx=007838 GeodesicLength=0.8168504610318257 rxn_smarts="[C:1]([C:2]([C@@:3]([O:4][H:14])([C:5]([C:6](=[O:7])[H:17])([H:15])[H:16])[H:13])([H:11])[H:12])([H:8])([H:9])[H:10]>>[C:1]([C:2]([C:3](=[C:5]([H:15])[H:16])[H:13])([H:11])[H:12])([H:8])([H:9])[H:10].[O:4]([C:6](=[O:7])[H:17])[H:14]"
C       -2.19450748      -0.67258504      -0.35940970
C       -1.21479559       0.47811557      -0.53964955
C       -0.04297387       0.42925377       0.38625512
O        0.95693364      -1.43522810       0.11199074
C        1.09308480       1.24346342       0.16241353
C        2.27082485      -0.35039998       0.18631339
O        2.89142214      -0.54334971       1.20718078
H       -3.06555189      -0.54780102      -1.00456285
H       -1.72046405      -1.62123687      -0.61227250
H       -2.55366723      -0.73057042       0.67062466
H       -0.84803793       0.51963138      -1.56942368
H       -1.73019834       1.42935889      -0.35677610
H       -0.29491615       0.26423876       1.43421886
H        1.13817111      -1.91848008       0.92800183
H        1.45567009       1.87140737       0.96912236
H        1.16767541       1.75177108      -0.79756367
H        2.69133049      -0.16758900      -0.81646322
17
Frame=9 idx=007838 GeodesicLength=0.9171089552616498 rxn_smarts="[C:1]([C:2]([C@@:3]([O:4][H:14])([C:5]([C:6](=[O:7])[H:17])([H:15])[H:16])[H:13])([H:11])[H:12])([H:8])([H:9])[H:10]>>[C:1]([C:2]([C:3](=[C:5]([H:15])[H:16])[H:13])([H:11])[H:12])([H:8])([H:9])[H:10].[O:4]([C:6](=[O:7])[H:17])[H:14]"
C       -2.20543480      -0.66714893      -0.35365799
C       -1.23024217       0.48758329      -0.53508654
C       -0.03825298       0.41746665       0.36554540
O        0.97826675      -1.46060116       0.08629295
C        1.08851129       1.24422841       0.13267400
C        2.30013136      -0.35786975       0.21648278
O        2.86353069      -0.55217707       1.26837694
H       -3.09047093      -0.53274377      -0.97759775
H       -1.73643843      -1.61097416      -0.63306373
H       -2.54241555      -0.74307770       0.68270136
H       -0.88594223       0.54522657      -1.57184760
H       -1.74312900       1.43447640      -0.32588245
H       -0.27745810       0.26319675       1.41893771
H        1.15153893      -1.95413816       0.89787616
H        1.43775719       1.89809047       0.92490893
H        1.16247627       1.73307323      -0.83787322
H        2.76757170      -0.14461108      -0.75878693
17
Frame=10 idx=007838 GeodesicLength=1.0166991252714013 rxn_smarts="[C:1]([C:2]([C@@:3]([O:4][H:14])([C:5]([C:6](=[O:7])[H:17])([H:15])[H:16])[H:13])([H:11])[H:12])([H:8])([H:9])[H:10]>>[C:1]([C:2]([C:3](=[C:5]([H:15])[H:16])[H:13])([H:11])[H:12])([H:8])([H:9])[H:10].[O:4]([C:6](=[O:7])[H:17])[H:14]"
C       -2.21602764      -0.66162379      -0.34795582
C       -1.24553907       0.49736271      -0.53003088
C       -0.03362050       0.40571140       0.34408003
O        1.00073925      -1.48606034       0.06066798
C        1.08412798       1.24426466       0.10177301
C        2.32865849      -0.36538653       0.24772498
O        2.83299694      -0.56188227       1.32737312
H       -3.11468818      -0.51785287      -0.95006053
H       -1.75245485      -1.59996256      -0.65404833
H       -2.53052953      -0.75603624       0.69395122
H       -0.92437119       0.57193705      -1.57314205
H       -1.75519784       1.43936966      -0.29385437
H       -0.25983930       0.26274802       1.40277765
H        1.16697280      -1.98932101       0.86767621
H        1.42038059       1.92327176       0.87869166
H        1.15763084       1.71283088      -0.87921509
H        2.84076121      -0.11937055      -0.69640880
17
Frame=11 idx=007838 GeodesicLength=1.115632052124121 rxn_smarts="[C:1]([C:2]([C@@:3]([O:4][H:14])([C:5]([C:6](=[O:7])[H:17])([H:15])[H:16])[H:13])([H:11])[H:12])([H:8])([H:9])[H:10]>>[C:1]([C:2]([C:3](=[C:5]([H:15])[H:16])[H:13])([H:11])[H:12])([H:8])([H:9])[H:10].[O:4]([C:6](=[O:7])[H:17])[H:14]"
C       -2.22628249      -0.65596477      -0.34237778
C       -1.26058701       0.50742188      -0.52446711
C       -0.02910573       0.39394919       0.32194665
O        1.02432725      -1.51166613       0.03538948
C        1.07991135       1.24354577       0.06978654
C        2.35633415      -0.37295990       0.27990457
O        2.80021931      -0.57243756       1.38376409
H       -3.13811111      -0.50306696      -0.92211571
H       -1.76856011      -1.58817392      -0.67523154
H       -2.51810913      -0.76935178       0.70423577
H       -0.96310137       0.59968259      -1.57317667
H       -1.76624807       1.44399077      -0.26076426
H       -0.24209063       0.26286148       1.38579332
H        1.18462677      -2.02397293       0.83777453
H        1.40359604       1.94689049       0.83058417
H        1.15301744       1.69113072      -0.92141753
H        2.91016335      -0.09187893      -0.62962851
17
Frame=12 idx=007838 GeodesicLength=1.214140717341733 rxn_smarts="[C:1]([C:2]([C@@:3]([O:4][H:14])([C:5]([C:6](=[O:7])[H:17])([H:15])[H:16])[H:13])([H:11])[H:12])([H:8])([H:9])[H:10]>>[C:1]([C:2]([C:3](=[C:5]([H:15])[H:16])[H:13])([H:11])[H:12])([H:8])([H:9])[H:10].[O:4]([C:6](=[O:7])[H:17])[H:14]"
C       -2.23621574      -0.65011937      -0.33695926
C       -1.27530364       0.51772066      -0.51838611
C       -0.02472384       0.38213410       0.29919382
O        1.04898172      -1.53754415       0.01062464
C        1.07584195       1.24205026       0.03673799
C        2.38319294      -0.38052850       0.31291425
O        2.76553602      -0.58384272       1.43736946
H       -3.16073397      -0.48828269      -0.89380732
H       -1.78484934      -1.57556898      -0.69664355
H       -2.50520951      -0.78295927       0.71348732
H       -1.00198129       0.62839707      -1.57186474
H       -1.77613312       1.44829196      -0.22668854
H       -0.22419473       0.26347817       1.36801122
H        1.20455353      -2.05816481       0.80840839
H        1.38741718       1.96892988       0.78064140
H        1.14852232       1.66803464      -0.96440830
H        2.97529953      -0.06202627      -0.55863067
17
Frame=13 idx=007838 GeodesicLength=1.312585445370127 rxn_smarts="[C:1]([C:2]([C@@:3]([O:4][H:14])([C:5]([C:6](=[O:7])[H:17])([H:15])[H:16])[H:13])([H:11])[H:12])([H:8])([H:9])[H:10]>>[C:1]([C:2]([C:3](=[C:5]([H:15])[H:16])[H:13])([H:11])[H:12])([H:8])([H:9])[H:10].[O:4]([C:6](=[O:7])[H:17])[H:14]"
C       -2.24604376      -0.64396168      -0.33155556
C       -1.28962597       0.52816903      -0.51187004
C       -0.02052648       0.37014653       0.27584569
O        1.07493506      -1.56386672      -0.01391984
C        1.07181912       1.23976079       0.00273347
C        2.40933759      -0.38795048       0.34650235
O        2.72918794      -0.59615408       1.48804054
H       -3.18260933      -0.47343169      -0.86529372
H       -1.80160075      -1.56223910      -0.71765333
H       -2.49235427      -0.79625832       0.72182024
H       -1.04083219       0.65778665      -1.56926753
H       -1.78466427       1.45227421      -0.19201981
H       -0.20616977       0.26433838       1.34945658
H        1.22703625      -2.09204609       0.77931188
H        1.37176973       1.98936035       0.72902498
H        1.14398680       1.64355638      -1.00799526
H        3.03635429      -0.02948415      -0.48316062
17
Frame=14 idx=007838 GeodesicLength=1.410820634313612 rxn_smarts="[C:1]([C:2]([C@@:3]([O:4][H:14])([C:5]([C:6](=[O:7])[H:17])([H:15])[H:16])[H:13])([H:11])[H:12])([H:8])([H:9])[H:10]>>[C:1]([C:2]([C:3](=[C:5]([H:15])[H:16])[H:13])([H:11])[H:12])([H:8])([H:9])[H:10].[O:4]([C:6](=[O:7])[H:17])[H:14]"
C       -2.25558518      -0.63751632      -0.32633736
C       -1.30344524       0.53879816      -0.50482601
C       -0.01647186       0.35801678       0.25196201
O        1.10195052      -1.59062328      -0.03781332
C        1.06791275       1.23664669      -0.03229703
C        2.43473492      -0.39529359       0.38085407
O        2.69153493      -0.60931690       1.53578104
H       -3.20367132      -0.45836327      -0.83647680
H       -1.81870019      -1.54802351      -0.73891197
H       -2.47913798      -0.80972926       0.72905733
H       -1.07948109       0.68800485      -1.56517490
H       -1.79176010       1.45587277      -0.15651080
H       -0.18793292       0.26554809       1.33013758
H        1.25189811      -2.12560203       0.75106456
H        1.35671470       2.00820716       0.67565305
H        1.13935257       1.61780726      -1.05225030
H        3.09208737       0.00556640      -0.40391115
17
Frame=15 idx=007838 GeodesicLength=1.5089254100072613 rxn_smarts="[C:1]([C:2]([C@@:3]([O:4][H:14])([C:5]([C:6](=[O:7])[H:17])([H:15])[H:16])[H:13])([H:11])[H:12])([H:8])([H:9])[H:10]>>[C:1]([C:2]([C:3](=[C:5]([H:15])[H:16])[H:13])([H:11])[H:12])([H:8])([H:9])[H:10].[O:4]([C:6](=[O:7])[H:17])[H:14]"
C       -2.26488174      -0.63072309      -0.32129025
C       -1.31668916       0.54957847      -0.49724444
C       -0.01256898       0.34569940       0.22758547
O        1.13009604      -1.61787480      -0.06108820
C        1.06408954       1.23269179      -0.06832566
C        2.45941648      -0.40248648       0.41594135
O        2.65277611      -0.62327809       1.58058536
H       -3.22392338      -0.44298167      -0.80738137
H       -1.83625013      -1.53288344      -0.76034576
H       -2.46566916      -0.82326157       0.73518053
H       -1.11777242       0.71897934      -1.55952748
H       -1.79730207       1.45905191      -0.12024164
H       -0.16944682       0.26699968       1.31006928
H        1.27925345      -2.15887268       0.72367280
H        1.34222815       2.02547070       0.62056586
H        1.13449855       1.59083286      -1.09711134
H        3.14214555       0.04305767      -0.32104450
17
Frame=16 idx=007838 GeodesicLength=1.607028365563692 rxn_smarts="[C:1]([C:2]([C@@:3]([O:4][H:14])([C:5]([C:6](=[O:7])[H:17])([H:15])[H:16])[H:13])([H:11])[H:12])([H:8])([H:9])[H:10]>>[C:1]([C:2]([C:3](=[C:5]([H:15])[H:16])[H:13])([H:11])[H:12])([H:8])([H:9])[H:10].[O:4]([C:6](=[O:7])[H:17])[H:14]"
C       -2.27396469      -0.62352882      -0.31637228
C       -1.32929025       0.56048951      -0.48913073
C       -0.00882675       0.33316565       0.20273030
O        1.15945897      -1.64568845      -0.08384136
C        1.06032878       1.22787150      -0.10538347
C        2.48341349      -0.40944099       0.45177357
O        2.61305794      -0.63808172       1.62249914
H       -3.24339618      -0.42717305      -0.77792233
H       -1.85435713      -1.51675267      -0.78193807
H       -2.45197336      -0.83681926       0.74021174
H       -1.15559552       0.75068498      -1.55229124
H       -1.80118162       1.46178092      -0.08329096
H       -0.15065703       0.26862417       1.28925234
H        1.30921175      -2.19193290       0.69709267
H        1.32830740       2.04116061       0.56371973
H        1.12932266       1.56262120      -1.14258585
H        3.18614156       0.08301930      -0.23452320
