15
Frame=0 idx=003392 GeodesicLength=0.0 rxn_smarts="[C:1]([C@@:2]1([C:3]([O:4][H:12])([H:10])[H:11])[C:5]([H:13])([H:14])[N:6]1[H:15])([H:7])([H:8])[H:9]>>[C:1]([C@@:2]1([C:3][H:11])[C:5]([H:13])([H:14])[N:6]1[H:15])([H:7])([H:8])[H:9].[O:4]([H:10])[H:12]"
C       -1.44334974      -0.92918257       0.11431511
C       -0.19841264      -0.09497436      -0.05350240
C        0.85952628      -0.80843299      -0.85220470
O        2.29142001       0.03003819      -0.45170928
C       -0.31699984       1.38216791       0.00129477
N        0.32479754       0.64171986       1.09766910
H       -2.21711643      -0.38331641       0.65951484
H       -1.85148094      -1.20238186      -0.86110875
H       -1.20979651      -1.85216344       0.64656983
H        2.20615323      -1.00555533      -0.32516429
H        0.77620368      -0.57429732      -1.91562290
H        1.97847409       0.40379616       0.41212741
H       -1.29135199       1.81930903       0.19040734
H        0.35541938       2.00350247      -0.57949846
H       -0.26348612       0.56977069       1.91691245
15
Frame=1 idx=003392 GeodesicLength=0.05720289178933097 rxn_smarts="[C:1]([C@@:2]1([C:3]([O:4][H:12])([H:10])[H:11])[C:5]([H:13])([H:14])[N:6]1[H:15])([H:7])([H:8])[H:9]>>[C:1]([C@@:2]1([C:3][H:11])[C:5]([H:13])([H:14])[N:6]1[H:15])([H:7])([H:8])[H:9].[O:4]([H:10])[H:12]"
C       -1.44003548      -0.92983321       0.11416221
C       -0.19757283      -0.09241796      -0.05339396
C        0.86318171      -0.80081231      -0.85371303
O        2.28506295       0.02528749      -0.45360060
C       -0.31809107       1.38445778       0.00181758
N        0.32449777       0.64476371       1.09816229
H       -2.21531537      -0.38609521       0.65934870
H       -1.84735694      -1.20374741      -0.86140754
H       -1.20399891      -1.85246859       0.64603448
H        2.19938112      -1.02292808      -0.31861996
H        0.77593880      -0.57076890      -1.91764322
H        1.97713230       0.40687247       0.40918642
H       -1.29335765       1.81963047       0.19078109
H        0.35431685       2.00634694      -0.57840656
H       -0.26378325       0.57171282       1.91729209
15
Frame=2 idx=003392 GeodesicLength=0.1144097958026548 rxn_smarts="[C:1]([C@@:2]1([C:3]([O:4][H:12])([H:10])[H:11])[C:5]([H:13])([H:14])[N:6]1[H:15])([H:7])([H:8])[H:9]>>[C:1]([C@@:2]1([C:3][H:11])[C:5]([H:13])([H:14])[N:6]1[H:15])([H:7])([H:8])[H:9].[O:4]([H:10])[H:12]"
C       -1.43669769      -0.93048638       0.11401090
C       -0.19670965      -0.08987616      -0.05328291
C        0.86685714      -0.79324149      -0.85516123
O        2.27880098       0.02077805      -0.45542543
C       -0.31916921       1.38673342       0.00232794
N        0.32420964       0.64780868       1.09865635
H       -2.21349131      -0.38887105       0.65916520
H       -1.84318845      -1.20513385      -0.86170894
H       -1.19819124      -1.85276357       0.64552114
H        2.19219619      -1.04035698      -0.31231193
H        0.77576779      -0.56728723      -1.91958343
H        1.97581720       0.40991360       0.40631322
H       -1.29534739       1.81993515       0.19113778
H        0.35321828       2.00918596      -0.57732864
H       -0.26407227       0.57366185       1.91766999
15
Frame=3 idx=003392 GeodesicLength=0.17162483752754767 rxn_smarts="[C:1]([C@@:2]1([C:3]([O:4][H:12])([H:10])[H:11])[C:5]([H:13])([H:14])[N:6]1[H:15])([H:7])([H:8])[H:9]>>[C:1]([C@@:2]1([C:3][H:11])[C:5]([H:13])([H:14])[N:6]1[H:15])([H:7])([H:8])[H:9].[O:4]([H:10])[H:12]"
C       -1.43333316      -0.93113900       0.11386224
C       -0.19582229      -0.08734621      -0.05316966
C        0.87055514      -0.78571375      -0.85655016
O        2.27263609       0.01650772      -0.45719215
C       -0.32023705       1.38899125       0.00282755
N        0.32393227       0.65085314       1.09914676
H       -2.21164457      -0.39164224       0.65896038
H       -1.83896749      -1.20654396      -0.86200891
H       -1.19236546      -1.85303898       0.64503145
H        2.18458480      -1.05786259      -0.30622768
H        0.77569424      -0.56384142      -1.92144159
H        1.97452811       0.41292593       0.40350030
H       -1.29732480       1.82021632       0.19148324
H        0.35211916       2.01201530      -0.57626172
H       -0.26435500       0.57561849       1.91803997
15
Frame=4 idx=003392 GeodesicLength=0.22883681967746974 rxn_smarts="[C:1]([C@@:2]1([C:3]([O:4][H:12])([H:10])[H:11])[C:5]([H:13])([H:14])[N:6]1[H:15])([H:7])([H:8])[H:9]>>[C:1]([C@@:2]1([C:3][H:11])[C:5]([H:13])([H:14])[N:6]1[H:15])([H:7])([H:8])[H:9].[O:4]([H:10])[H:12]"
C       -1.42994116      -0.93178960       0.11371682
C       -0.19490853      -0.08482958      -0.05305016
C        0.87428312      -0.77822808      -0.85787208
O        2.26656613       0.01249036      -0.45890425
C       -0.32129351       1.39123008       0.00331677
N        0.32366293       0.65389878       1.09963767
H       -2.20977632      -0.39440871       0.65873369
H       -1.83469138      -1.20797486      -0.86230579
H       -1.18652698      -1.85329253       0.64457015
H        2.17655190      -1.07545119      -0.30039707
H        0.77571624      -0.56043672      -1.92321052
H        1.97326486       0.41590650       0.40076072
H       -1.29929109       1.82047150       0.19180683
H        0.35102090       2.01483200      -0.57520603
H       -0.26463711       0.57758205       1.91840326
15
Frame=5 idx=003392 GeodesicLength=0.28605826114284494 rxn_smarts="[C:1]([C@@:2]1([C:3]([O:4][H:12])([H:10])[H:11])[C:5]([H:13])([H:14])[N:6]1[H:15])([H:7])([H:8])[H:9]>>[C:1]([C@@:2]1([C:3][H:11])[C:5]([H:13])([H:14])[N:6]1[H:15])([H:7])([H:8])[H:9].[O:4]([H:10])[H:12]"
C       -1.42651832      -0.93244546       0.11357525
C       -0.19396823      -0.08232354      -0.05292702
C        0.87803987      -0.77078087      -0.85913473
O        2.26059295       0.00872459      -0.46056287
C       -0.32233931       1.39345808       0.00379383
N        0.32340327       0.65695080       1.10013153
H       -2.20788509      -0.39717574       0.65848240
H       -1.83035490      -1.20944374      -0.86260278
H       -1.18066762      -1.85353145       0.64414514
H        2.16807483      -1.09314944      -0.29481216
H        0.77583233      -0.55706268      -1.92490199
H        1.97202923       0.41885959       0.39810075
H       -1.30124692       1.82070953       0.19210782
H        0.34992370       2.01765059      -0.57416044
H       -0.26491578       0.57955974       1.91876527
15
Frame=6 idx=003392 GeodesicLength=0.3433109809678701 rxn_smarts="[C:1]([C@@:2]1([C:3]([O:4][H:12])([H:10])[H:11])[C:5]([H:13])([H:14])[N:6]1[H:15])([H:7])([H:8])[H:9]>>[C:1]([C@@:2]1([C:3][H:11])[C:5]([H:13])([H:14])[N:6]1[H:15])([H:7])([H:8])[H:9].[O:4]([H:10])[H:12]"
C       -1.42306089      -0.93310508       0.11343762
C       -0.19300017      -0.07982538      -0.05280061
C        0.88182982      -0.76336757      -0.86033647
O        2.25471683       0.00521062      -0.46217552
C       -0.32337703       1.39567432       0.00425907
N        0.32315168       0.66001130       1.10062555
H       -2.20596612      -0.39994734       0.65821299
H       -1.82595261      -1.21094483      -0.86289884
H       -1.17477992      -1.85375383       0.64375059
H        2.15913364      -1.11098048      -0.28946354
H        0.77604747      -0.55371546      -1.92651259
H        1.97082111       0.42179662       0.39551588
H       -1.30319630       1.82092547       0.19238684
H        0.34882438       2.02046933      -0.57312403
H       -0.26519189       0.58155233       1.91912306
15
Frame=7 idx=003392 GeodesicLength=0.4005691966958015 rxn_smarts="[C:1]([C@@:2]1([C:3]([O:4][H:12])([H:10])[H:11])[C:5]([H:13])([H:14])[N:6]1[H:15])([H:7])([H:8])[H:9]>>[C:1]([C@@:2]1([C:3][H:11])[C:5]([H:13])([H:14])[N:6]1[H:15])([H:7])([H:8])[H:9].[O:4]([H:10])[H:12]"
C       -1.41956396      -0.93377047       0.11330529
C       -0.19200332      -0.07733198      -0.05267142
C        0.88565579      -0.75598299      -0.86147735
O        2.24894334       0.00194321      -0.46373829
C       -0.32440791       1.39788183       0.00471115
N        0.32290682       0.66308456       1.10112011
H       -2.20401722      -0.40272572       0.65792223
H       -1.82147653      -1.21248697      -0.86319205
H       -1.16885302      -1.85395837       0.64339169
H        2.14970180      -1.12895955      -0.28436469
H        0.77636240      -0.55039050      -1.92804352
H        1.96963869       0.42472019       0.39301352
H       -1.30514137       1.82111984       0.19264296
H        0.34772233       2.02329287      -0.57209570
H       -0.26546784       0.58356403       1.91947607
15
Frame=8 idx=003392 GeodesicLength=0.45783953758211143 rxn_smarts="[C:1]([C@@:2]1([C:3]([O:4][H:12])([H:10])[H:11])[C:5]([H:13])([H:14])[N:6]1[H:15])([H:7])([H:8])[H:9]>>[C:1]([C@@:2]1([C:3][H:11])[C:5]([H:13])([H:14])[N:6]1[H:15])([H:7])([H:8])[H:9].[O:4]([H:10])[H:12]"
C       -1.41602285      -0.93444362       0.11318010
C       -0.19097704      -0.07483920      -0.05254057
C        0.88951854      -0.74861980      -0.86256260
O        2.24327210      -0.00108467      -0.46525158
C       -0.32543407       1.40008388       0.00514974
N        0.32266845       0.66617483       1.10161427
H       -2.20203625      -0.40551574       0.65761141
H       -1.81691786      -1.21407795      -0.86348041
H       -1.16287534      -1.85414431       0.64307255
H        2.13975486      -1.14711271      -0.27950909
H        0.77678114      -0.54707313      -1.92950054
H        1.96848361       0.42763378       0.39059379
H       -1.30708661       1.82129233       0.19287231
H        0.34661476       2.02612727      -0.57107313
H       -0.26574343       0.58559901       1.91982374
15
Frame=9 idx=003392 GeodesicLength=0.5151386660473223 rxn_smarts="[C:1]([C@@:2]1([C:3]([O:4][H:12])([H:10])[H:11])[C:5]([H:13])([H:14])[N:6]1[H:15])([H:7])([H:8])[H:9]>>[C:1]([C@@:2]1([C:3][H:11])[C:5]([H:13])([H:14])[N:6]1[H:15])([H:7])([H:8])[H:9].[O:4]([H:10])[H:12]"
C       -1.41243069      -0.93512741       0.11306328
C       -0.18991908      -0.07234301      -0.05240817
C        0.89342448      -0.74127695      -0.86358594
O        2.23770922      -0.00386197      -0.46670098
C       -0.32645633       1.40228591       0.00557201
N        0.32243466       0.66928974       1.10210975
H       -2.20001669      -0.40832479       0.65728491
H       -1.81226850      -1.21572221      -0.86376369
H       -1.15683235      -1.85431427       0.64279367
H        2.12924998      -1.16546272      -0.27493456
H        0.77730773      -0.54376803      -1.93087831
H        1.96735442       0.43053255       0.38827094
H       -1.30903491       1.82144504       0.19306785
H        0.34550089       2.02898142      -0.57005760
H       -0.26602282       0.58766673       1.92016685
15
Frame=10 idx=003392 GeodesicLength=0.5724077069405283 rxn_smarts="[C:1]([C@@:2]1([C:3]([O:4][H:12])([H:10])[H:11])[C:5]([H:13])([H:14])[N:6]1[H:15])([H:7])([H:8])[H:9]>>[C:1]([C@@:2]1([C:3][H:11])[C:5]([H:13])([H:14])[N:6]1[H:15])([H:7])([H:8])[H:9].[O:4]([H:10])[H:12]"
C       -1.40878914      -0.93581955       0.11295540
C       -0.18883458      -0.06984236      -0.05228156
C        0.89735609      -0.73394385      -0.86457337
O        2.23223846      -0.00642728      -0.46811415
C       -0.32747839       1.40448282       0.00597912
N        0.32220838       0.67242128       1.10259371
H       -2.19795723      -0.41115623       0.65695170
H       -1.80753657      -1.21741621      -0.86403426
H       -1.15071521      -1.85446291       0.64254618
H        2.11822505      -1.18402706      -0.27052279
H        0.77794344      -0.54041956      -1.93219510
H        1.96624905       0.43343328       0.38600804
H       -1.31098869       1.82157178       0.19323958
H        0.34437509       2.03184574      -0.56904868
H       -0.26629573       0.58976009       1.92049617
15
Frame=11 idx=003392 GeodesicLength=0.6297017499861232 rxn_smarts="[C:1]([C@@:2]1([C:3]([O:4][H:12])([H:10])[H:11])[C:5]([H:13])([H:14])[N:6]1[H:15])([H:7])([H:8])[H:9]>>[C:1]([C@@:2]1([C:3][H:11])[C:5]([H:13])([H:14])[N:6]1[H:15])([H:7])([H:8])[H:9].[O:4]([H:10])[H:12]"
C       -1.40509248      -0.93652241       0.11285631
C       -0.18771487      -0.06733716      -0.05215100
C        0.90134142      -0.72662917      -0.86548983
O        2.22687632      -0.00873041      -0.46947423
C       -0.32849763       1.40667971       0.00637090
N        0.32198545       0.67558069       1.10308155
H       -2.19585871      -0.41400811       0.65659897
H       -1.80270466      -1.21916791      -0.86429979
H       -1.14452713      -1.85459365       0.64234149
H        2.10660944      -1.20281323      -0.26640971
H        0.77869179      -0.53708704      -1.93342720
H        1.96517293       0.43633280       0.38385054
H       -1.31294759       1.82167664       0.19337641
H        0.34323951       2.03472965      -0.56804796
H       -0.26657379       0.59188961       1.92082356
15
Frame=12 idx=003392 GeodesicLength=0.6870238718050954 rxn_smarts="[C:1]([C@@:2]1([C:3]([O:4][H:12])([H:10])[H:11])[C:5]([H:13])([H:14])[N:6]1[H:15])([H:7])([H:8])[H:9]>>[C:1]([C@@:2]1([C:3][H:11])[C:5]([H:13])([H:14])[N:6]1[H:15])([H:7])([H:8])[H:9].[O:4]([H:10])[H:12]"
C       -1.40134150      -0.93723306       0.11276445
C       -0.18655731      -0.06482996      -0.05201333
C        0.90538899      -0.71933596      -0.86632334
O        2.22162206      -0.01075234      -0.47079583
C       -0.32951412       1.40887251       0.00674964
N        0.32176575       0.67876590       1.10357497
H       -2.19372251      -0.41687643       0.65622263
H       -1.79777132      -1.22097099      -0.86456211
H       -1.13827535      -1.85470359       0.64217808
H        2.09440094      -1.22182477      -0.26260585
H        0.77955418      -0.53378790      -1.93456415
H        1.96412842       0.43924010       0.38180019
H       -1.31491089       1.82175651       0.19348141
H        0.34209047       2.03762851      -0.56705621
H       -0.26685779       0.59405146       1.92114945
15
Frame=13 idx=003392 GeodesicLength=0.7443688224652781 rxn_smarts="[C:1]([C@@:2]1([C:3]([O:4][H:12])([H:10])[H:11])[C:5]([H:13])([H:14])[N:6]1[H:15])([H:7])([H:8])[H:9]>>[C:1]([C@@:2]1([C:3][H:11])[C:5]([H:13])([H:14])[N:6]1[H:15])([H:7])([H:8])[H:9].[O:4]([H:10])[H:12]"
C       -1.39753714      -0.93794965       0.11267859
C       -0.18535908      -0.06232335      -0.05186539
C        0.90950739      -0.71206850      -0.86706227
O        2.21647576      -0.01247295      -0.47208867
C       -0.33052733       1.41105845       0.00711701
N        0.32154931       0.68197589       1.10407684
H       -2.19155000      -0.41975781       0.65581914
H       -1.79273549      -1.22282068      -0.86482367
H       -1.13196731      -1.85479190       0.64205559
H        2.08159490      -1.24106387      -0.25912861
H        0.78053191      -0.53054139      -1.93559653
H        1.96311797       0.44216342       0.37986087
H       -1.31687748       1.82180962       0.19355621
H        0.34092528       2.04053969      -0.56607501
H       -0.26714867       0.59624304       1.92147591
15
Frame=14 idx=003392 GeodesicLength=0.8017312631361151 rxn_smarts="[C:1]([C@@:2]1([C:3]([O:4][H:12])([H:10])[H:11])[C:5]([H:13])([H:14])[N:6]1[H:15])([H:7])([H:8])[H:9]>>[C:1]([C@@:2]1([C:3][H:11])[C:5]([H:13])([H:14])[N:6]1[H:15])([H:7])([H:8])[H:9].[O:4]([H:10])[H:12]"
C       -1.39367998      -0.93867058       0.11259778
C       -0.18411716      -0.05981980      -0.05170403
C        0.91370556      -0.70483112      -0.86769498
O        2.21143810      -0.01387155      -0.47336081
C       -0.33153675       1.41323490       0.00747428
N        0.32133600       0.68521007       1.10459012
H       -2.18934231      -0.42264916       0.65538513
H       -1.78759574      -1.22471292      -0.86508661
H       -1.12560974      -1.85485792       0.64197425
H        2.06818385      -1.26053337      -0.25599847
H        0.78162656      -0.52736664      -1.93651467
H        1.96214406       0.44511054       0.37803739
H       -1.31884634       1.82183420       0.19360160
H        0.33974149       2.04346089      -0.56510598
H       -0.26744760       0.59846246       1.92180501
15
Frame=15 idx=003392 GeodesicLength=0.859107285996661 rxn_smarts="[C:1]([C@@:2]1([C:3]([O:4][H:12])([H:10])[H:11])[C:5]([H:13])([H:14])[N:6]1[H:15])([H:7])([H:8])[H:9]>>[C:1]([C@@:2]1([C:3][H:11])[C:5]([H:13])([H:14])[N:6]1[H:15])([H:7])([H:8])[H:9].[O:4]([H:10])[H:12]"
C       -1.38977033      -0.93939434       0.11252123
C       -0.18282826      -0.05732174      -0.05152604
C        0.91799291      -0.69762812      -0.86820950
O        2.20651031      -0.01492668      -0.47461987
C       -0.33254186       1.41539931       0.00782255
N        0.32112563       0.68846812       1.10511779
H       -2.18710031      -0.42554759       0.65491748
H       -1.78235040      -1.22664384      -0.86535284
H       -1.11920882      -1.85490114       0.64193438
H        2.05415769      -1.28023696      -0.25323775
H        0.78284013      -0.52428284      -1.93730836
H        1.96120921       0.44808933       0.37633512
H       -1.32081656       1.82182841       0.19361793
H        0.33853665       2.04638987      -0.56415088
H       -0.26775599       0.60070822       1.92213877
15
Frame=16 idx=003392 GeodesicLength=0.9164938063807068 rxn_smarts="[C:1]([C@@:2]1([C:3]([O:4][H:12])([H:10])[H:11])[C:5]([H:13])([H:14])[N:6]1[H:15])([H:7])([H:8])[H:9]>>[C:1]([C@@:2]1([C:3][H:11])[C:5]([H:13])([H:14])[N:6]1[H:15])([H:7])([H:8])[H:9].[O:4]([H:10])[H:12]"
C       -1.38580812      -0.94011955       0.11244842
C       -0.18148888      -0.05483147      -0.05132819
C        0.92237931      -0.69046364      -0.86859371
O        2.20169415      -0.01561646      -0.47587309
C       -0.33354217       1.41754916       0.00816268
N        0.32091787       0.69175009       1.10566283
H       -2.18482462      -0.42845052       0.65441326
H       -1.77699735      -1.22861006      -0.86562394
H       -1.11276999      -1.85492111       0.64193659
H        2.03950330      -1.30017935      -0.25087066
H        0.78417502      -0.52130900      -1.93796692
H        1.96031598       0.45110770       0.37476008
H       -1.32278746       1.82179028       0.19360498
H        0.33730843       2.04932455      -0.56321146
H       -0.26807548       0.60297940       1.92247913
