14
Frame=0 idx=009388 GeodesicLength=0.0 rxn_smarts="[C:1]([N:2]([C:3](=[O:4])[H:11])[C:5](=[O:6])[C:7]([H:12])([H:13])[H:14])([H:8])([H:9])[H:10]>>[C:1](/[N:2]=[C:5](/[O:6][C:3](=[O:4])[H:11])[C:7]([H:12])([H:13])[H:14])([H:8])([H:9])[H:10]"
C       -1.43657506      -0.12343116      -0.99641901
N       -0.60027883       0.01014868       0.16126637
C       -0.61034952       0.36452883       1.92677758
O       -1.11727441      -0.40619521       2.67117226
C        0.67621021      -0.02283354       0.29038672
O        0.96564429       0.16173030       1.54036087
C        1.74890446      -0.20773212      -0.72026559
H       -2.19862191      -0.88158463      -0.81065614
H       -1.94069080       0.81980884      -1.21731290
H       -0.86233397      -0.42121977      -1.87753860
H       -0.72162615       1.45526673       1.91243671
H        1.34569200      -0.41732337      -1.70871825
H        2.39502611      -1.02811746      -0.40875610
H        2.35627352       0.69695393      -0.76273386
14
Frame=1 idx=009388 GeodesicLength=0.08207095532179737 rxn_smarts="[C:1]([N:2]([C:3](=[O:4])[H:11])[C:5](=[O:6])[C:7]([H:12])([H:13])[H:14])([H:8])([H:9])[H:10]>>[C:1](/[N:2]=[C:5](/[O:6][C:3](=[O:4])[H:11])[C:7]([H:12])([H:13])[H:14])([H:8])([H:9])[H:10]"
C       -1.44487021      -0.14945813      -0.98935058
N       -0.59980779       0.01852696       0.15663179
C       -0.61053426       0.37009037       1.92435763
O       -1.19289115      -0.34896494       2.66656155
C        0.67460169      -0.07847318       0.28903342
O        0.96632657       0.02757561       1.54729231
C        1.75744481      -0.16531670      -0.72409123
H       -2.26013173      -0.83044660      -0.74155164
H       -1.87171892       0.81029030      -1.28846339
H       -0.90319838      -0.56169581      -1.84423656
H       -0.64681894       1.46580058       1.89821025
H        1.36408168      -0.31171044      -1.72770704
H        2.41551443      -0.99473318      -0.46602938
H        2.35200220       0.74851516      -0.70065711
14
Frame=2 idx=009388 GeodesicLength=0.16359101041010646 rxn_smarts="[C:1]([N:2]([C:3](=[O:4])[H:11])[C:5](=[O:6])[C:7]([H:12])([H:13])[H:14])([H:8])([H:9])[H:10]>>[C:1](/[N:2]=[C:5](/[O:6][C:3](=[O:4])[H:11])[C:7]([H:12])([H:13])[H:14])([H:8])([H:9])[H:10]"
C       -1.45338316      -0.17320078      -0.98385763
N       -0.60018095       0.02629316       0.15073663
C       -0.60638651       0.37381503       1.92133994
O       -1.25119348      -0.29222406       2.66268961
C        0.67066249      -0.12811674       0.28232599
O        0.96107335      -0.09809534       1.54463877
C        1.76348781      -0.12545025      -0.72421923
H       -2.31253057      -0.77509921      -0.68536414
H       -1.80690561       0.78984311      -1.35843639
H       -0.94632864      -0.68694511      -1.80401788
H       -0.57562251       1.46953395       1.88456415
H        1.37904953      -0.21300871      -1.73807349
H        2.43227877      -0.95974545      -0.51392979
H        2.34597947       0.79240041      -0.63839654
14
Frame=3 idx=009388 GeodesicLength=0.24475255129457207 rxn_smarts="[C:1]([N:2]([C:3](=[O:4])[H:11])[C:5](=[O:6])[C:7]([H:12])([H:13])[H:14])([H:8])([H:9])[H:10]>>[C:1](/[N:2]=[C:5](/[O:6][C:3](=[O:4])[H:11])[C:7]([H:12])([H:13])[H:14])([H:8])([H:9])[H:10]"
C       -1.46234766      -0.19428346      -0.97964267
N       -0.60128922       0.03017519       0.14444590
C       -0.59929923       0.37545506       1.91787737
O       -1.29335745      -0.23794179       2.66150096
C        0.66551468      -0.17275318       0.27163855
O        0.95243040      -0.21271513       1.53412777
C        1.76812776      -0.08851490      -0.72126619
H       -2.35841360      -0.71578981      -0.64152120
H       -1.74490858       0.76243798      -1.42409952
H       -0.99288126      -0.79742721      -1.76013446
H       -0.51175352       1.46779992       1.86901305
H        1.39248841      -0.12341673      -1.74158711
H        2.44792188      -0.92327330      -0.55223424
H        2.33776739       0.83024736      -0.57811820
14
Frame=4 idx=009388 GeodesicLength=0.32585756900326507 rxn_smarts="[C:1]([N:2]([C:3](=[O:4])[H:11])[C:5](=[O:6])[C:7]([H:12])([H:13])[H:14])([H:8])([H:9])[H:10]>>[C:1](/[N:2]=[C:5](/[O:6][C:3](=[O:4])[H:11])[C:7]([H:12])([H:13])[H:14])([H:8])([H:9])[H:10]"
C       -1.47185444      -0.21367733      -0.97638125
N       -0.60287194       0.03208966       0.13745590
C       -0.59011012       0.37556252       1.91379797
O       -1.32310582      -0.18641395       2.66202106
C        0.65972700      -0.21276111       0.25764921
O        0.94144300      -0.31851645       1.51717131
C        1.77206630      -0.05363438      -0.71577288
H       -2.39868313      -0.65333764      -0.60670181
H       -1.68591003       0.72795087      -1.48644501
H       -1.04352761      -0.89695406      -1.71303588
H       -0.45393371       1.46244933       1.85191993
H        1.40547796      -0.03886390      -1.73988041
H        2.46206552      -0.88661723      -0.58349163
H        2.32921703       0.86272368      -0.51830650
14
Frame=5 idx=009388 GeodesicLength=0.4071833742057853 rxn_smarts="[C:1]([N:2]([C:3](=[O:4])[H:11])[C:5](=[O:6])[C:7]([H:12])([H:13])[H:14])([H:8])([H:9])[H:10]>>[C:1](/[N:2]=[C:5](/[O:6][C:3](=[O:4])[H:11])[C:7]([H:12])([H:13])[H:14])([H:8])([H:9])[H:10]"
C       -1.48201927      -0.23212512      -0.97373114
N       -0.60476415       0.03340888       0.12953581
C       -0.57924051       0.37447552       1.90902464
O       -1.34321600      -0.13754316       2.66344788
C        0.65356396      -0.24868343       0.24071908
O        0.92857031      -0.41759425       1.49451621
C        1.77567908      -0.01999184      -0.70813592
H       -2.43415142      -0.58768628      -0.57903921
H       -1.62943935       0.68564630      -1.54691673
H       -1.09865553      -0.98854028      -1.66183195
H       -0.40069487       1.45458264       1.83375651
H        1.41851107       0.04389198      -1.73370115
H        2.47457313      -0.85022334      -0.60990258
H        2.32128356       0.89038238      -0.45774144
14
Frame=6 idx=009388 GeodesicLength=0.48874593512424946 rxn_smarts="[C:1]([N:2]([C:3](=[O:4])[H:11])[C:5](=[O:6])[C:7]([H:12])([H:13])[H:14])([H:8])([H:9])[H:10]>>[C:1](/[N:2]=[C:5](/[O:6][C:3](=[O:4])[H:11])[C:7]([H:12])([H:13])[H:14])([H:8])([H:9])[H:10]"
C       -1.49283054      -0.24985296      -0.97144609
N       -0.60693501       0.03423373       0.12082235
C       -0.56691921       0.37217073       1.90363088
O       -1.35511985      -0.09165946       2.66560689
C        0.64719624      -0.28113887       0.22116887
O        0.91444540      -0.51084429       1.46665707
C        1.77896627       0.01287081      -0.69865297
H       -2.46552353      -0.51785130      -0.55847609
H       -1.57407093       0.63496181      -1.60625075
H       -1.15862947      -1.07369151      -1.60535174
H       -0.35154119       1.44473690       1.81465055
H        1.43158524       0.12578870      -1.72335108
H        2.48581146      -0.81374857      -0.63257625
H        2.31356512       0.91402429      -0.39643165
14
Frame=7 idx=009388 GeodesicLength=0.5703292893423598 rxn_smarts="[C:1]([N:2]([C:3](=[O:4])[H:11])[C:5](=[O:6])[C:7]([H:12])([H:13])[H:14])([H:8])([H:9])[H:10]>>[C:1](/[N:2]=[C:5](/[O:6][C:3](=[O:4])[H:11])[C:7]([H:12])([H:13])[H:14])([H:8])([H:9])[H:10]"
C       -1.50418854      -0.26672429      -0.96944163
N       -0.60893767       0.03558772       0.11098813
C       -0.55389075       0.36862227       1.89745412
O       -1.36041586      -0.04972842       2.66795816
C        0.64105429      -0.31000504       0.19924739
O        0.89973931      -0.59812805       1.43412995
C        1.78247642       0.04484998      -0.68763878
H       -2.49209429      -0.44440490      -0.54415673
H       -1.52113806       0.57574634      -1.66400205
H       -1.22370730      -1.15202350      -1.54338254
H       -0.30702842       1.43346245       1.79494979
H        1.44508407       0.20664938      -1.70916056
H        2.49627199      -0.77761157      -0.65195670
H        2.30677481       0.93370763      -0.33498855
14
Frame=8 idx=009388 GeodesicLength=0.6511675294591259 rxn_smarts="[C:1]([N:2]([C:3](=[O:4])[H:11])[C:5](=[O:6])[C:7]([H:12])([H:13])[H:14])([H:8])([H:9])[H:10]>>[C:1](/[N:2]=[C:5](/[O:6][C:3](=[O:4])[H:11])[C:7]([H:12])([H:13])[H:14])([H:8])([H:9])[H:10]"
C       -1.51571135      -0.28261724      -0.96741835
N       -0.61020413       0.03857718       0.09960341
C       -0.54097681       0.36408969       1.89007315
O       -1.36089385      -0.01210393       2.66945934
C        0.63546140      -0.33501481       0.17513231
O        0.88474405      -0.67933688       1.39719197
C        1.78661298       0.07559899      -0.67538543
H       -2.51242434      -0.36962873      -0.53476547
H       -1.47313490       0.50852181      -1.71872430
H       -1.29263035      -1.22206947      -1.47639632
H       -0.26760909       1.42141715       1.77492953
H        1.45919223       0.28627831      -1.69121172
H        2.50592302      -0.74272159      -0.66864860
H        2.30165114       0.94900952      -0.27383952
14
Frame=9 idx=009388 GeodesicLength=0.732145547549769 rxn_smarts="[C:1]([N:2]([C:3](=[O:4])[H:11])[C:5](=[O:6])[C:7]([H:12])([H:13])[H:14])([H:8])([H:9])[H:10]>>[C:1](/[N:2]=[C:5](/[O:6][C:3](=[O:4])[H:11])[C:7]([H:12])([H:13])[H:14])([H:8])([H:9])[H:10]"
C       -1.52764311      -0.29805206      -0.96537585
N       -0.61140261       0.04193345       0.08748512
C       -0.52764810       0.35823525       1.88222509
O       -1.35674620       0.02130867       2.67120921
C        0.63021705      -0.35690866       0.14906863
O        0.86991668      -0.75602236       1.35605570
C        1.79071447       0.10613298      -0.66216126
H       -2.52839342      -0.29003601      -0.53349951
H       -1.42549756       0.43066093      -1.77200540
H       -1.36657219      -1.28540297      -1.40151298
H       -0.23186280       1.40845070       1.75490653
H        1.47309524       0.36606883      -1.66969882
H        2.51485063      -0.70758163      -0.68397549
H        2.29697191       0.96121286      -0.21272097
14
Frame=10 idx=009388 GeodesicLength=0.8136201476218029 rxn_smarts="[C:1]([N:2]([C:3](=[O:4])[H:11])[C:5](=[O:6])[C:7]([H:12])([H:13])[H:14])([H:8])([H:9])[H:10]>>[C:1](/[N:2]=[C:5](/[O:6][C:3](=[O:4])[H:11])[C:7]([H:12])([H:13])[H:14])([H:8])([H:9])[H:10]"
C       -1.53969386      -0.31336116      -0.96341887
N       -0.61294981       0.04396791       0.07525789
C       -0.51348059       0.35136049       1.87403316
O       -1.34738946       0.05143541       2.67413687
C        0.62517937      -0.37682484       0.12128404
O        0.85572319      -0.82882687       1.31101685
C        1.79404070       0.13652218      -0.64790773
H       -2.53926272      -0.20573215      -0.54259130
H       -1.37718613       0.34144247      -1.82170319
H       -1.44549368      -1.34030734      -1.31992022
H       -0.19953157       1.39497093       1.73382258
H        1.48574621       0.44622247      -1.64419855
H        2.52298832      -0.67151574      -0.69836180
H        2.29131003       0.97064624      -0.15144972
14
Frame=11 idx=009388 GeodesicLength=0.8952628707369997 rxn_smarts="[C:1]([N:2]([C:3](=[O:4])[H:11])[C:5](=[O:6])[C:7]([H:12])([H:13])[H:14])([H:8])([H:9])[H:10]>>[C:1](/[N:2]=[C:5](/[O:6][C:3](=[O:4])[H:11])[C:7]([H:12])([H:13])[H:14])([H:8])([H:9])[H:10]"
C       -1.55187942      -0.32824943      -0.96168402
N       -0.61427964       0.04574453       0.06250566
C       -0.49913931       0.34371019       1.86532463
O       -1.33447901       0.07801440       2.67741398
C        0.62080242      -0.39447064       0.09211878
O        0.84254762      -0.89743227       1.26280155
C        1.79736839       0.16630833      -0.63279400
H       -2.54378026      -0.12063835      -0.56075248
H       -1.33202135       0.24264843      -1.86597908
H       -1.52852220      -1.38459833      -1.23350597
H       -0.17094842       1.38152029       1.71200070
H        1.49754456       0.52553593      -1.61507846
H        2.53094641      -0.63519718      -0.71152121
H        2.28584020       0.97710410      -0.09085009
14
Frame=12 idx=009388 GeodesicLength=0.9759192476214822 rxn_smarts="[C:1]([N:2]([C:3](=[O:4])[H:11])[C:5](=[O:6])[C:7]([H:12])([H:13])[H:14])([H:8])([H:9])[H:10]>>[C:1](/[N:2]=[C:5](/[O:6][C:3](=[O:4])[H:11])[C:7]([H:12])([H:13])[H:14])([H:8])([H:9])[H:10]"
C       -1.56348719      -0.34196152      -0.95974678
N       -0.61472925       0.04922032       0.04850666
C       -0.48577816       0.33581706       1.85548591
O       -1.32046305       0.10146199       2.67913388
C        0.61714937      -0.40909227       0.06162026
O        0.82983933      -0.96138594       1.21121950
C        1.80108122       0.19447040      -0.61719398
H       -2.54126469      -0.04120937      -0.58418794
H       -1.29467700       0.13877148      -1.90217446
H       -1.61002950      -1.41590199      -1.14492027
H       -0.14611651       1.36844154       1.69035036
H        1.50895159       0.60137833      -1.58306274
H        2.53866320      -0.60008956      -0.72290275
H        2.28086066       0.98007952      -0.03212765
14
Frame=13 idx=009388 GeodesicLength=1.0571918405084773 rxn_smarts="[C:1]([N:2]([C:3](=[O:4])[H:11])[C:5](=[O:6])[C:7]([H:12])([H:13])[H:14])([H:8])([H:9])[H:10]>>[C:1](/[N:2]=[C:5](/[O:6][C:3](=[O:4])[H:11])[C:7]([H:12])([H:13])[H:14])([H:8])([H:9])[H:10]"
C       -1.57486893      -0.35548450      -0.95820045
N       -0.61560392       0.05117392       0.03507525
C       -0.47192478       0.32751807       1.84587173
O       -1.30262688       0.12217140       2.68255150
C        0.61388895      -0.42207589       0.03051048
O        0.81871316      -1.02184855       1.15725830
C        1.80391590       0.22189647      -0.60106008
H       -2.53295978       0.03675361      -0.61820428
H       -1.25963320       0.02790286      -1.93032901
H       -1.69332325      -1.43531556      -1.05506353
H       -0.12445655       1.35582624       1.66799723
H        1.51834685       0.67481441      -1.54831679
H        2.54600542      -0.56437575      -0.73308896
H        2.27452700       0.98104327       0.02499859
14
Frame=14 idx=009388 GeodesicLength=1.1395617346802664 rxn_smarts="[C:1]([N:2]([C:3](=[O:4])[H:11])[C:5](=[O:6])[C:7]([H:12])([H:13])[H:14])([H:8])([H:9])[H:10]>>[C:1](/[N:2]=[C:5](/[O:6][C:3](=[O:4])[H:11])[C:7]([H:12])([H:13])[H:14])([H:8])([H:9])[H:10]"
C       -1.58589089      -0.36891597      -0.95682504
N       -0.61664319       0.05219316       0.02191580
C       -0.45778865       0.31871908       1.83627979
O       -1.28174298       0.14006528       2.68700216
C        0.61110586      -0.43331442      -0.00133264
O        0.80908753      -1.07916300       1.10061793
C        1.80596649       0.24876720      -0.58446614
H       -2.51793009       0.11264539      -0.66251648
H       -1.22787025      -0.09062916      -1.94964391
H       -1.77829539      -1.44222496      -0.96393488
H       -0.10571187       1.34352605       1.64531277
H        1.52571064       0.74639601      -1.51074323
H        2.55290199      -0.52794448      -0.74248534
H        2.26710080       0.97987983       0.08081921
14
Frame=15 idx=009388 GeodesicLength=1.222303683966426 rxn_smarts="[C:1]([N:2]([C:3](=[O:4])[H:11])[C:5](=[O:6])[C:7]([H:12])([H:13])[H:14])([H:8])([H:9])[H:10]>>[C:1](/[N:2]=[C:5](/[O:6][C:3](=[O:4])[H:11])[C:7]([H:12])([H:13])[H:14])([H:8])([H:9])[H:10]"
C       -1.59657969      -0.38198219      -0.95545878
N       -0.61757638       0.05331948       0.00863993
C       -0.44393641       0.31011268       1.82641533
O       -1.25922362       0.15610752       2.69153908
C        0.60879960      -0.44251802      -0.03373459
O        0.80054259      -1.13313406       1.04155540
C        1.80778951       0.27435526      -0.56750846
H       -2.49753731       0.18074834      -0.71319688
H       -1.20278034      -0.21117811      -1.95895161
H       -1.86066790      -1.43674267      -0.87516098
H       -0.08957769       1.33206979       1.62250003
H        1.53192565       0.81449896      -1.47113908
H        2.55962651      -0.49198658      -0.75034067
H        2.25919548       0.97632960       0.13484129
14
Frame=16 idx=009388 GeodesicLength=1.3059718578782955 rxn_smarts="[C:1]([N:2]([C:3](=[O:4])[H:11])[C:5](=[O:6])[C:7]([H:12])([H:13])[H:14])([H:8])([H:9])[H:10]>>[C:1](/[N:2]=[C:5](/[O:6][C:3](=[O:4])[H:11])[C:7]([H:12])([H:13])[H:14])([H:8])([H:9])[H:10]"
C       -1.60687974      -0.39512960      -0.95412325
N       -0.61864489       0.05359051      -0.00426832
C       -0.42996243       0.30162390       1.81658813
O       -1.23439062       0.17046877       2.69685255
C        0.60694697      -0.45011744      -0.06651558
O        0.79348760      -1.18413350       0.98024637
C        1.80898897       0.29900234      -0.55015902
H       -2.47138155       0.24211490      -0.77103602
H       -1.18297394      -0.33424865      -1.95802625
H       -1.94205288      -1.41930023      -0.78966847
H       -0.07602254       1.32140867       1.59928646
H        1.53648207       0.87990619      -1.42932734
H        2.56599453      -0.45587704      -0.75715317
H        2.25040846       0.97069118       0.18730393
