12
Frame=0 idx=004269 GeodesicLength=0.0 rxn_smarts="[C:1]([C:2]([C:3]#[C:4][H:11])([C:5]#[C:6][H:12])[H:10])([H:7])([H:8])[H:9]>>[C:1]([C@@:2]1([H:10])[C:3](=[C:4]([H:11])[H:12])[C:5]1=[C:6])([H:7])([H:8])[H:9]"
C       -1.31558923      -0.89838874      -0.67997281
C       -0.60430138      -0.14850858       0.43913582
C        0.86702051      -0.15287466       0.36219413
C        2.06193428       0.19779528       0.25884946
C       -0.60999731       1.34081915       0.36124218
C        0.33672716       2.12715982       0.27289793
H       -0.98380078      -0.53869936      -1.65311925
H       -1.12654958      -1.97110515      -0.61199468
H       -2.38871739      -0.72816643      -0.59511246
H       -0.93666387      -0.50834318       1.41535010
H        3.04716420      -0.22483541       0.21498948
H        1.65277344       1.50514730       0.21554009
12
Frame=1 idx=004269 GeodesicLength=0.1067500561017531 rxn_smarts="[C:1]([C:2]([C:3]#[C:4][H:11])([C:5]#[C:6][H:12])[H:10])([H:7])([H:8])[H:9]>>[C:1]([C@@:2]1([H:10])[C:3](=[C:4]([H:11])[H:12])[C:5]1=[C:6])([H:7])([H:8])[H:9]"
C       -1.30892032      -0.89240008      -0.68087559
C       -0.60527291      -0.15830076       0.45188283
C        0.86537320      -0.14973260       0.38420084
C        2.06204720       0.19207834       0.26074372
C       -0.60056814       1.33280493       0.41444566
C        0.30559260       2.13511062       0.18463518
H       -0.97205515      -0.51810770      -1.64673487
H       -1.11607431      -1.96521423      -0.62513237
H       -2.38271114      -0.72475048      -0.59911573
H       -0.94132490      -0.52681457       1.42342183
H        3.03475848      -0.25803347       0.20349247
H        1.65915540       1.53336000       0.22903604
12
Frame=2 idx=004269 GeodesicLength=0.21406601535885628 rxn_smarts="[C:1]([C:2]([C:3]#[C:4][H:11])([C:5]#[C:6][H:12])[H:10])([H:7])([H:8])[H:9]>>[C:1]([C@@:2]1([H:10])[C:3](=[C:4]([H:11])[H:12])[C:5]1=[C:6])([H:7])([H:8])[H:9]"
C       -1.30005484      -0.88461881      -0.68218775
C       -0.60621679      -0.16775099       0.46603829
C        0.86408528      -0.14856650       0.41160115
C        2.06212594       0.18618938       0.27190683
C       -0.58669649       1.32469197       0.46811539
C        0.26900401       2.13682711       0.11825462
H       -0.95471617      -0.49633959      -1.63940114
H       -1.10532682      -1.95765331      -0.63832123
H       -2.37430081      -0.71730024      -0.60669866
H       -0.94931731      -0.54490923       1.43150121
H        3.02143231      -0.29014164       0.19458225
H        1.65998169       1.55957185       0.20460904
12
Frame=3 idx=004269 GeodesicLength=0.3216292433261297 rxn_smarts="[C:1]([C:2]([C:3]#[C:4][H:11])([C:5]#[C:6][H:12])[H:10])([H:7])([H:8])[H:9]>>[C:1]([C@@:2]1([H:10])[C:3](=[C:4]([H:11])[H:12])[C:5]1=[C:6])([H:7])([H:8])[H:9]"
C       -1.29104000      -0.87686940      -0.68352106
C       -0.60659916      -0.17624698       0.47886169
C        0.86348884      -0.14816322       0.43751422
C        2.06251043       0.17995630       0.28077544
C       -0.56986163       1.31690333       0.51664706
C        0.22896703       2.13647755       0.06764733
H       -0.93655102      -0.47706236      -1.63255435
H       -1.09568301      -1.95017664      -0.64953384
H       -2.36552500      -0.70821575      -0.61493499
H       -0.95726676      -0.56027498       1.43862373
H        3.00849395      -0.32126350       0.19046781
H        1.65906633       1.58493566       0.17000697
12
Frame=4 idx=004269 GeodesicLength=0.4310548935264685 rxn_smarts="[C:1]([C:2]([C:3]#[C:4][H:11])([C:5]#[C:6][H:12])[H:10])([H:7])([H:8])[H:9]>>[C:1]([C@@:2]1([H:10])[C:3](=[C:4]([H:11])[H:12])[C:5]1=[C:6])([H:7])([H:8])[H:9]"
C       -1.28117984      -0.86985313      -0.68493564
C       -0.60714084      -0.18361099       0.49094096
C        0.86309937      -0.14805568       0.46360354
C        2.06342993       0.17322950       0.29046175
C       -0.55152607       1.31040854       0.56060282
C        0.18672300       2.13682895       0.02916161
H       -0.91569313      -0.46103886      -1.62638832
H       -1.08638155      -1.94400100      -0.65834710
H       -2.35593717      -0.69831850      -0.62477132
H       -0.96708405      -0.57257359       1.44556638
H        2.99434343      -0.35305131       0.18297274
H        1.65734693       1.61003606       0.13113257
12
Frame=5 idx=004269 GeodesicLength=0.5374858082638223 rxn_smarts="[C:1]([C:2]([C:3]#[C:4][H:11])([C:5]#[C:6][H:12])[H:10])([H:7])([H:8])[H:9]>>[C:1]([C@@:2]1([H:10])[C:3](=[C:4]([H:11])[H:12])[C:5]1=[C:6])([H:7])([H:8])[H:9]"
C       -1.27310165      -0.86248016      -0.68610136
C       -0.60579021      -0.19046169       0.50024937
C        0.86391030      -0.14863109       0.48324269
C        2.06426137       0.16604591       0.29242841
C       -0.53031865       1.30241460       0.59929757
C        0.14227102       2.13431147      -0.00278858
H       -0.90001795      -0.44609902      -1.62067909
H       -1.07895319      -1.93644005      -0.66664421
H       -2.34742829      -0.68798516      -0.63180334
H       -0.97190338      -0.58285304       1.45029561
H        2.98287702      -0.38251592       0.18911684
H        1.65419360       1.63469415       0.09338606
12
Frame=6 idx=004269 GeodesicLength=0.6452340497749813 rxn_smarts="[C:1]([C:2]([C:3]#[C:4][H:11])([C:5]#[C:6][H:12])[H:10])([H:7])([H:8])[H:9]>>[C:1]([C@@:2]1([H:10])[C:3](=[C:4]([H:11])[H:12])[C:5]1=[C:6])([H:7])([H:8])[H:9]"
C       -1.26461916      -0.85633170      -0.68729148
C       -0.60474871      -0.19624950       0.50866459
C        0.86478593      -0.14949887       0.50240727
C        2.06564653       0.15802559       0.29508632
C       -0.50849531       1.29589161       0.63324612
C        0.09706099       2.13336721      -0.02787218
H       -0.88236486      -0.43505625      -1.61597582
H       -1.07229528      -1.93080013      -0.67225061
H       -2.33858684      -0.67759167      -0.64001534
H       -0.97844345      -0.58993590       1.45500801
H        2.97079063      -0.41278972       0.18918168
H        1.65126952       1.66096933       0.05981144
12
Frame=7 idx=004269 GeodesicLength=0.7527101279990696 rxn_smarts="[C:1]([C:2]([C:3]#[C:4][H:11])([C:5]#[C:6][H:12])[H:10])([H:7])([H:8])[H:9]>>[C:1]([C@@:2]1([H:10])[C:3](=[C:4]([H:11])[H:12])[C:5]1=[C:6])([H:7])([H:8])[H:9]"
C       -1.25615676      -0.85062091      -0.68847303
C       -0.60329560      -0.20134127       0.51601556
C        0.86602342      -0.15065867       0.52013096
C        2.06734455       0.14923905       0.29706932
C       -0.48556920       1.28959625       0.66357316
C        0.05053569       2.13254368      -0.04721764
H       -0.86471652      -0.42618177      -1.61176390
H       -1.06634677      -1.92555745      -0.67644833
H       -2.32954344      -0.66703913      -0.64843273
H       -0.98462734      -0.59479475       1.45910603
H        2.95851310      -0.44322576       0.18929441
H        1.64783888       1.68804071       0.02714619
12
Frame=8 idx=004269 GeodesicLength=0.8616298848676811 rxn_smarts="[C:1]([C:2]([C:3]#[C:4][H:11])([C:5]#[C:6][H:12])[H:10])([H:7])([H:8])[H:9]>>[C:1]([C@@:2]1([H:10])[C:3](=[C:4]([H:11])[H:12])[C:5]1=[C:6])([H:7])([H:8])[H:9]"
C       -1.24805959      -0.84555220      -0.68989125
C       -0.60156567      -0.20612485       0.52258716
C        0.86774409      -0.15249153       0.53577898
C        2.06964197       0.13948011       0.29681176
C       -0.46164028       1.28405398       0.69138130
C        0.00265450       2.13338970      -0.06099543
H       -0.84712902      -0.41925643      -1.60883026
H       -1.06175546      -1.92168851      -0.67987114
H       -2.32076484      -0.65614217      -0.65668491
H       -0.99064018      -0.59845457       1.46340036
H        2.94744383      -0.47429750       0.19220741
H        1.64407065       1.71708396      -0.00589399
12
Frame=9 idx=004269 GeodesicLength=0.967955478763844 rxn_smarts="[C:1]([C:2]([C:3]#[C:4][H:11])([C:5]#[C:6][H:12])[H:10])([H:7])([H:8])[H:9]>>[C:1]([C@@:2]1([H:10])[C:3](=[C:4]([H:11])[H:12])[C:5]1=[C:6])([H:7])([H:8])[H:9]"
C       -1.24039829      -0.84020341      -0.69092327
C       -0.59898468      -0.21009821       0.52755684
C        0.87005024      -0.15453351       0.54921977
C        2.07203937       0.12863091       0.29488404
C       -0.43642365       1.27751271       0.71492356
C       -0.04685050       2.13152074      -0.07173003
H       -0.83160351      -0.41320999      -1.60535948
H       -1.05725624      -1.91642281      -0.68233849
H       -2.31218077      -0.64539272      -0.66401080
H       -0.99476054      -0.59957832       1.46577660
H        2.93682945      -0.50469782       0.19782034
H        1.63953910       1.74647244      -0.03581909
12
Frame=10 idx=004269 GeodesicLength=1.0754935806106511 rxn_smarts="[C:1]([C:2]([C:3]#[C:4][H:11])([C:5]#[C:6][H:12])[H:10])([H:7])([H:8])[H:9]>>[C:1]([C@@:2]1([H:10])[C:3](=[C:4]([H:11])[H:12])[C:5]1=[C:6])([H:7])([H:8])[H:9]"
C       -1.23245672      -0.83583142      -0.69221391
C       -0.59648180      -0.21352270       0.53221088
C        0.87244247      -0.15698184       0.56232095
C        2.07494922       0.11673217       0.29363760
C       -0.41067295       1.27227857       0.73587354
C       -0.09723527       2.13155546      -0.07788921
H       -0.81477851      -0.40973948      -1.60315368
H       -1.05349676      -1.91295463      -0.68350117
H       -2.30322039      -0.63475282      -0.67213344
H       -0.99985972      -0.59886628       1.46874262
H        2.92569785      -0.53665484       0.20047409
H        1.63511258       1.77873781      -0.06436827
12
Frame=11 idx=004269 GeodesicLength=1.1825043617143063 rxn_smarts="[C:1]([C:2]([C:3]#[C:4][H:11])([C:5]#[C:6][H:12])[H:10])([H:7])([H:8])[H:9]>>[C:1]([C@@:2]1([H:10])[C:3](=[C:4]([H:11])[H:12])[C:5]1=[C:6])([H:7])([H:8])[H:9]"
C       -1.22416265      -0.83174527      -0.69342333
C       -0.59373129      -0.21629327       0.53613696
C        0.87507903      -0.15957797       0.57493585
C        2.07828297       0.10373028       0.29307619
C       -0.38437609       1.26724800       0.75370762
C       -0.14907906       2.13143034      -0.07989788
H       -0.79728937      -0.40808797      -1.60102892
H       -1.04992003      -1.90956488      -0.68331899
H       -2.29375912      -0.62410792      -0.68075591
H       -1.00509075      -0.59600832       1.47109784
H        2.91385647      -0.56958515       0.20132704
H        1.63018988       1.81256213      -0.09185647
12
Frame=12 idx=004269 GeodesicLength=1.2899252343014254 rxn_smarts="[C:1]([C:2]([C:3]#[C:4][H:11])([C:5]#[C:6][H:12])[H:10])([H:7])([H:8])[H:9]>>[C:1]([C@@:2]1([H:10])[C:3](=[C:4]([H:11])[H:12])[C:5]1=[C:6])([H:7])([H:8])[H:9]"
C       -1.21561118      -0.82813528      -0.69480669
C       -0.59070482      -0.21854769       0.53962095
C        0.87800784      -0.16253015       0.58701582
C        2.08211833       0.08942779       0.29276448
C       -0.35743075       1.26297060       0.76895489
C       -0.20249407       2.13204398      -0.07772207
H       -0.77921974      -0.40820979      -1.59969963
H       -1.04673328      -1.90699045      -0.68222771
H       -2.28388078      -0.61341888      -0.68986598
H       -1.01037196      -0.59138267       1.47356282
H        2.90163349      -0.60413296       0.20138121
H        1.62468692       1.84890551      -0.11897810
12
Frame=13 idx=004269 GeodesicLength=1.396722630119961 rxn_smarts="[C:1]([C:2]([C:3]#[C:4][H:11])([C:5]#[C:6][H:12])[H:10])([H:7])([H:8])[H:9]>>[C:1]([C@@:2]1([H:10])[C:3](=[C:4]([H:11])[H:12])[C:5]1=[C:6])([H:7])([H:8])[H:9]"
C       -1.20719128      -0.82471339      -0.69614760
C       -0.58725272      -0.22033290       0.54218099
C        0.88135221      -0.16575059       0.59776650
C        2.08647361       0.07381311       0.29185283
C       -0.32948441       1.25865876       0.78096094
C       -0.25734852       2.13193298      -0.07149113
H       -0.76148932      -0.40975799      -1.59856736
H       -1.04420948      -1.90435082      -0.68032547
H       -2.27396153      -0.60281300      -0.69883382
H       -1.01515235      -0.58492512       1.47516757
H        2.88953018      -0.63936453       0.20276955
H        1.61873360       1.88760349      -0.14533300
12
Frame=14 idx=004269 GeodesicLength=1.5037754408701298 rxn_smarts="[C:1]([C:2]([C:3]#[C:4][H:11])([C:5]#[C:6][H:12])[H:10])([H:7])([H:8])[H:9]>>[C:1]([C@@:2]1([H:10])[C:3](=[C:4]([H:11])[H:12])[C:5]1=[C:6])([H:7])([H:8])[H:9]"
C       -1.19838624      -0.82171567      -0.69765094
C       -0.58348091      -0.22157100       0.54430900
C        0.88499902      -0.16922140       0.60821156
C        2.09140116       0.05664940       0.29160491
C       -0.30089081       1.25514607       0.79003312
C       -0.31393256       2.13222262      -0.06084076
H       -0.74305884      -0.41308256      -1.59810376
H       -1.04191148      -1.90235194      -0.67750539
H       -2.26348897      -0.59225113      -0.70839642
H       -1.01994926      -0.57651927       1.47677641
H        2.87669967      -0.67662334       0.20309348
H        1.61199923       1.92931823      -0.17153122
12
Frame=15 idx=004269 GeodesicLength=1.610837763901375 rxn_smarts="[C:1]([C:2]([C:3]#[C:4][H:11])([C:5]#[C:6][H:12])[H:10])([H:7])([H:8])[H:9]>>[C:1]([C@@:2]1([H:10])[C:3](=[C:4]([H:11])[H:12])[C:5]1=[C:6])([H:7])([H:8])[H:9]"
C       -1.18915505      -0.81902449      -0.69927940
C       -0.57933691      -0.22225541       0.54591509
C        0.88898488      -0.17286099       0.61835398
C        2.09698393       0.03786851       0.29225693
C       -0.27156774       1.25226006       0.79587085
C       -0.37234051       2.13245649      -0.04532946
H       -0.72385845      -0.41819156      -1.59810086
H       -1.03988198      -1.90069714      -0.67372402
H       -2.25239841      -0.58167627      -0.71859359
H       -1.02468304      -0.56606497       1.47810140
H        2.86299790      -0.71591403       0.20253068
H        1.60425541       1.97409980      -0.19800159
12
Frame=16 idx=004269 GeodesicLength=1.7178125176787078 rxn_smarts="[C:1]([C:2]([C:3]#[C:4][H:11])([C:5]#[C:6][H:12])[H:10])([H:7])([H:8])[H:9]>>[C:1]([C@@:2]1([H:10])[C:3](=[C:4]([H:11])[H:12])[C:5]1=[C:6])([H:7])([H:8])[H:9]"
C       -1.17920064      -0.81655781      -0.70099590
C       -0.57482807      -0.22232658       0.54702782
C        0.89325994      -0.17653794       0.62857785
C        2.10328922       0.01741282       0.29464210
C       -0.24155349       1.24997497       0.79817983
C       -0.43268457       2.13231671      -0.02425399
H       -0.70321947      -0.42533477      -1.59832139
H       -1.03807298      -1.89918384      -0.66873397
H       -2.24032481      -0.57092073      -0.72976841
H       -1.02956887      -0.55333710       1.47896152
H        2.84778317      -0.75745088       0.20002289
H        1.59512056       2.02194514      -0.22533836
