15
Frame=0 idx=006429 GeodesicLength=0.0 rxn_smarts="[C:1]([O:2][C:3](=[O:4])[C@@:5]([C:6]([H:12])([H:13])[H:14])([O:7][H:15])[H:11])([H:8])([H:9])[H:10]>>[C:1]([O:2][C@:3]([O:4][H:15])([C:5]([C:6]([H:12])([H:13])[H:14])=[O:7])[H:11])([H:8])([H:9])[H:10]"
C        2.35741416      -0.05797830       0.49951987
O        1.16159231       0.24885799      -0.19986805
C        0.11913924      -0.58682868       0.12432993
O        0.24408185      -1.85249407       0.22311062
C       -1.19514553      -0.14726240      -0.32727778
C       -1.64254021       1.22065939      -0.65135237
O       -2.01143345      -1.13931238      -0.36105224
H        2.22727455       0.10400214       1.57524644
H        3.11795579       0.62070621       0.11939527
H        2.65074043      -1.09327297       0.32507001
H       -0.42284064      -0.07377644       1.13778994
H       -0.89276761       1.94710441      -0.34880379
H       -2.60701132       1.44320755      -0.19580512
H       -1.76012565       1.27495457      -1.73692923
H       -1.34633396      -1.90856696      -0.18337354
15
Frame=1 idx=006429 GeodesicLength=0.07881370487290985 rxn_smarts="[C:1]([O:2][C:3](=[O:4])[C@@:5]([C:6]([H:12])([H:13])[H:14])([O:7][H:15])[H:11])([H:8])([H:9])[H:10]>>[C:1]([O:2][C@:3]([O:4][H:15])([C:5]([C:6]([H:12])([H:13])[H:14])=[O:7])[H:11])([H:8])([H:9])[H:10]"
C        2.35880910      -0.06092779       0.49084086
O        1.15590527       0.25175367      -0.19406562
C        0.11721754      -0.58356944       0.13637929
O        0.23995315      -1.85144962       0.22265778
C       -1.20577732      -0.14210949      -0.29899936
C       -1.64232496       1.22262468      -0.65259402
O       -2.01240731      -1.14191870      -0.36016947
H        2.23853397       0.08456803       1.56992499
H        3.11397184       0.62540163       0.11377201
H        2.65402800      -1.09262087       0.29871044
H       -0.43744549      -0.06236878       1.15132649
H       -0.91011371       1.95519789      -0.32227368
H       -2.62533369       1.44145943      -0.23673956
H       -1.71367254       1.27117550      -1.74229796
H       -1.33134384      -1.91721615      -0.17647219
15
Frame=2 idx=006429 GeodesicLength=0.157648874771887 rxn_smarts="[C:1]([O:2][C:3](=[O:4])[C@@:5]([C:6]([H:12])([H:13])[H:14])([O:7][H:15])[H:11])([H:8])([H:9])[H:10]>>[C:1]([O:2][C@:3]([O:4][H:15])([C:5]([C:6]([H:12])([H:13])[H:14])=[O:7])[H:11])([H:8])([H:9])[H:10]"
C        2.35986399      -0.06368644       0.48224861
O        1.15007173       0.25459243      -0.18818685
C        0.11510368      -0.58036558       0.14836037
O        0.23592709      -1.85033878       0.22191332
C       -1.21645273      -0.13716162      -0.27117766
C       -1.64157234       1.22419261      -0.65381526
O       -2.01365508      -1.14387972      -0.35867305
H        2.24937018       0.06517332       1.56435391
H        3.10965936       0.63032083       0.10856983
H        2.65687042      -1.09147999       0.27237191
H       -0.45227660      -0.05097801       1.16485452
H       -0.92772185       1.96298411      -0.29740074
H       -2.64111571       1.43937439      -0.27750402
H       -1.66768834       1.26704992      -1.74562403
H       -1.31638381      -1.92579747      -0.17029086
15
Frame=3 idx=006429 GeodesicLength=0.23668208504260582 rxn_smarts="[C:1]([O:2][C:3](=[O:4])[C@@:5]([C:6]([H:12])([H:13])[H:14])([O:7][H:15])[H:11])([H:8])([H:9])[H:10]>>[C:1]([O:2][C@:3]([O:4][H:15])([C:5]([C:6]([H:12])([H:13])[H:14])=[O:7])[H:11])([H:8])([H:9])[H:10]"
C        2.36064121      -0.06630281       0.47374100
O        1.14412175       0.25742920      -0.18212133
C        0.11282103      -0.57717502       0.16032028
O        0.23200504      -1.84908519       0.22098735
C       -1.22710927      -0.13238434      -0.24391212
C       -1.64033169       1.22536811      -0.65505334
O       -2.01522939      -1.14515752      -0.35642312
H        2.25989874       0.04556865       1.55853572
H        3.10506365       0.63547168       0.10388419
H        2.65932295      -1.08983134       0.24582876
H       -0.46741234      -0.03950016       1.17831956
H       -0.94562920       1.97049751      -0.27411312
H       -2.65454977       1.43686501      -0.31814695
H       -1.62218429       1.26259171      -1.74706434
H       -1.30142842      -1.93435547      -0.16478255
15
Frame=4 idx=006429 GeodesicLength=0.3157504210955556 rxn_smarts="[C:1]([O:2][C:3](=[O:4])[C@@:5]([C:6]([H:12])([H:13])[H:14])([O:7][H:15])[H:11])([H:8])([H:9])[H:10]>>[C:1]([O:2][C@:3]([O:4][H:15])([C:5]([C:6]([H:12])([H:13])[H:14])=[O:7])[H:11])([H:8])([H:9])[H:10]"
C        2.36116562      -0.06880629       0.46530875
O        1.13808020       0.26025183      -0.17587543
C        0.11040369      -0.57401822       0.17225638
O        0.22818600      -1.84772889       0.21998176
C       -1.23766478      -0.12778286      -0.21735864
C       -1.63863707       1.22617462      -0.65631900
O       -2.01714956      -1.14584803      -0.35342470
H        2.27016641       0.02572338       1.55247337
H        3.10019868       0.64083071       0.09971669
H        2.66138001      -1.08770029       0.21904982
H       -0.48287845      -0.02787199       1.19165937
H       -0.96384254       1.97776141      -0.25227052
H       -2.66576240       1.43384394      -0.35863197
H       -1.57720976       1.25798454      -1.74676955
H       -1.28643602      -1.94281385      -0.15979634
15
Frame=5 idx=006429 GeodesicLength=0.39489599302849926 rxn_smarts="[C:1]([O:2][C:3](=[O:4])[C@@:5]([C:6]([H:12])([H:13])[H:14])([O:7][H:15])[H:11])([H:8])([H:9])[H:10]>>[C:1]([O:2][C@:3]([O:4][H:15])([C:5]([C:6]([H:12])([H:13])[H:14])=[O:7])[H:11])([H:8])([H:9])[H:10]"
C        2.36147794      -0.07120455       0.45701095
O        1.13203990       0.26302892      -0.16949655
C        0.10790939      -0.57090849       0.18407953
O        0.22450705      -1.84625894       0.21883764
C       -1.24803857      -0.12333273      -0.19167694
C       -1.63654301       1.22665559      -0.65759489
O       -2.01942439      -1.14594210      -0.34969673
H        2.28010946       0.00571535       1.54617875
H        3.09517313       0.64631038       0.09612355
H        2.66309803      -1.08509593       0.19222994
H       -0.49869753      -0.01609632       1.20472337
H       -0.98222984       1.98479188      -0.23200949
H       -2.67482847       1.43031672      -0.39860835
H       -1.53308940       1.25328339      -1.74484161
H       -1.27146369      -1.95126319      -0.15525916
15
Frame=6 idx=006429 GeodesicLength=0.4741022214210002 rxn_smarts="[C:1]([O:2][C:3](=[O:4])[C@@:5]([C:6]([H:12])([H:13])[H:14])([O:7][H:15])[H:11])([H:8])([H:9])[H:10]>>[C:1]([O:2][C@:3]([O:4][H:15])([C:5]([C:6]([H:12])([H:13])[H:14])=[O:7])[H:11])([H:8])([H:9])[H:10]"
C        2.36162380      -0.07353406       0.44882508
O        1.12600343       0.26578119      -0.16292371
C        0.10535003      -0.56784736       0.19585245
O        0.22094984      -1.84470068       0.21767794
C       -1.25820985      -0.11901503      -0.16687930
C       -1.63409852       1.22684548      -0.65890831
O       -2.02209180      -1.14553933      -0.34524438
H        2.28985366      -0.01456317       1.53964430
H        3.09001330       0.65189773       0.09309384
H        2.66447806      -1.08203539       0.16524660
H       -0.51488701      -0.00411801       1.21752789
H       -1.00085025       1.99162889      -0.21316835
H       -2.68193723       1.42624162      -0.43818848
H       -1.48977557       1.24860269      -1.74144347
H       -1.25642190      -1.95964456      -0.15111209
15
Frame=7 idx=006429 GeodesicLength=0.5534189348929492 rxn_smarts="[C:1]([O:2][C:3](=[O:4])[C@@:5]([C:6]([H:12])([H:13])[H:14])([O:7][H:15])[H:11])([H:8])([H:9])[H:10]>>[C:1]([O:2][C@:3]([O:4][H:15])([C:5]([C:6]([H:12])([H:13])[H:14])=[O:7])[H:11])([H:8])([H:9])[H:10]"
C        2.36164807      -0.07583467       0.44072151
O        1.11996628       0.26858304      -0.15600704
C        0.10273195      -0.56479097       0.20767332
O        0.21752781      -1.84299107       0.21660317
C       -1.26817092      -0.11477888      -0.14292021
C       -1.63134147       1.22676484      -0.66029955
O       -2.02513939      -1.14464734      -0.34005659
H        2.29954320      -0.03539281       1.53283027
H        3.08473411       0.65761419       0.09070120
H        2.66553297      -1.07846122       0.13781192
H       -0.53150658       0.00812752       1.23010755
H       -1.01979871       1.99830530      -0.19566362
H       -2.68725404       1.42156085      -0.47755322
H       -1.44714834       1.24395842      -1.73669527
H       -1.24132492      -1.96801722      -0.14725346
15
Frame=8 idx=006429 GeodesicLength=0.6325564276968643 rxn_smarts="[C:1]([O:2][C:3](=[O:4])[C@@:5]([C:6]([H:12])([H:13])[H:14])([O:7][H:15])[H:11])([H:8])([H:9])[H:10]>>[C:1]([O:2][C@:3]([O:4][H:15])([C:5]([C:6]([H:12])([H:13])[H:14])=[O:7])[H:11])([H:8])([H:9])[H:10]"
C        2.36157829      -0.07812966       0.43266586
O        1.11392574       0.27147556      -0.14865995
C        0.10005925      -0.56174497       0.21961091
O        0.21424602      -1.84117675       0.21569382
C       -1.27791590      -0.11061007      -0.11977717
C       -1.62829326       1.22643912      -0.66179628
O       -2.02855470      -1.14338533      -0.33419942
H        2.30927645      -0.05693311       1.52570063
H        3.07934689       0.66348480       0.08896570
H        2.66624786      -1.07434153       0.10973750
H       -0.54860153       0.02066226       1.24250384
H       -1.03915155       2.00486279      -0.17938669
H       -2.69088983       1.41620910      -0.51683572
H       -1.40509741       1.23944087      -1.73070761
H       -1.22617633      -1.97625309      -0.14351541
15
Frame=9 idx=006429 GeodesicLength=0.7118936314097 rxn_smarts="[C:1]([O:2][C:3](=[O:4])[C@@:5]([C:6]([H:12])([H:13])[H:14])([O:7][H:15])[H:11])([H:8])([H:9])[H:10]>>[C:1]([O:2][C@:3]([O:4][H:15])([C:5]([C:6]([H:12])([H:13])[H:14])=[O:7])[H:11])([H:8])([H:9])[H:10]"
C        2.36141714      -0.08042200       0.42468759
O        1.10791369       0.27441208      -0.14091107
C        0.09736210      -0.55869547       0.23162266
O        0.21112966      -1.83915988       0.21489614
C       -1.28743096      -0.10645808      -0.09743557
C       -1.62497945       1.22589154      -0.66336799
O       -2.03231545      -1.14164406      -0.32772179
H        2.31901287      -0.07907645       1.51819164
H        3.07388397       0.66939848       0.08791443
H        2.66661492      -1.06964083       0.08121580
H       -0.56612289       0.03347339       1.25463242
H       -1.05880256       2.01125629      -0.16442564
H       -2.69288187       1.41026401      -0.55583257
H       -1.36381232       1.23501975      -1.72351193
H       -1.21098885      -1.98461878      -0.13995410
15
Frame=10 idx=006429 GeodesicLength=0.7913747069936546 rxn_smarts="[C:1]([O:2][C:3](=[O:4])[C@@:5]([C:6]([H:12])([H:13])[H:14])([O:7][H:15])[H:11])([H:8])([H:9])[H:10]>>[C:1]([O:2][C@:3]([O:4][H:15])([C:5]([C:6]([H:12])([H:13])[H:14])=[O:7])[H:11])([H:8])([H:9])[H:10]"
C        2.36117717      -0.08271864       0.41674037
O        1.10192696       0.27740576      -0.13273602
C        0.09462382      -0.55568411       0.24375353
O        0.20813415      -1.83706684       0.21428089
C       -1.29673284      -0.10233433      -0.07585568
C       -1.62140504       1.22515827      -0.66502361
O       -2.03647850      -1.13959173      -0.32070750
H        2.32879969      -0.10187006       1.51027531
H        3.06837023       0.67538105       0.08749871
H        2.66659512      -1.06435917       0.05214046
H       -0.58410058       0.04654971       1.26656378
H       -1.07880830       2.01754641      -0.15062346
H       -2.69331863       1.40367193      -0.59468438
H       -1.32314299       1.23083042      -1.71521366
H       -1.19564025      -1.99291866      -0.13640873
15
Frame=11 idx=006429 GeodesicLength=0.8707849447636266 rxn_smarts="[C:1]([O:2][C:3](=[O:4])[C@@:5]([C:6]([H:12])([H:13])[H:14])([O:7][H:15])[H:11])([H:8])([H:9])[H:10]>>[C:1]([O:2][C@:3]([O:4][H:15])([C:5]([C:6]([H:12])([H:13])[H:14])=[O:7])[H:11])([H:8])([H:9])[H:10]"
C        2.36085989      -0.08501466       0.40884841
O        1.09598957       0.28043689      -0.12414545
C        0.09187803      -0.55270679       0.25596958
O        0.20533008      -1.83484937       0.21380429
C       -1.30580630      -0.09821038      -0.05502290
C       -1.61758748       1.22425916      -0.66674663
O       -2.04095190      -1.13718556      -0.31325140
H        2.33860663      -0.12525162       1.50190691
H        3.06282065       0.68136916       0.08774885
H        2.66619600      -1.05845594       0.02262952
H       -0.60250349       0.05987264       1.27824057
H       -1.09908457       2.02371084      -0.13806177
H       -2.69222759       1.39649970      -0.63320336
H       -1.28322985       1.22685048      -1.70586300
H       -1.18028966      -2.00132455      -0.13285361
15
Frame=12 idx=006429 GeodesicLength=0.9503274162500581 rxn_smarts="[C:1]([O:2][C:3](=[O:4])[C@@:5]([C:6]([H:12])([H:13])[H:14])([O:7][H:15])[H:11])([H:8])([H:9])[H:10]>>[C:1]([O:2][C@:3]([O:4][H:15])([C:5]([C:6]([H:12])([H:13])[H:14])=[O:7])[H:11])([H:8])([H:9])[H:10]"
C        2.36047428      -0.08732232       0.40097010
O        1.09008640       0.28353053      -0.11506623
C        0.08910186      -0.54977071       0.26832822
O        0.20268146      -1.83254355       0.21353257
C       -1.31468104      -0.09407788      -0.03487624
C       -1.61352663       1.22320904      -0.66855144
O       -2.04578831      -1.13448517      -0.30541463
H        2.34850167      -0.14933429       1.49302197
H        3.05724816       0.68736919       0.08866415
H        2.66536690      -1.05187819      -0.00746638
H       -0.62136202       0.07344409       1.28971556
H       -1.11969697       2.02976455      -0.12662886
H       -2.68966651       1.38870685      -0.67155692
H       -1.24392844       1.22315126      -1.69551768
H       -1.16481080      -2.00976340      -0.12915418
15
Frame=13 idx=006429 GeodesicLength=1.0300077198026405 rxn_smarts="[C:1]([O:2][C:3](=[O:4])[C@@:5]([C:6]([H:12])([H:13])[H:14])([O:7][H:15])[H:11])([H:8])([H:9])[H:10]>>[C:1]([O:2][C@:3]([O:4][H:15])([C:5]([C:6]([H:12])([H:13])[H:14])=[O:7])[H:11])([H:8])([H:9])[H:10]"
C        2.36001367      -0.08962518       0.39312210
O        1.08424228       0.28664541      -0.10555966
C        0.08631309      -0.54689580       0.28077033
O        0.20021359      -1.83014858       0.21340174
C       -1.32335450      -0.08992473      -0.01539763
C       -1.60922843       1.22203346      -0.67040819
O       -2.05096572      -1.13146784      -0.29727674
H        2.35841861      -0.17397316       1.48358808
H        3.05167733       0.69332334       0.09022880
H        2.66410667      -1.04461210      -0.03796591
H       -0.64062918       0.08722531       1.30094488
H       -1.14054232       2.03569559      -0.11635900
H       -2.68565991       1.38036718      -0.70956910
H       -1.20534447       1.21973587      -1.68422927
H       -1.14926072      -2.01837877      -0.12529044
15
Frame=14 idx=006429 GeodesicLength=1.1097657829190248 rxn_smarts="[C:1]([O:2][C:3](=[O:4])[C@@:5]([C:6]([H:12])([H:13])[H:14])([O:7][H:15])[H:11])([H:8])([H:9])[H:10]>>[C:1]([O:2][C@:3]([O:4][H:15])([C:5]([C:6]([H:12])([H:13])[H:14])=[O:7])[H:11])([H:8])([H:9])[H:10]"
C        2.35946530      -0.09190251       0.38532285
O        1.07848083       0.28972237      -0.09573317
C        0.08352896      -0.54412306       0.29320800
O        0.19794668      -1.82770903       0.21333147
C       -1.33182224      -0.08575668       0.00341707
C       -1.60469758       1.22076004      -0.67228459
O       -2.05647703      -1.12814588      -0.28893955
H        2.36826033      -0.19898035       1.47360154
H        3.04612585       0.69918416       0.09240661
H        2.66242846      -1.03667252      -0.06865042
H       -0.66024236       0.10115596       1.31187974
H       -1.16149706       2.04149124      -0.10725567
H       -2.68024667       1.37156778      -0.74704134
H       -1.16758852       1.21663020      -1.67207174
H       -1.13366495      -2.02722171      -0.12119082
15
Frame=15 idx=006429 GeodesicLength=1.1896043645166519 rxn_smarts="[C:1]([O:2][C:3](=[O:4])[C@@:5]([C:6]([H:12])([H:13])[H:14])([O:7][H:15])[H:11])([H:8])([H:9])[H:10]>>[C:1]([O:2][C@:3]([O:4][H:15])([C:5]([C:6]([H:12])([H:13])[H:14])=[O:7])[H:11])([H:8])([H:9])[H:10]"
C        2.35882143      -0.09413284       0.37759036
O        1.07282452       0.29270655      -0.08569885
C        0.08076154      -0.54149085       0.30554982
O        0.19588833      -1.82526540       0.21323041
C       -1.34008569      -0.08157899       0.02157877
C       -1.59994036       1.21941596      -0.67414979
O       -2.06233006      -1.12452412      -0.28049324
H        2.37793251      -0.22417415       1.46307425
H        3.04061512       0.70491471       0.09515786
H        2.66036137      -1.02808266      -0.09931497
H       -0.68013803       0.11517857       1.32247910
H       -1.18243989       2.04714236      -0.09930344
H       -2.67348603       1.36239783      -0.78379730
H       -1.13074643       1.21385070      -1.65912553
H       -1.11803832      -2.03635768      -0.11677745
15
Frame=16 idx=006429 GeodesicLength=1.2695053327695618 rxn_smarts="[C:1]([O:2][C:3](=[O:4])[C@@:5]([C:6]([H:12])([H:13])[H:14])([O:7][H:15])[H:11])([H:8])([H:9])[H:10]>>[C:1]([O:2][C@:3]([O:4][H:15])([C:5]([C:6]([H:12])([H:13])[H:14])=[O:7])[H:11])([H:8])([H:9])[H:10]"
C        2.35807745      -0.09629450       0.36994366
O        1.06729482       0.29554348      -0.07558196
C        0.07802307      -0.53903769       0.31769532
O        0.19404434      -1.82285939       0.21299459
C       -1.34814653      -0.07739980       0.03909571
C       -1.59496579       1.21802966      -0.67597319
O       -2.06853003      -1.12060732      -0.27203095
H        2.38733876      -0.24936509       1.45203702
H        3.03516530       0.71048417       0.09843262
H        2.65795244      -1.01888246      -0.12975096
H       -0.70024893       0.12923393       1.33270263
H       -1.20325312       2.05264049      -0.09246590
H       -2.66545419       1.35295195      -0.81967052
H       -1.09489340       1.21141601      -1.64547600
H       -1.10240420      -2.04585345      -0.11195207
