14
Frame=0 idx=010986 GeodesicLength=0.0 rxn_smarts="[O:1]=[C:2]([C:3]12[C:4]([H:9])([H:10])[N:5]([C:6]1([H:11])[H:12])[C:7]2([H:13])[H:14])[H:8]>>[C:3]12([C:6]([H:8])([H:11])[H:12])[C:4]([H:9])([H:10])[N:5]1[C:7]2([H:13])[H:14].[O+:1]#[C-:2]"
O        2.79131452       0.21727291      -0.60962164
C        1.67445698       0.50491601      -0.71736387
C        0.22751929      -0.09503801      -0.21606801
C       -0.99490618      -0.69754909      -0.85424026
N       -1.35021543      -0.54043878       0.58007151
C       -0.23218388       1.25639165       0.27080405
C       -0.02447955      -1.03498661       0.95578654
H        1.00940599       1.73331164      -0.39136009
H       -1.57962980      -0.09432203      -1.54553028
H       -0.89857551      -1.73541376      -1.18050962
H       -0.99040407       1.79722348      -0.28214531
H       -0.11303351       1.52607249       1.31278643
H        0.32146490      -0.74965061       1.94765719
H        0.15926625      -2.08778927       0.72973330
14
Frame=1 idx=010986 GeodesicLength=0.0776958109547814 rxn_smarts="[O:1]=[C:2]([C:3]12[C:4]([H:9])([H:10])[N:5]([C:6]1([H:11])[H:12])[C:7]2([H:13])[H:14])[H:8]>>[C:3]12([C:6]([H:8])([H:11])[H:12])[C:4]([H:9])([H:10])[N:5]1[C:7]2([H:13])[H:14].[O+:1]#[C-:2]"
O        2.79961973       0.19625438      -0.61977312
C        1.68901614       0.50649949      -0.73022491
C        0.22320455      -0.09198952      -0.21043107
C       -0.99285743      -0.69723660      -0.85643068
N       -1.34806558      -0.53515544       0.57785623
C       -0.24268859       1.25655024       0.27669129
C       -0.02310621      -1.03421765       0.95788637
H        1.00877282       1.73663696      -0.38910740
H       -1.57880567      -0.09544899      -1.54789062
H       -0.89179114      -1.73462178      -1.18232637
H       -0.99954283       1.79938297      -0.27695093
H       -0.12504809       1.52820195       1.31879023
H        0.31872595      -0.74855620       1.95098361
H        0.16256635      -2.08629981       0.73092737
14
Frame=2 idx=010986 GeodesicLength=0.15540680214874558 rxn_smarts="[O:1]=[C:2]([C:3]12[C:4]([H:9])([H:10])[N:5]([C:6]1([H:11])[H:12])[C:7]2([H:13])[H:14])[H:8]>>[C:3]12([C:6]([H:8])([H:11])[H:12])[C:4]([H:9])([H:10])[N:5]1[C:7]2([H:13])[H:14].[O+:1]#[C-:2]"
O        2.80764907       0.17438891      -0.63083973
C        1.70398236       0.50822121      -0.74308135
C        0.21886931      -0.08878870      -0.20465344
C       -0.99063882      -0.69684531      -0.85861160
N       -1.34599391      -0.53003447       0.57560975
C       -0.25344757       1.25676493       0.28271385
C       -0.02174485      -1.03331911       0.96007863
H        1.00826066       1.73990095      -0.38653025
H       -1.57780801      -0.09654107      -1.55027702
H       -0.88460855      -1.73368458      -1.18423132
H       -1.00884578       1.80154809      -0.27177922
H       -0.13757167       1.53034902       1.32496126
H        0.31578514      -0.74733100       1.95444890
H        0.16611262      -2.08462885       0.73219154
14
Frame=3 idx=010986 GeodesicLength=0.23312902372049565 rxn_smarts="[O:1]=[C:2]([C:3]12[C:4]([H:9])([H:10])[N:5]([C:6]1([H:11])[H:12])[C:7]2([H:13])[H:14])[H:8]>>[C:3]12([C:6]([H:8])([H:11])[H:12])[C:4]([H:9])([H:10])[N:5]1[C:7]2([H:13])[H:14].[O+:1]#[C-:2]"
O        2.81536468       0.15166415      -0.64285402
C        1.71938368       0.51008791      -0.75591672
C        0.21451310      -0.08543397      -0.19872950
C       -0.98824031      -0.69637171      -0.86078291
N       -1.34400008      -0.52507412       0.57333126
C       -0.26446686       1.25703303       0.28887305
C       -0.02039638      -1.03228917       0.96236751
H        1.00786854       1.74309656      -0.38363594
H       -1.57662206      -0.09759511      -1.55269327
H       -0.87701455      -1.73259326      -1.18621952
H       -1.01831860       1.80371539      -0.26662850
H       -0.15061282       1.53250865       1.33130052
H        0.31263446      -0.74597730       1.95805731
H        0.16990720      -2.08277107       0.73353072
14
Frame=4 idx=010986 GeodesicLength=0.3108518105827597 rxn_smarts="[O:1]=[C:2]([C:3]12[C:4]([H:9])([H:10])[N:5]([C:6]1([H:11])[H:12])[C:7]2([H:13])[H:14])[H:8]>>[C:3]12([C:6]([H:8])([H:11])[H:12])[C:4]([H:9])([H:10])[N:5]1[C:7]2([H:13])[H:14].[O+:1]#[C-:2]"
O        2.82270833       0.12806516      -0.65588112
C        1.73525467       0.51210680      -0.76869759
C        0.21013779      -0.08192419      -0.19264931
C       -0.98564754      -0.69581257      -0.86294568
N       -1.34208461      -0.52027247       0.57101757
C       -0.27575171       1.25735203       0.29517199
C       -0.01906345      -1.03112508       0.96476128
H        1.00759812       1.74621730      -0.38042704
H       -1.57522493      -0.09860842      -1.55514787
H       -0.86898849      -1.73133795      -1.18828850
H       -1.02796504       1.80588040      -0.26149840
H       -0.16418448       1.53467585       1.33781099
H        0.30925973      -0.74449627       1.96181942
H        0.17395162      -2.08072058       0.73495427
14
Frame=5 idx=010986 GeodesicLength=0.3885814397938573 rxn_smarts="[O:1]=[C:2]([C:3]12[C:4]([H:9])([H:10])[N:5]([C:6]1([H:11])[H:12])[C:7]2([H:13])[H:14])[H:8]>>[C:3]12([C:6]([H:8])([H:11])[H:12])[C:4]([H:9])([H:10])[N:5]1[C:7]2([H:13])[H:14].[O+:1]#[C-:2]"
O        2.82963199       0.10359447      -0.66996365
C        1.75163594       0.51427980      -0.78139804
C        0.20574264      -0.07825963      -0.18640592
C       -0.98285029      -0.69516481      -0.86509903
N       -1.34024967      -0.51562696       0.56866848
C       -0.28730621       1.25771768       0.30161168
C       -0.01775020      -1.02982637       0.96726587
H        1.00744700       1.74925623      -0.37691681
H       -1.57359837      -0.09957721      -1.55764591
H       -0.86051717      -1.72991133      -1.19043328
H       -1.03778827       1.80803948      -0.25638687
H       -0.17829143       1.53684433       1.34449315
H        0.30564993      -0.74289162       1.96574098
H        0.17824411      -2.07847407       0.73646937
14
Frame=6 idx=010986 GeodesicLength=0.46630908663868365 rxn_smarts="[O:1]=[C:2]([C:3]12[C:4]([H:9])([H:10])[N:5]([C:6]1([H:11])[H:12])[C:7]2([H:13])[H:14])[H:8]>>[C:3]12([C:6]([H:8])([H:11])[H:12])[C:4]([H:9])([H:10])[N:5]1[C:7]2([H:13])[H:14].[O+:1]#[C-:2]"
O        2.83606464       0.07824593      -0.68516457
C        1.76856949       0.51661063      -0.79398002
C        0.20132890      -0.07444031      -0.17999003
C       -0.97983463      -0.69442462      -0.86724271
N       -1.33849395      -0.51113528       0.56628075
C       -0.29913447       1.25812643       0.30819365
C       -0.01645916      -1.02839136       0.96988892
H        1.00741629       1.75220519      -0.37311361
H       -1.57171894      -0.10049741      -1.56019453
H       -0.85157862      -1.72830210      -1.19264820
H       -1.04779072       1.81018819      -0.25129402
H       -0.19294429       1.53900746       1.35134739
H        0.30179010      -0.74116631       1.96983079
H        0.18278536      -2.07602645       0.73808618
14
Frame=7 idx=010986 GeodesicLength=0.544037421698681 rxn_smarts="[O:1]=[C:2]([C:3]12[C:4]([H:9])([H:10])[N:5]([C:6]1([H:11])[H:12])[C:7]2([H:13])[H:14])[H:8]>>[C:3]12([C:6]([H:8])([H:11])[H:12])[C:4]([H:9])([H:10])[N:5]1[C:7]2([H:13])[H:14].[O+:1]#[C-:2]"
O        2.84195223       0.05205130      -0.70152512
C        1.78610200       0.51908955      -0.80641157
C        0.19689468      -0.07047027      -0.17339478
C       -0.97659312      -0.69358913      -0.86937500
N       -1.33681948      -0.50679403       0.56385533
C       -0.31123739       1.25857156       0.31491702
C       -0.01519589      -1.02682113       0.97263759
H        1.00750688       1.75505173      -0.36903826
H       -1.56956925      -0.10136386      -1.56279851
H       -0.84216368      -1.72650206      -1.19492874
H       -1.05797165       1.81232115      -0.24621950
H       -0.20814245       1.54115722       1.35837193
H        0.29766924      -0.73932557       1.97409618
H        0.18756788      -2.07337647       0.73981343
14
Frame=8 idx=010986 GeodesicLength=0.6217633828203678 rxn_smarts="[O:1]=[C:2]([C:3]12[C:4]([H:9])([H:10])[N:5]([C:6]1([H:11])[H:12])[C:7]2([H:13])[H:14])[H:8]>>[C:3]12([C:6]([H:8])([H:11])[H:12])[C:4]([H:9])([H:10])[N:5]1[C:7]2([H:13])[H:14].[O+:1]#[C-:2]"
O        2.84722000       0.02502655      -0.71910594
C        1.80428473       0.52171418      -0.81865143
C        0.19243989      -0.06635173      -0.16661158
C       -0.97311383      -0.69265482      -0.87149384
N       -1.33522621      -0.50260003       0.56139077
C       -0.32361693       1.25904796       0.32178154
C       -0.01396490      -1.02511564       0.97551979
H        1.00772064       1.75778405      -0.36470648
H       -1.56712556      -0.10217109      -1.56546331
H       -0.83225475      -1.72450214      -1.19726719
H       -1.06833006       1.81443371      -0.24116401
H       -0.22389249       1.54328469       1.36556444
H        0.29327048      -0.73737500       1.97854456
H        0.19258899      -2.07052071       0.74166269
14
Frame=9 idx=010986 GeodesicLength=0.699492782878243 rxn_smarts="[O:1]=[C:2]([C:3]12[C:4]([H:9])([H:10])[N:5]([C:6]1([H:11])[H:12])[C:7]2([H:13])[H:14])[H:8]>>[C:3]12([C:6]([H:8])([H:11])[H:12])[C:4]([H:9])([H:10])[N:5]1[C:7]2([H:13])[H:14].[O+:1]#[C-:2]"
O        2.85177831      -0.00279229      -0.73798482
C        1.82318586       0.52446900      -0.83063997
C        0.18796697      -0.06208732      -0.15962896
C       -0.96938414      -0.69161953      -0.87359707
N       -1.33371862      -0.49854887       0.55888487
C       -0.33627207       1.25955036       0.32878769
C       -0.01277453      -1.02327641       0.97854471
H        1.00805496       1.76039618      -0.36014200
H       -1.56435994      -0.10291350      -1.56819634
H       -0.82183254      -1.72230243      -1.19965757
H       -1.07886225       1.81652350      -0.23612656
H       -0.24019480       1.54538354       1.37292392
H        0.28857472      -0.73531915       1.98318644
H        0.19783807      -2.06746309       0.74364566
14
Frame=10 idx=010986 GeodesicLength=0.7772164410473663 rxn_smarts="[O:1]=[C:2]([C:3]12[C:4]([H:9])([H:10])[N:5]([C:6]1([H:11])[H:12])[C:7]2([H:13])[H:14])[H:8]>>[C:3]12([C:6]([H:8])([H:11])[H:12])[C:4]([H:9])([H:10])[N:5]1[C:7]2([H:13])[H:14].[O+:1]#[C-:2]"
O        2.85556524      -0.03132782      -0.75820100
C        1.84285624       0.52733048      -0.84234226
C        0.18347147      -0.05768881      -0.15244146
C       -0.96540129      -0.69048208      -0.87568225
N       -1.33229788      -0.49463543       0.55633988
C       -0.34919924       1.26006868       0.33593085
C       -0.01163192      -1.02130660       0.98172227
H        1.00852414       1.76285896      -0.35536834
H       -1.56125911      -0.10358628      -1.57100306
H       -0.81089580      -1.71988870      -1.20209440
H       -1.08956092       1.81858278      -0.23111248
H       -0.25704465       1.54744273       1.38044399
H        0.28356978      -0.73316668       1.98803104
H        0.20330394      -2.06420124       0.74577722
14
Frame=11 idx=010986 GeodesicLength=0.8549495941535118 rxn_smarts="[O:1]=[C:2]([C:3]12[C:4]([H:9])([H:10])[N:5]([C:6]1([H:11])[H:12])[C:7]2([H:13])[H:14])[H:8]>>[C:3]12([C:6]([H:8])([H:11])[H:12])[C:4]([H:9])([H:10])[N:5]1[C:7]2([H:13])[H:14].[O+:1]#[C-:2]"
O        2.85855198      -0.06051334      -0.77972036
C        1.86334502       0.53027362      -0.85375561
C        0.17894430      -0.05316040      -0.14505392
C       -0.96117114      -0.68923883      -0.87774067
N       -1.33096332      -0.49085732       0.55376288
C       -0.36239646       1.26059557       0.34320369
C       -0.01054144      -1.01921087       0.98504876
H        1.00912523       1.76515626      -0.35042911
H       -1.55782203      -0.10418075      -1.57387217
H       -0.79945075      -1.71725804      -1.20456198
H       -1.10042622       1.82060948      -0.22611654
H       -0.27442692       1.54945099       1.38811303
H        0.27825572      -0.73092836       1.99306619
H        0.20897603      -2.06073802       0.74805581
14
Frame=12 idx=010986 GeodesicLength=0.9326800632951575 rxn_smarts="[O:1]=[C:2]([C:3]12[C:4]([H:9])([H:10])[N:5]([C:6]1([H:11])[H:12])[C:7]2([H:13])[H:14])[H:8]>>[C:3]12([C:6]([H:8])([H:11])[H:12])[C:4]([H:9])([H:10])[N:5]1[C:7]2([H:13])[H:14].[O+:1]#[C-:2]"
O        2.86063644      -0.09025155      -0.80264122
C        1.88472655       0.53326393      -0.86480677
C        0.17438792      -0.04851585      -0.13745230
C       -0.95668586      -0.68789134      -0.87977183
N       -1.32972183      -0.48720551       0.55115274
C       -0.37585705       1.26112170       0.35060390
C       -0.00951319      -1.01699253       0.98854144
H        1.00987579       1.76725958      -0.34534690
H       -1.55402339      -0.10469324      -1.57681774
H       -0.78748735      -1.71440470      -1.20705936
H       -1.11144429       1.82259782      -0.22114767
H       -0.29234109       1.55139920       1.39592746
H        0.27260949      -0.72861052       1.99831340
H        0.21483787      -2.05707698       0.75050485
14
Frame=13 idx=010986 GeodesicLength=1.0104190883504984 rxn_smarts="[O:1]=[C:2]([C:3]12[C:4]([H:9])([H:10])[N:5]([C:6]1([H:11])[H:12])[C:7]2([H:13])[H:14])[H:8]>>[C:3]12([C:6]([H:8])([H:11])[H:12])[C:4]([H:9])([H:10])[N:5]1[C:7]2([H:13])[H:14].[O+:1]#[C-:2]"
O        2.86180874      -0.12043986      -0.82689603
C        1.90704764       0.53626121      -0.87550589
C        0.16978927      -0.04376196      -0.12964588
C       -0.95195910      -0.68643640      -0.88176443
N       -1.32857300      -0.48367846       0.54851992
C       -0.38957575       1.26163838       0.35812153
C       -0.00855371      -1.01465834       0.99219394
H        1.01077540       1.76914535      -0.34017846
H       -1.54987145      -0.10511474      -1.57982333
H       -0.77502352      -1.71132589      -1.20956943
H       -1.12261253       1.82454544      -0.21619868
H       -0.31076206       1.55327462       1.40387207
H        0.26663633      -0.72622634       2.00375543
H        0.22087373      -2.05322303       0.75311923
14
Frame=14 idx=010986 GeodesicLength=1.0881604039877517 rxn_smarts="[O:1]=[C:2]([C:3]12[C:4]([H:9])([H:10])[N:5]([C:6]1([H:11])[H:12])[C:7]2([H:13])[H:14])[H:8]>>[C:3]12([C:6]([H:8])([H:11])[H:12])[C:4]([H:9])([H:10])[N:5]1[C:7]2([H:13])[H:14].[O+:1]#[C-:2]"
O        2.86197987      -0.15097080      -0.85255817
C        1.93038052       0.53922216      -0.88579224
C        0.16514737      -0.03891211      -0.12162475
C       -0.94698762      -0.68487572      -0.88371593
N       -1.32752221      -0.48026768       0.54586521
C       -0.40354648       1.26213684       0.36575214
C       -0.00767163      -1.01221225       0.99601999
H        1.01184157       1.77078443      -0.33495088
H       -1.54534740      -0.10544116      -1.58289800
H       -0.76205369      -1.70801708      -1.21208776
H       -1.13391942       1.82644751      -0.21127772
H       -0.32968634       1.55506888       1.41194061
H        0.26031709      -0.72378318       2.00940748
H        0.22706837      -2.04917982       0.75592004
14
Frame=15 idx=010986 GeodesicLength=1.1659081809436949 rxn_smarts="[O:1]=[C:2]([C:3]12[C:4]([H:9])([H:10])[N:5]([C:6]1([H:11])[H:12])[C:7]2([H:13])[H:14])[H:8]>>[C:3]12([C:6]([H:8])([H:11])[H:12])[C:4]([H:9])([H:10])[N:5]1[C:7]2([H:13])[H:14].[O+:1]#[C-:2]"
O        2.86112248      -0.18171769      -0.87959071
C        1.95478072       0.54209510      -0.89565969
C        0.16045178      -0.03397611      -0.11339437
C       -0.94178364      -0.68320879      -0.88561599
N       -1.32657214      -0.47696896       0.54319815
C       -0.41776205       1.26260766       0.37348605
C       -0.00687523      -1.00966098       1.00001793
H        1.01308337       1.77214715      -0.32971512
H       -1.54045629      -0.10566600      -1.58603026
H       -0.74859393      -1.70447704      -1.21460023
H       -1.14535728       1.82830117      -0.20638256
H       -0.34909212       1.55677050       1.42011861
H        0.25365147      -0.72129275       2.01525948
H        0.23340286      -2.04495327       0.75890872
14
Frame=16 idx=010986 GeodesicLength=1.2436650182073663 rxn_smarts="[O:1]=[C:2]([C:3]12[C:4]([H:9])([H:10])[N:5]([C:6]1([H:11])[H:12])[C:7]2([H:13])[H:14])[H:8]>>[C:3]12([C:6]([H:8])([H:11])[H:12])[C:4]([H:9])([H:10])[N:5]1[C:7]2([H:13])[H:14].[O+:1]#[C-:2]"
O        2.85916654      -0.21255459      -0.90805800
C        1.98032405       0.54482507      -0.90505518
C        0.15569875      -0.02896639      -0.10494869
C       -0.93635048      -0.68143887      -0.88745928
N       -1.32573049      -0.47377513       0.54052235
C       -0.43221734       1.26304307       0.38131660
C       -0.00617519      -1.00700769       1.00419972
H        1.01452375       1.77320085      -0.32449379
H       -1.53518660      -0.10578755      -1.58922483
H       -0.73464422      -1.70070753      -1.21710023
H       -1.15691523       1.83010408      -0.20152238
H       -0.36897712       1.55837247       1.42839730
H        0.24662347      -0.71876026       2.02132212
H        0.23986012      -2.04054754       0.76210430
