8
Frame=0 idx=003776 GeodesicLength=0.0 rxn_smarts="[n:1]1([H:6])[c:2]([H:7])[n:3][c:4]([H:8])[n:5]1>>[N:1](=[C:2]([N:3]=[C:4]=[N:5][H:8])[H:7])[H:6]"
N       -1.00365154       0.70677668       0.00891069
C       -0.82041444      -0.54244704      -0.10452475
N        0.46372218      -1.09785256      -0.07935293
C        1.21288190      -0.06733417       0.06905223
N        1.33354101       1.14701757       0.19684781
H       -1.96553805       1.01631131      -0.02119410
H       -1.61032222      -1.28085815      -0.23012250
H        2.38978116       0.11838633       0.16038356
8
Frame=1 idx=003776 GeodesicLength=0.05010311806307218 rxn_smarts="[n:1]1([H:6])[c:2]([H:7])[n:3][c:4]([H:8])[n:5]1>>[N:1](=[C:2]([N:3]=[C:4]=[N:5][H:8])[H:7])[H:6]"
N       -0.99405288       0.70381331       0.01521215
C       -0.82424723      -0.55093149      -0.08259172
N        0.45846290      -1.10376891      -0.07236790
C        1.21807476      -0.07449616       0.02490690
N        1.31672811       1.13813058       0.19834578
H       -1.95131384       1.02610043      -0.02426333
H       -1.61703386      -1.27951141      -0.24044215
H        2.39338203       0.14066365       0.18120027
8
Frame=2 idx=003776 GeodesicLength=0.10056450870001521 rxn_smarts="[n:1]1([H:6])[c:2]([H:7])[n:3][c:4]([H:8])[n:5]1>>[N:1](=[C:2]([N:3]=[C:4]=[N:5][H:8])[H:7])[H:6]"
N       -0.98428450       0.70095599       0.02032625
C       -0.82704357      -0.55847761      -0.06769426
N        0.45427940      -1.10828021      -0.07200148
C        1.22258458      -0.08229252      -0.00855991
N        1.30101895       1.13027203       0.18852493
H       -1.93733916       1.03486218      -0.02116088
H       -1.62289936      -1.27812990      -0.24750965
H        2.39368365       0.16109004       0.20807500
8
Frame=3 idx=003776 GeodesicLength=0.1509913502224654 rxn_smarts="[n:1]1([H:6])[c:2]([H:7])[n:3][c:4]([H:8])[n:5]1>>[N:1](=[C:2]([N:3]=[C:4]=[N:5][H:8])[H:7])[H:6]"
N       -0.97458422       0.69797575       0.02606015
C       -0.82966358      -0.56566928      -0.05616044
N        0.44996681      -1.11293954      -0.06924887
C        1.22643953      -0.09128270      -0.03121246
N        1.28565239       1.12194155       0.18066689
H       -1.92321185       1.04356115      -0.01918948
H       -1.62842543      -1.27634759      -0.25600737
H        2.39382635       0.18276066       0.22509159
8
Frame=4 idx=003776 GeodesicLength=0.20153563506421623 rxn_smarts="[n:1]1([H:6])[c:2]([H:7])[n:3][c:4]([H:8])[n:5]1>>[N:1](=[C:2]([N:3]=[C:4]=[N:5][H:8])[H:7])[H:6]"
N       -0.96466452       0.69514210       0.02917048
C       -0.83197563      -0.57252937      -0.04749658
N        0.44582315      -1.11741720      -0.06965442
C        1.23037584      -0.10085070      -0.04947853
N        1.27087523       1.11398581       0.16957751
H       -1.90911217       1.05187794      -0.01403335
H       -1.63406944      -1.27465226      -0.26224201
H        2.39274754       0.20444367       0.24415690
8
Frame=5 idx=003776 GeodesicLength=0.2521870256940006 rxn_smarts="[n:1]1([H:6])[c:2]([H:7])[n:3][c:4]([H:8])[n:5]1>>[N:1](=[C:2]([N:3]=[C:4]=[N:5][H:8])[H:7])[H:6]"
N       -0.95484065       0.69210460       0.03369881
C       -0.83423185      -0.57931457      -0.03966322
N        0.44166386      -1.12186905      -0.07113832
C        1.23420361      -0.11075659      -0.06436551
N        1.25648539       1.10577706       0.15919890
H       -1.89477609       1.06016217      -0.01054132
H       -1.63976806      -1.27280481      -0.26786289
H        2.39126379       0.22670119       0.26067354
8
Frame=6 idx=003776 GeodesicLength=0.3029008190267166 rxn_smarts="[n:1]1([H:6])[c:2]([H:7])[n:3][c:4]([H:8])[n:5]1>>[N:1](=[C:2]([N:3]=[C:4]=[N:5][H:8])[H:7])[H:6]"
N       -0.94484465       0.68911960       0.03661943
C       -0.83637585      -0.58592941      -0.03334468
N        0.43744403      -1.12646178      -0.07280759
C        1.23820628      -0.12125296      -0.07657929
N        1.24266388       1.09769906       0.14616692
H       -1.88044025       1.06818157      -0.00431513
H       -1.64542999      -1.27076815      -0.27372866
H        2.38877655       0.24941207       0.27798900
8
Frame=7 idx=003776 GeodesicLength=0.3537272462813062 rxn_smarts="[n:1]1([H:6])[c:2]([H:7])[n:3][c:4]([H:8])[n:5]1>>[N:1](=[C:2]([N:3]=[C:4]=[N:5][H:8])[H:7])[H:6]"
N       -0.93470493       0.68609026       0.03891733
C       -0.83844393      -0.59244139      -0.02810474
N        0.43317053      -1.13122194      -0.07464776
C        1.24239733      -0.13230053      -0.08665306
N        1.22938866       1.08960939       0.13073955
H       -1.86594156       1.07603415       0.00377757
H       -1.65105990      -1.26849582      -0.27997999
H        2.38519381       0.27272588       0.29595110
8
Frame=8 idx=003776 GeodesicLength=0.40460536476942194 rxn_smarts="[n:1]1([H:6])[c:2]([H:7])[n:3][c:4]([H:8])[n:5]1>>[N:1](=[C:2]([N:3]=[C:4]=[N:5][H:8])[H:7])[H:6]"
N       -0.92441440       0.68291642       0.04152546
C       -0.84050131      -0.59891950      -0.02372023
N        0.42879474      -1.13627981      -0.07582350
C        1.24676828      -0.14402907      -0.09458426
N        1.21665460       1.08144369       0.11236026
H       -1.85114228       1.08377145       0.01360140
H       -1.65655703      -1.26580105      -0.28762826
H        2.38039740       0.29689787       0.31426914
8
Frame=9 idx=003776 GeodesicLength=0.45556229760734734 rxn_smarts="[n:1]1([H:6])[c:2]([H:7])[n:3][c:4]([H:8])[n:5]1>>[N:1](=[C:2]([N:3]=[C:4]=[N:5][H:8])[H:7])[H:6]"
N       -0.91406529       0.67961702       0.04443732
C       -0.84255798      -0.60537067      -0.01981345
N        0.42434832      -1.14145279      -0.07746326
C        1.25122774      -0.15612895      -0.10063565
N        1.20433603       1.07295464       0.09350806
H       -1.83604363       1.09143487       0.02349537
H       -1.66208144      -1.26286491      -0.29533961
H        2.37483624       0.32181080       0.33181121
8
Frame=10 idx=003776 GeodesicLength=0.5065705414969707 rxn_smarts="[n:1]1([H:6])[c:2]([H:7])[n:3][c:4]([H:8])[n:5]1>>[N:1](=[C:2]([N:3]=[C:4]=[N:5][H:8])[H:7])[H:6]"
N       -0.90368350       0.67617206       0.04782936
C       -0.84470712      -0.61180848      -0.01641074
N        0.41976019      -1.14683960      -0.07849189
C        1.25573489      -0.16870106      -0.10458697
N        1.19239558       1.06402925       0.07415038
H       -1.82066703       1.09903076       0.03370920
H       -1.66752701      -1.25955137      -0.30406646
H        2.36869400       0.34766845       0.34786713
8
Frame=11 idx=003776 GeodesicLength=0.5576484771357374 rxn_smarts="[n:1]1([H:6])[c:2]([H:7])[n:3][c:4]([H:8])[n:5]1>>[N:1](=[C:2]([N:3]=[C:4]=[N:5][H:8])[H:7])[H:6]"
N       -0.89322342       0.67259112       0.05153672
C       -0.84700127      -0.61822637      -0.01366636
N        0.41498267      -1.15253936      -0.07821577
C        1.26029231      -0.18190419      -0.10618947
N        1.18085787       1.05458836       0.05329637
H       -1.80498563       1.10653429       0.04514888
H       -1.67278158      -1.25572895      -0.31457857
H        2.36185904       0.37468511       0.36266821
8
Frame=12 idx=003776 GeodesicLength=0.6088183929476143 rxn_smarts="[n:1]1([H:6])[c:2]([H:7])[n:3][c:4]([H:8])[n:5]1>>[N:1](=[C:2]([N:3]=[C:4]=[N:5][H:8])[H:7])[H:6]"
N       -0.88249864       0.66873350       0.05681586
C       -0.84949452      -0.62469585      -0.01163117
N        0.40994824      -1.15883873      -0.07557035
C        1.26493360      -0.19613593      -0.10493290
N        1.16978838       1.04442655       0.02813508
H       -1.78872165       1.11394511       0.05882581
H       -1.67759552      -1.25092607      -0.32862913
H        2.35364010       0.40349141       0.37698681
8
Frame=13 idx=003776 GeodesicLength=0.6600600342490065 rxn_smarts="[n:1]1([H:6])[c:2]([H:7])[n:3][c:4]([H:8])[n:5]1>>[N:1](=[C:2]([N:3]=[C:4]=[N:5][H:8])[H:7])[H:6]"
N       -0.87158518       0.66466218       0.06312872
C       -0.85215055      -0.63117248      -0.01012057
N        0.40470564      -1.16548420      -0.07198995
C        1.26958541      -0.21099941      -0.10098516
N        1.15907655       1.03328232       0.00119828
H       -1.77195734       1.12126035       0.07340476
H       -1.68210893      -1.24537649      -0.34457556
H        2.34443440       0.43382773       0.38993948
8
Frame=14 idx=003776 GeodesicLength=0.7113747349595559 rxn_smarts="[n:1]1([H:6])[c:2]([H:7])[n:3][c:4]([H:8])[n:5]1>>[N:1](=[C:2]([N:3]=[C:4]=[N:5][H:8])[H:7])[H:6]"
N       -0.86050290       0.66040565       0.07014700
C       -0.85499303      -0.63762907      -0.00912408
N        0.39924270      -1.17243128      -0.06746368
C        1.27418113      -0.22638677      -0.09415995
N        1.14866653       1.02095351      -0.02692112
H       -1.75472683       1.12845400       0.08889213
H       -1.68623930      -1.23905698      -0.36238287
H        2.33437169       0.46569096       0.40101256
8
Frame=15 idx=003776 GeodesicLength=0.7627441632764899 rxn_smarts="[n:1]1([H:6])[c:2]([H:7])[n:3][c:4]([H:8])[n:5]1>>[N:1](=[C:2]([N:3]=[C:4]=[N:5][H:8])[H:7])[H:6]"
N       -0.84933834       0.65603895       0.07719996
C       -0.85797150      -0.64402339      -0.00852038
N        0.39363076      -1.17947414      -0.06294476
C        1.27864872      -0.24194085      -0.08471230
N        1.13853022       1.00744638      -0.05467763
H       -1.73715617       1.13549350       0.10466762
H       -1.69007234      -1.23219690      -0.38092241
H        2.32372865       0.49865644       0.40990991
8
Frame=16 idx=003776 GeodesicLength=0.8140847559799353 rxn_smarts="[n:1]1([H:6])[c:2]([H:7])[n:3][c:4]([H:8])[n:5]1>>[N:1](=[C:2]([N:3]=[C:4]=[N:5][H:8])[H:7])[H:6]"
N       -0.83845157       0.65175025       0.08289285
C       -0.86096759      -0.65027197      -0.00805379
N        0.38807633      -1.18608262      -0.06046907
C        1.28287985      -0.25685301      -0.07389502
N        1.12861675       0.99342880      -0.07785212
H       -1.71974917       1.14233024       0.11872684
H       -1.69404939      -1.22561222      -0.39733101
H        2.31364479       0.53131053       0.41598133
