19
Frame=0 idx=011137 GeodesicLength=0.0 rxn_smarts="[C:1]([C:2]([O:3][C:4]([C:5]1([H:15])[C:6]([H:16])([H:17])[C:7]1([H:18])[H:19])([H:13])[H:14])([H:11])[H:12])([H:8])([H:9])[H:10]>>[C:1]([C:2]([O:3][C:4](=[C:5]([H:14])[H:15])[H:13])([H:11])[H:12])([H:8])([H:9])[H:10].[C:6](=[C:7]([H:18])[H:19])([H:16])[H:17]"
C        3.19842362       0.50442141       0.33394390
C        2.13151590      -0.33712058      -0.31971224
O        0.88265524      -0.04321967       0.30572317
C       -0.19030059      -0.61963119      -0.24172064
C       -1.44567079      -0.62089593       0.42091780
C       -2.76065465      -0.12739210      -0.30145293
C       -2.65044483       1.25004080       0.09290219
H        4.16742367       0.29818933      -0.12290307
H        2.97739827       1.56539785       0.21513330
H        3.26388292       0.28173523       1.39926215
H        2.33925631      -1.40625124      -0.20274265
H        2.05492081      -0.11878018      -1.39117270
H       -0.13145652      -0.89548903      -1.29168441
H       -1.02650263      -1.75586674       0.25387344
H       -1.42841908      -0.46787405       1.49244493
H       -2.69157710      -0.36247645      -1.36388550
H       -3.61461069      -0.65438595       0.11885766
H       -1.92484525       1.89902995      -0.37812347
H       -3.15099464       1.61056863       0.98033908
19
Frame=1 idx=011137 GeodesicLength=0.09430841422934895 rxn_smarts="[C:1]([C:2]([O:3][C:4]([C:5]1([H:15])[C:6]([H:16])([H:17])[C:7]1([H:18])[H:19])([H:13])[H:14])([H:11])[H:12])([H:8])([H:9])[H:10]>>[C:1]([C:2]([O:3][C:4](=[C:5]([H:14])[H:15])[H:13])([H:11])[H:12])([H:8])([H:9])[H:10].[C:6](=[C:7]([H:18])[H:19])([H:16])[H:17]"
C        3.18307419       0.52238633       0.32735178
C        2.12536930      -0.33511216      -0.32086131
O        0.87692683      -0.06287370       0.31301323
C       -0.18993782      -0.66148813      -0.22783586
C       -1.44648468      -0.64065438       0.43008727
C       -2.76840395      -0.11023871      -0.31402912
C       -2.61381489       1.25429953       0.10097349
H        4.15208542       0.33372883      -0.13703465
H        2.94340275       1.57979889       0.21258659
H        3.25951288       0.29843347       1.39168664
H        2.35088903      -1.40127949      -0.20817565
H        2.04016611      -0.11530501      -1.39154845
H       -0.13082000      -0.93894511      -1.27771090
H       -1.02794682      -1.79000620       0.26806678
H       -1.43619304      -0.49439499       1.50271388
H       -2.67668227      -0.33944683      -1.37557499
H       -3.64409877      -0.61690907       0.08526895
H       -1.86676083       1.89082051      -0.35319498
H       -3.13028345       1.62718624       0.97421732
19
Frame=2 idx=011137 GeodesicLength=0.18876641987861265 rxn_smarts="[C:1]([C:2]([O:3][C:4]([C:5]1([H:15])[C:6]([H:16])([H:17])[C:7]1([H:18])[H:19])([H:13])[H:14])([H:11])[H:12])([H:8])([H:9])[H:10]>>[C:1]([C:2]([O:3][C:4](=[C:5]([H:14])[H:15])[H:13])([H:11])[H:12])([H:8])([H:9])[H:10].[C:6](=[C:7]([H:18])[H:19])([H:16])[H:17]"
C        3.16708699       0.54011356       0.32043834
C        2.11850562      -0.33296394      -0.32213428
O        0.87122865      -0.08250419       0.32084268
C       -0.18951745      -0.70280593      -0.21308930
C       -1.44712386      -0.66055245       0.43966659
C       -2.77508840      -0.09219284      -0.32740831
C       -2.57717705       1.25733720       0.10950442
H        4.13550522       0.36911636      -0.15198592
H        2.90886403       1.59368592       0.21026181
H        3.25505005       0.31478215       1.38360740
H        2.36167760      -1.39592561      -0.21423790
H        2.02409359      -0.11150434      -1.39188911
H       -0.13011149      -0.98219557      -1.26280994
H       -1.02831576      -1.82429421       0.28347219
H       -1.44446889      -0.52072493       1.51326067
H       -2.65952162      -0.31660463      -1.38723848
H       -3.67209601      -0.57756965       0.04972544
H       -1.80960047       1.88116763      -0.32773016
H       -3.10899077       1.64363545       0.96774384
19
Frame=3 idx=011137 GeodesicLength=0.2834115064957968 rxn_smarts="[C:1]([C:2]([O:3][C:4]([C:5]1([H:15])[C:6]([H:16])([H:17])[C:7]1([H:18])[H:19])([H:13])[H:14])([H:11])[H:12])([H:8])([H:9])[H:10]>>[C:1]([C:2]([O:3][C:4](=[C:5]([H:14])[H:15])[H:13])([H:11])[H:12])([H:8])([H:9])[H:10].[C:6](=[C:7]([H:18])[H:19])([H:16])[H:17]"
C        3.15050165       0.55758027       0.31319199
C        2.11093495      -0.33070610      -0.32351441
O        0.86557577      -0.10200136       0.32914353
C       -0.18903702      -0.74347422      -0.19756464
C       -1.44758199      -0.68058765       0.44963220
C       -2.78070433      -0.07326065      -0.34161463
C       -2.54070061       1.25912394       0.11857184
H        4.11772336       0.40421710      -0.16769649
H        2.87390148       1.60704152       0.20804899
H        3.25047647       0.33086829       1.37502241
H        2.37155681      -1.39022671      -0.22081473
H        2.00676602      -0.10751754      -1.39218507
H       -0.12932639      -1.02513347      -1.24705143
H       -1.02747976      -1.85869593       0.30008603
H       -1.45319435      -0.54686492       1.52405462
H       -2.64013907      -0.29400557      -1.39881345
H       -3.69851233      -0.53634136       0.01210963
H       -1.75355938       1.87017138      -0.30162251
H       -3.08720128       1.65981298       0.96101611
19
Frame=4 idx=011137 GeodesicLength=0.37830498839517657 rxn_smarts="[C:1]([C:2]([O:3][C:4]([C:5]1([H:15])[C:6]([H:16])([H:17])[C:7]1([H:18])[H:19])([H:13])[H:14])([H:11])[H:12])([H:8])([H:9])[H:10]>>[C:1]([C:2]([O:3][C:4](=[C:5]([H:14])[H:15])[H:13])([H:11])[H:12])([H:8])([H:9])[H:10].[C:6](=[C:7]([H:18])[H:19])([H:16])[H:17]"
C        3.13337500       0.57474562       0.30561638
C        2.10268127      -0.32835394      -0.32499152
O        0.85998265      -0.12124857       0.33783866
C       -0.18849042      -0.78337779      -0.18135136
C       -1.44784264      -0.70073967       0.45997614
C       -2.78527930      -0.05346750      -0.35667176
C       -2.50458449       1.25963540       0.12821948
H        4.09880111       0.43888750      -0.18409596
H        2.83866321       1.61984248       0.20588906
H        3.24577952       0.34671517       1.36593712
H        2.38046580      -1.38421628      -0.22782947
H        1.98827317      -0.10343049      -1.39242820
H       -0.12846482      -1.06763424      -1.23051900
H       -1.02529809      -1.89315171       0.31790324
H       -1.46229283      -0.57278620       1.53507641
H       -2.61863012      -0.27175199      -1.41024476
H       -3.72328810      -0.49322389      -0.02762617
H       -1.69886125       1.85792596      -0.27483087
H       -3.06498965       1.67563014       0.95413255
19
Frame=5 idx=011137 GeodesicLength=0.4731719066162446 rxn_smarts="[C:1]([C:2]([O:3][C:4]([C:5]1([H:15])[C:6]([H:16])([H:17])[C:7]1([H:18])[H:19])([H:13])[H:14])([H:11])[H:12])([H:8])([H:9])[H:10]>>[C:1]([C:2]([O:3][C:4](=[C:5]([H:14])[H:15])[H:13])([H:11])[H:12])([H:8])([H:9])[H:10].[C:6](=[C:7]([H:18])[H:19])([H:16])[H:17]"
C        3.11574297       0.59159288       0.29772695
C        2.09378569      -0.32596785      -0.32654421
O        0.85442695      -0.14009513       0.34674981
C       -0.18789304      -0.82242998      -0.16463098
C       -1.44793846      -0.72101436       0.47059583
C       -2.78874975      -0.03272749      -0.37257281
C       -2.46905971       1.25886309       0.13850028
H        4.07882818       0.47294831      -0.20101402
H        2.80328637       1.63208692       0.20357859
H        3.24084162       0.36248554       1.35640773
H        2.38835913      -1.37796485      -0.23507210
H        1.96880517      -0.09948334      -1.39264120
H       -0.12754402      -1.10960693      -1.21340279
H       -1.02165810      -1.92758564       0.33689025
H       -1.47170719      -0.59853949       1.54621790
H       -2.59518046      -0.24981642      -1.42139942
H       -3.74605233      -0.44823086      -0.06936386
H       -1.64574429       1.84454431      -0.24724741
H       -3.04254870       1.69094130       0.94722144
19
Frame=6 idx=011137 GeodesicLength=0.5682536653289094 rxn_smarts="[C:1]([C:2]([O:3][C:4]([C:5]1([H:15])[C:6]([H:16])([H:17])[C:7]1([H:18])[H:19])([H:13])[H:14])([H:11])[H:12])([H:8])([H:9])[H:10]>>[C:1]([C:2]([O:3][C:4](=[C:5]([H:14])[H:15])[H:13])([H:11])[H:12])([H:8])([H:9])[H:10].[C:6](=[C:7]([H:18])[H:19])([H:16])[H:17]"
C        3.09762202       0.60811881       0.28952415
C        2.08424633      -0.32352039      -0.32818974
O        0.84892478      -0.15857678       0.35592508
C       -0.18723089      -0.86064472      -0.14738395
C       -1.44785533      -0.74144324       0.48155095
C       -2.79117131      -0.01109453      -0.38934062
C       -2.43418365       1.25680334       0.14938809
H        4.05780466       0.50644945      -0.21850241
H        2.76776603       1.64379014       0.20123875
H        3.23572583       0.37808375       1.34640027
H        2.39525191      -1.37146571      -0.24265021
H        1.94831713      -0.09556485      -1.39280569
H       -0.12656579      -1.15102895      -1.19567457
H       -1.01648037      -1.96203153       0.35710661
H       -1.48140474      -0.62412278       1.55752968
H       -2.56984701      -0.22837189      -1.43224957
H       -3.76693311      -0.40120839      -0.11325328
H       -1.59422915       1.83006500      -0.21891671
H       -3.01975735       1.70576329       0.94030314
19
Frame=7 idx=011137 GeodesicLength=0.6635460962983621 rxn_smarts="[C:1]([C:2]([O:3][C:4]([C:5]1([H:15])[C:6]([H:16])([H:17])[C:7]1([H:18])[H:19])([H:13])[H:14])([H:11])[H:12])([H:8])([H:9])[H:10]>>[C:1]([C:2]([O:3][C:4](=[C:5]([H:14])[H:15])[H:13])([H:11])[H:12])([H:8])([H:9])[H:10].[C:6](=[C:7]([H:18])[H:19])([H:16])[H:17]"
C        3.07904356       0.62431753       0.28100066
C        2.07408488      -0.32104181      -0.32992400
O        0.84346225      -0.17660670       0.36527524
C       -0.18650467      -0.89798470      -0.12969770
C       -1.44760228      -0.76205230       0.49282552
C       -2.79252530       0.01148710      -0.40700383
C       -2.40013275       1.25344540       0.16091091
H        4.03579655       0.53929589      -0.23649636
H        2.73218698       1.65496557       0.19876022
H        3.23038518       0.39359117       1.33592509
H        2.40112150      -1.36476552      -0.25046522
H        1.92690700      -0.09179801      -1.39293487
H       -0.12553835      -1.19184679      -1.17742461
H       -1.00967128      -1.99647424       0.37857257
H       -1.49133127      -0.64957068       1.56899345
H       -2.54270739      -0.20743778      -1.44271015
H       -3.78577609      -0.35208057      -0.15933767
H       -1.54448403       1.81456704      -0.18974229
H       -2.99671449       1.71998939       0.93347304
19
Frame=8 idx=011137 GeodesicLength=0.7590859478265747 rxn_smarts="[C:1]([C:2]([O:3][C:4]([C:5]1([H:15])[C:6]([H:16])([H:17])[C:7]1([H:18])[H:19])([H:13])[H:14])([H:11])[H:12])([H:8])([H:9])[H:10]>>[C:1]([C:2]([O:3][C:4](=[C:5]([H:14])[H:15])[H:13])([H:11])[H:12])([H:8])([H:9])[H:10].[C:6](=[C:7]([H:18])[H:19])([H:16])[H:17]"
C        3.06003530       0.64018175       0.27216482
C        2.06333091      -0.31853909      -0.33174906
O        0.83803428      -0.19415130       0.37475001
C       -0.18570662      -0.93444194      -0.11162993
C       -1.44717340      -0.78285205       0.50442714
C       -2.79284341       0.03500594      -0.42557056
C       -2.36704203       1.24879001       0.17305593
H        4.01285176       0.57144867      -0.25495250
H        2.69660166       1.66562587       0.19612785
H        3.22480450       0.40900804       1.32499035
H        2.40597589      -1.35789012      -0.25849034
H        1.90464554      -0.08820215      -1.39303023
H       -0.12447070      -1.23201747      -1.15871109
H       -1.00112860      -2.03088484       0.40129944
H       -1.50143018      -0.67490391       1.58061031
H       -2.51393128      -0.18711756      -1.45271974
H       -3.80252053      -0.30072849      -0.20766368
H       -1.49661608       1.79811063      -0.15974164
H       -2.97341700       1.73355803       0.92683290
19
Frame=9 idx=011137 GeodesicLength=0.8545488730034496 rxn_smarts="[C:1]([C:2]([O:3][C:4]([C:5]1([H:15])[C:6]([H:16])([H:17])[C:7]1([H:18])[H:19])([H:13])[H:14])([H:11])[H:12])([H:8])([H:9])[H:10]>>[C:1]([C:2]([O:3][C:4](=[C:5]([H:14])[H:15])[H:13])([H:11])[H:12])([H:8])([H:9])[H:10].[C:6](=[C:7]([H:18])[H:19])([H:16])[H:17]"
C        3.04057388       0.65573174       0.26302242
C        2.05198879      -0.31604451      -0.33366886
O        0.83260241      -0.21121475       0.38427342
C       -0.18486029      -0.97007796      -0.09326149
C       -1.44663747      -0.80388688       0.51628379
C       -2.79195308       0.05963528      -0.44503861
C       -2.33504512       1.24284676       0.18574705
H        3.98897899       0.60292169      -0.27381987
H        2.66097770       1.67579925       0.19329268
H        3.21891775       0.42439714       1.31361252
H        2.40983703      -1.35087568      -0.26668719
H        1.88159205      -0.08486408      -1.39311438
H       -0.12338601      -1.27161369      -1.13962318
H       -0.99084530      -2.06520363       0.42534554
H       -1.51172452      -0.70019976       1.59230345
H       -2.48367421      -0.16739816      -1.46216583
H       -3.81663769      -0.24702393      -0.25806643
H       -1.45070123       1.78073309      -0.12885152
H       -2.95000368       1.74633806       0.92041648
19
Frame=10 idx=011137 GeodesicLength=0.9502163868843597 rxn_smarts="[C:1]([C:2]([O:3][C:4]([C:5]1([H:15])[C:6]([H:16])([H:17])[C:7]1([H:18])[H:19])([H:13])[H:14])([H:11])[H:12])([H:8])([H:9])[H:10]>>[C:1]([C:2]([O:3][C:4](=[C:5]([H:14])[H:15])[H:13])([H:11])[H:12])([H:8])([H:9])[H:10].[C:6](=[C:7]([H:18])[H:19])([H:16])[H:17]"
C        3.02070486       0.67095569       0.25356747
C        2.04008613      -0.31354920      -0.33569107
O        0.82716913      -0.22774298       0.39382163
C       -0.18393769      -1.00486407      -0.07461061
C       -1.44595055      -0.82517578       0.52845874
C       -2.78996251       0.08531631      -0.46544021
C       -2.30426513       1.23560758       0.19898707
H        3.96424634       0.63365822      -0.29307983
H        2.62539153       1.68550128       0.19023753
H        3.21273258       0.43974576       1.30178675
H        2.41270397      -1.34373908      -0.27504181
H        1.85779984      -0.08177030      -1.39318717
H       -0.12228006      -1.31056017      -1.12017748
H       -0.97868612      -2.09943895       0.45071402
H       -1.52212591      -0.72546520       1.60413752
H       -2.45204649      -0.14843467      -1.47104629
H       -3.82833115      -0.19081437      -0.31071779
H       -1.40684324       1.76248554      -0.09707776
H       -2.92640551       1.75828440       0.91435930
19
Frame=11 idx=011137 GeodesicLength=1.0460606588744084 rxn_smarts="[C:1]([C:2]([O:3][C:4]([C:5]1([H:15])[C:6]([H:16])([H:17])[C:7]1([H:18])[H:19])([H:13])[H:14])([H:11])[H:12])([H:8])([H:9])[H:10]>>[C:1]([C:2]([O:3][C:4](=[C:5]([H:14])[H:15])[H:13])([H:11])[H:12])([H:8])([H:9])[H:10].[C:6](=[C:7]([H:18])[H:19])([H:16])[H:17]"
C        3.00042649       0.68586399       0.24379665
C        2.02762493      -0.31105746      -0.33782275
O        0.82171492      -0.24373469       0.40336710
C       -0.18293639      -1.03883975      -0.05570172
C       -1.44512513      -0.84675160       0.54096359
C       -2.78683512       0.11210382      -0.48680796
C       -2.27480455       1.22708310       0.21272436
H        3.93867009       0.66366556      -0.31272379
H        2.58983871       1.69475758       0.18694831
H        3.20622891       0.45506227       1.28950459
H        2.41458801      -1.33649740      -0.28355480
H        1.83328911      -0.07892978      -1.39325398
H       -0.12116142      -1.34888552      -1.10039501
H       -0.96459331      -2.13356011       0.47744477
H       -1.53260655      -0.75074185       1.61612360
H       -2.41919111      -0.13031393      -1.47932275
H       -3.83738748      -0.13193029      -0.36565077
H       -1.36509898       1.74341194      -0.06438858
H       -2.90264113       1.76929412       0.90874915
19
Frame=12 idx=011137 GeodesicLength=1.1420261965395435 rxn_smarts="[C:1]([C:2]([O:3][C:4]([C:5]1([H:15])[C:6]([H:16])([H:17])[C:7]1([H:18])[H:19])([H:13])[H:14])([H:11])[H:12])([H:8])([H:9])[H:10]>>[C:1]([C:2]([O:3][C:4](=[C:5]([H:14])[H:15])[H:13])([H:11])[H:12])([H:8])([H:9])[H:10].[C:6](=[C:7]([H:18])[H:19])([H:16])[H:17]"
C        2.97972066       0.70048037       0.23366157
C        2.01460342      -0.30859890      -0.34007625
O        0.81621247      -0.25918322       0.41287075
C       -0.18185482      -1.07206177      -0.03654381
C       -1.44418481      -0.86867064       0.55381998
C       -2.78240818       0.14014372      -0.50918643
C       -2.24683566       1.21723814       0.22691806
H        3.91225339       0.69294636      -0.33278514
H        2.55429095       1.70360025       0.18332347
H        3.19936789       0.47042363       1.27673150
H        2.41550501      -1.32918487      -0.29218734
H        1.80808058      -0.07643329      -1.39334251
H       -0.12003581      -1.38665651      -1.08028868
H       -0.94852388      -2.16755792       0.50563730
H       -1.54315780      -0.77610300       1.62827960
H       -2.38512115      -0.11302664      -1.48688390
H       -3.84338834      -0.07002634      -0.42301336
H       -1.32563381       1.72349998      -0.03061593
H       -2.87889011       1.77917065       0.90368115
19
Frame=13 idx=011137 GeodesicLength=1.2379839396597911 rxn_smarts="[C:1]([C:2]([O:3][C:4]([C:5]1([H:15])[C:6]([H:16])([H:17])[C:7]1([H:18])[H:19])([H:13])[H:14])([H:11])[H:12])([H:8])([H:9])[H:10]>>[C:1]([C:2]([O:3][C:4](=[C:5]([H:14])[H:15])[H:13])([H:11])[H:12])([H:8])([H:9])[H:10].[C:6](=[C:7]([H:18])[H:19])([H:16])[H:17]"
C        2.95852290       0.71483339       0.22317059
C        2.00099186      -0.30616383      -0.34246455
O        0.81063867      -0.27418807       0.42235893
C       -0.18070449      -1.10464111      -0.01711932
C       -1.44316598      -0.89095737       0.56701296
C       -2.77653815       0.16955214      -0.53261353
C       -2.22036662       1.20611493       0.24139366
H        3.88491237       0.72161786      -0.35329026
H        2.51862231       1.71205192       0.17945659
H        3.19213890       0.48578906       1.26343767
H        2.41548318      -1.32178709      -0.30102732
H        1.78210074      -0.07420917      -1.39343318
H       -0.11891490      -1.42400642      -1.05982644
H       -0.93046256      -2.20132613       0.53534003
H       -1.55382095      -0.80157755       1.64058501
H       -2.35004125      -0.09673053      -1.49378911
H       -3.84593103      -0.00493557      -0.48266126
H       -1.28833435       1.70277736       0.00420387
H       -2.85513066       1.78778620       0.89926565
19
Frame=14 idx=011137 GeodesicLength=1.3340677442596598 rxn_smarts="[C:1]([C:2]([O:3][C:4]([C:5]1([H:15])[C:6]([H:16])([H:17])[C:7]1([H:18])[H:19])([H:13])[H:14])([H:11])[H:12])([H:8])([H:9])[H:10]>>[C:1]([C:2]([O:3][C:4](=[C:5]([H:14])[H:15])[H:13])([H:11])[H:12])([H:8])([H:9])[H:10].[C:6](=[C:7]([H:18])[H:19])([H:16])[H:17]"
C        2.93680530       0.72895724       0.21223722
C        1.98677517      -0.30378050      -0.34499906
O        0.80497339      -0.28873303       0.43182174
C       -0.17946235      -1.13662847       0.00260993
C       -1.44205982      -0.91368666       0.58061527
C       -2.76908950       0.20042012      -0.55716396
C       -2.19555907       1.19366300       0.25618819
H        3.85663444       0.74967108      -0.37432293
H        2.48279483       1.72015011       0.17518330
H        3.18450145       0.50127841       1.24955523
H        2.41452534      -1.31433280      -0.31001677
H        1.75534204      -0.07236824      -1.39355197
H       -0.11778507      -1.46099358      -1.03896987
H       -0.91033890      -2.23491069       0.56664143
H       -1.56455761      -0.82725799       1.65311561
H       -2.31389538      -0.08142720      -1.49994041
H       -3.84469598       0.06382108      -0.54497987
H       -1.25338710       1.68122680       0.04032243
H       -2.83152120       1.79493131       0.89565447
19
Frame=15 idx=011137 GeodesicLength=1.430271575714628 rxn_smarts="[C:1]([C:2]([O:3][C:4]([C:5]1([H:15])[C:6]([H:16])([H:17])[C:7]1([H:18])[H:19])([H:13])[H:14])([H:11])[H:12])([H:8])([H:9])[H:10]>>[C:1]([C:2]([O:3][C:4](=[C:5]([H:14])[H:15])[H:13])([H:11])[H:12])([H:8])([H:9])[H:10].[C:6](=[C:7]([H:18])[H:19])([H:16])[H:17]"
C        2.91449488       0.74289122       0.20079582
C        1.97191474      -0.30146834      -0.34769317
O        0.79919273      -0.30288402       0.44128494
C       -0.17812696      -1.16812658       0.02270037
C       -1.44088729      -0.93690220       0.59465930
C       -2.75984276       0.23290715      -0.58293639
C       -2.17248040       1.17988362       0.27122434
H        3.82732732       0.77718106      -0.39598467
H        2.44668496       1.72792208       0.17044594
H        3.17642697       0.51695153       1.23500621
H        2.41264010      -1.30683142      -0.31917225
H        1.72772696      -0.07095348      -1.39370512
H       -0.11663873      -1.49775645      -1.01764656
H       -0.88812914      -2.26825008       0.59962707
H       -1.57539743      -0.85320677       1.66589998
H       -2.27671320      -0.06714086      -1.50534214
H       -3.83918991       0.13652916      -0.61011205
H       -1.22081045       1.65886216       0.07794622
H       -2.80819241       1.80039221       0.89300214
19
Frame=16 idx=011137 GeodesicLength=1.5265399897369918 rxn_smarts="[C:1]([C:2]([O:3][C:4]([C:5]1([H:15])[C:6]([H:16])([H:17])[C:7]1([H:18])[H:19])([H:13])[H:14])([H:11])[H:12])([H:8])([H:9])[H:10]>>[C:1]([C:2]([O:3][C:4](=[C:5]([H:14])[H:15])[H:13])([H:11])[H:12])([H:8])([H:9])[H:10].[C:6](=[C:7]([H:18])[H:19])([H:16])[H:17]"
C        2.89155621       0.75665117       0.18881956
C        1.95640538      -0.29924920      -0.35054747
O        0.79325792      -0.31662589       0.45070648
C       -0.17669722      -1.19915903       0.04313257
C       -1.43965625      -0.96062041       0.60913609
C       -2.74864636       0.26715483      -0.60998481
C       -2.15122775       1.16479091       0.28636426
H        3.79698984       0.80411792      -0.41825660
H        2.41025527       1.73539151       0.16513660
H        3.16782376       0.53288733       1.21978221
H        2.40982946      -1.29931105      -0.32842996
H        1.69929027      -0.07004014      -1.39390205
H       -0.11547848      -1.53431625      -0.99587600
H       -0.86376685      -2.30123722       0.63427577
H       -1.58633375      -0.87946274       1.67892614
H       -2.23872975      -0.05401044      -1.51003823
H       -3.82891563       0.21338208      -0.67789524
H       -1.19066530       1.63570454       0.11715261
H       -2.78529076       1.80395208       0.89149806
