16
Frame=0 idx=006464 GeodesicLength=0.0 rxn_smarts="[C:1]([O:2][C:3]([C:4]([H:11])([H:12])[H:13])([C:5]([H:14])([H:15])[H:16])[C:6]#[N:7])([H:8])([H:9])[H:10]>>[C:1]([C:6]#[N:7])([H:8])([H:9])[H:10].[O:2]=[C:3]([C:4]([H:11])([H:12])[H:13])[C:5]([H:14])([H:15])[H:16]"
C        2.02419748       1.09676873       0.14057305
O        0.61920849       0.16684739      -0.95382924
C       -0.25821791      -0.54779506      -0.48299637
C       -1.51590975      -0.73360366      -1.25955766
C       -0.17859328      -1.17291847       0.86763890
C       -0.09586059       1.95601726       0.77683032
N       -1.22926488       1.95050318       1.02947767
H        2.08932851       2.03254798      -0.38763640
H        2.04142598       1.17031351       1.21370958
H        2.57427215       0.26869454      -0.28298938
H       -1.95266807      -1.72161780      -1.12091319
H       -1.36182594      -0.51062232      -2.31244487
H       -2.20271680       0.01361372      -0.84066482
H       -0.94296177      -0.70343751       1.49147720
H        0.79282361      -1.02709270       1.33188100
H       -0.40323719      -2.23821876       0.78944420
16
Frame=1 idx=006464 GeodesicLength=0.08243466744763878 rxn_smarts="[C:1]([O:2][C:3]([C:4]([H:11])([H:12])[H:13])([C:5]([H:14])([H:15])[H:16])[C:6]#[N:7])([H:8])([H:9])[H:10]>>[C:1]([C:6]#[N:7])([H:8])([H:9])[H:10].[O:2]=[C:3]([C:4]([H:11])([H:12])[H:13])[C:5]([H:14])([H:15])[H:16]"
C        2.01449869       1.10537895       0.13628330
O        0.64710852       0.12335577      -0.96002883
C       -0.26494657      -0.53740050      -0.46620841
C       -1.51700817      -0.72386263      -1.25319485
C       -0.18825857      -1.17990303       0.87748039
C       -0.09893348       1.93154252       0.72606752
N       -1.21879776       1.96622105       1.02738456
H        2.08764924       2.05038780      -0.37600407
H        2.04714766       1.16232586       1.21102688
H        2.59472968       0.30321647      -0.29793591
H       -1.93853424      -1.72135181      -1.13633558
H       -1.36401334      -0.48151900      -2.30198586
H       -2.21635909       0.00511456      -0.82420024
H       -0.95438018      -0.71635988       1.50352707
H        0.78189465      -1.04270090       1.34709440
H       -0.41179704      -2.24444523       0.78702963
16
Frame=2 idx=006464 GeodesicLength=0.1644474448761398 rxn_smarts="[C:1]([O:2][C:3]([C:4]([H:11])([H:12])[H:13])([C:5]([H:14])([H:15])[H:16])[C:6]#[N:7])([H:8])([H:9])[H:10]>>[C:1]([C:6]#[N:7])([H:8])([H:9])[H:10].[O:2]=[C:3]([C:4]([H:11])([H:12])[H:13])[C:5]([H:14])([H:15])[H:16]"
C        2.00443402       1.11398350       0.13044648
O        0.67324298       0.07952141      -0.96254238
C       -0.27048438      -0.52790591      -0.44930721
C       -1.51692286      -0.71426977      -1.24701614
C       -0.19908989      -1.18705454       0.88791772
C       -0.10098449       1.90622447       0.67948621
N       -1.20539675       1.98230908       1.02336072
H        2.08385130       2.06874842      -0.36444697
H        2.05472300       1.15361581       1.20627799
H        2.61296795       0.33953227      -0.31634255
H       -1.92270006      -1.72076723      -1.15316456
H       -1.36439991      -0.45146079      -2.29097744
H       -2.22917503      -0.00455047      -0.80817670
H       -0.96793923      -0.72948798       1.51493754
H        0.76894212      -1.05764337       1.36424636
H       -0.42106878      -2.25079490       0.78530093
16
Frame=3 idx=006464 GeodesicLength=0.24620247531203154 rxn_smarts="[C:1]([O:2][C:3]([C:4]([H:11])([H:12])[H:13])([C:5]([H:14])([H:15])[H:16])[C:6]#[N:7])([H:8])([H:9])[H:10]>>[C:1]([C:6]#[N:7])([H:8])([H:9])[H:10].[O:2]=[C:3]([C:4]([H:11])([H:12])[H:13])[C:5]([H:14])([H:15])[H:16]"
C        1.99412460       1.12258300       0.12316914
O        0.69772936       0.03570192      -0.96160371
C       -0.27490609      -0.51935777      -0.43228747
C       -1.51569428      -0.70483371      -1.24101667
C       -0.21100497      -1.19435303       0.89893624
C       -0.10208208       1.88019596       0.63701670
N       -1.18959456       1.99851513       1.01754531
H        2.07819673       2.08768183      -0.35260304
H        2.06433855       1.14397882       1.19942665
H        2.62869060       0.37757116      -0.33841776
H       -1.90543362      -1.71966605      -1.17102346
H       -1.36290485      -0.42091479      -2.27944694
H       -2.24102975      -0.01508350      -0.79293014
H       -0.98355675      -0.74282841       1.52570143
H        0.75406782      -1.07192936       1.38325473
H       -0.43094070      -2.25726120       0.78427896
16
Frame=4 idx=006464 GeodesicLength=0.3278241857538916 rxn_smarts="[C:1]([O:2][C:3]([C:4]([H:11])([H:12])[H:13])([C:5]([H:14])([H:15])[H:16])[C:6]#[N:7])([H:8])([H:9])[H:10]>>[C:1]([C:6]#[N:7])([H:8])([H:9])[H:10].[O:2]=[C:3]([C:4]([H:11])([H:12])[H:13])[C:5]([H:14])([H:15])[H:16]"
C        1.98365617       1.13118585       0.11456837
O        0.72072461      -0.00782705      -0.95744567
C       -0.27829701      -0.51174912      -0.41512130
C       -1.51335270      -0.69555539      -1.23519097
C       -0.22392210      -1.20178266       0.91051770
C       -0.10230853       1.85357621       0.59855352
N       -1.17186037       2.01467151       1.01007955
H        2.07091704       2.10719274      -0.34012949
H        2.07614342       1.13323561       1.19041296
H        2.64160029       0.41726517      -0.36430224
H       -1.88695415      -1.71790963      -1.18957121
H       -1.35945256      -0.39027920      -2.26744084
H       -2.25183452      -0.02621110      -0.77873757
H       -1.00112264      -0.75637685       1.53582565
H        0.73738089      -1.08559942       1.40401498
H       -0.44131784      -2.26383669       0.78396656
16
Frame=5 idx=006464 GeodesicLength=0.4093853726856611 rxn_smarts="[C:1]([O:2][C:3]([C:4]([H:11])([H:12])[H:13])([C:5]([H:14])([H:15])[H:16])[C:6]#[N:7])([H:8])([H:9])[H:10]>>[C:1]([C:6]#[N:7])([H:8])([H:9])[H:10].[O:2]=[C:3]([C:4]([H:11])([H:12])[H:13])[C:5]([H:14])([H:15])[H:16]"
C        1.97306160       1.13979940       0.10476618
O        0.74240161      -0.05087311      -0.95028843
C       -0.28074287      -0.50502790      -0.39777170
C       -1.50990827      -0.68642889      -1.22953268
C       -0.23776261      -1.20931078       0.92262452
C       -0.10174484       1.82651720       0.56389814
N       -1.15253013       2.03059283       1.00121918
H        2.06221598       2.12720641      -0.32674648
H        2.09021171       1.12131092       1.17913813
H        2.65134297       0.45848954      -0.39400822
H       -1.86741365      -1.71541301      -1.20851320
H       -1.35397648      -0.35988031      -2.25500784
H       -2.26150798      -0.03768077      -0.76581976
H       -1.02051531      -0.77012603       1.54530218
H        0.71897011      -1.09868001       1.42641049
H       -0.45210183      -2.27049550       0.78432949
16
Frame=6 idx=006464 GeodesicLength=0.4909503730506597 rxn_smarts="[C:1]([O:2][C:3]([C:4]([H:11])([H:12])[H:13])([C:5]([H:14])([H:15])[H:16])[C:6]#[N:7])([H:8])([H:9])[H:10]>>[C:1]([C:6]#[N:7])([H:8])([H:9])[H:10].[O:2]=[C:3]([C:4]([H:11])([H:12])[H:13])[C:5]([H:14])([H:15])[H:16]"
C        1.96237056       1.14843014       0.09389471
O        0.76293432      -0.09327085      -0.94031985
C       -0.28232726      -0.49911932      -0.38019026
C       -1.50537026      -0.67744487      -1.22403888
C       -0.25245493      -1.21691654       0.93523349
C       -0.10046587       1.79913091       0.53293398
N       -1.13194205       2.04621173       0.99107555
H        2.05228819       2.14761375      -0.31219021
H        2.10666162       1.10811840       1.16548636
H        2.65757909       0.50114990      -0.42754522
H       -1.84689640      -1.71214732      -1.22762967
H       -1.34643810      -0.32993180      -2.24220824
H       -2.27004266      -0.04932030      -0.75432643
H       -1.04161245      -0.78406113       1.55414373
H        0.69892921      -1.11122219       1.45033278
H       -0.46321302      -2.27722052       0.78534815
16
Frame=7 idx=006464 GeodesicLength=0.5725597610322565 rxn_smarts="[C:1]([O:2][C:3]([C:4]([H:11])([H:12])[H:13])([C:5]([H:14])([H:15])[H:16])[C:6]#[N:7])([H:8])([H:9])[H:10]>>[C:1]([C:6]#[N:7])([H:8])([H:9])[H:10].[O:2]=[C:3]([C:4]([H:11])([H:12])[H:13])[C:5]([H:14])([H:15])[H:16]"
C        1.95157375       1.15707403       0.08209544
O        0.78249149      -0.13490318      -0.92770187
C       -0.28312192      -0.49393350      -0.36233122
C       -1.49972884      -0.66858617      -1.21870421
C       -0.26793220      -1.22456700       0.94830467
C       -0.09854031       1.77154967       0.50548630
N       -1.11032846       2.06143655       0.97984238
H        2.04130940       2.16822203      -0.29628998
H        2.12555745       1.09368852       1.14930733
H        2.65991261       0.54509423      -0.46480437
H       -1.82541909      -1.70811108      -1.24675899
H       -1.33681212      -0.30056217      -2.22908299
H       -2.27742490      -0.06099586      -0.74435219
H       -1.06429481      -0.79816929       1.56233873
H        0.67732687      -1.12325528       1.47567224
H       -0.47456892      -2.28398150       0.78697873
16
Frame=8 idx=006464 GeodesicLength=0.6542485185878487 rxn_smarts="[C:1]([O:2][C:3]([C:4]([H:11])([H:12])[H:13])([C:5]([H:14])([H:15])[H:16])[C:6]#[N:7])([H:8])([H:9])[H:10]>>[C:1]([C:6]#[N:7])([H:8])([H:9])[H:10].[O:2]=[C:3]([C:4]([H:11])([H:12])[H:13])[C:5]([H:14])([H:15])[H:16]"
C        1.94064755       1.16571460       0.06952721
O        0.80122972      -0.17566779      -0.91257268
C       -0.28318817      -0.48937435      -0.34415275
C       -1.49296740      -0.65982793      -1.21352321
C       -0.28412933      -1.23223084       0.96179217
C       -0.09603130       1.74389728       0.48139265
N       -1.08787892       2.07619923       0.96770052
H        2.02944767       2.18877749      -0.27896342
H        2.14695074       1.07813062       1.13043655
H        2.65792705       0.59014146      -0.50559384
H       -1.80295201      -1.70331803      -1.26578959
H       -1.32509141      -0.27182488      -2.21566168
H       -2.28365580      -0.07261791      -0.73594753
H       -1.08844376      -0.81244097       1.56986750
H        0.65422571      -1.13481017       1.50231812
H       -0.48609032      -2.29074782       0.78916997
16
Frame=9 idx=006464 GeodesicLength=0.7360421430967474 rxn_smarts="[C:1]([O:2][C:3]([C:4]([H:11])([H:12])[H:13])([C:5]([H:14])([H:15])[H:16])[C:6]#[N:7])([H:8])([H:9])[H:10]>>[C:1]([C:6]#[N:7])([H:8])([H:9])[H:10].[O:2]=[C:3]([C:4]([H:11])([H:12])[H:13])[C:5]([H:14])([H:15])[H:16]"
C        1.92956311       1.17431570       0.05636912
O        0.81928986      -0.21547173      -0.89505400
C       -0.28258026      -0.48534328      -0.32562051
C       -1.48506863      -0.65113515      -1.20849271
C       -0.30098185      -1.23987968       0.97564211
C       -0.09299578       1.71629617       0.46049873
N       -1.06474263       2.09043169       0.95484978
H        2.01686325       2.20896263      -0.26026553
H        2.17087575       1.06168029       1.10871232
H        2.65120020       0.63604564      -0.54960746
H       -1.77942372      -1.69778583      -1.28466425
H       -1.31129300      -0.24369778      -2.20195871
H       -2.28874943      -0.08413658      -0.72912631
H       -1.11394530      -0.82687778       1.57669954
H        0.62968031      -1.14591317       1.53016025
H       -0.49769189      -2.29749114       0.79185762
16
Frame=10 idx=006464 GeodesicLength=0.8179753210699425 rxn_smarts="[C:1]([O:2][C:3]([C:4]([H:11])([H:12])[H:13])([C:5]([H:14])([H:15])[H:16])[C:6]#[N:7])([H:8])([H:9])[H:10]>>[C:1]([C:6]#[N:7])([H:8])([H:9])[H:10].[O:2]=[C:3]([C:4]([H:11])([H:12])[H:13])[C:5]([H:14])([H:15])[H:16]"
C        1.91828727       1.18282554       0.04282459
O        0.83678591      -0.25420762      -0.87525929
C       -0.28134822      -0.48174052      -0.30670443
C       -1.47601896      -0.64246494      -1.20359978
C       -0.31841962      -1.24749825       0.98978825
C       -0.08947885       1.68884187       0.44272253
N       -1.04106717       2.10412068       0.94139524
H        2.00370853       2.22844384      -0.24033153
H        2.19735475       1.04461215       1.08397806
H        2.63933245       0.68254335      -0.59645383
H       -1.75476297      -1.69152346      -1.30332359
H       -1.29545153      -0.21614478      -2.18797765
H       -2.29272083      -0.09551066      -0.72388256
H       -1.14066735      -0.84148887       1.58279893
H        0.60375555      -1.15661600       1.55906432
H       -0.50928894      -2.30419232       0.79496075
16
Frame=11 idx=006464 GeodesicLength=0.9000907743674198 rxn_smarts="[C:1]([O:2][C:3]([C:4]([H:11])([H:12])[H:13])([C:5]([H:14])([H:15])[H:16])[C:6]#[N:7])([H:8])([H:9])[H:10]>>[C:1]([C:6]#[N:7])([H:8])([H:9])[H:10].[O:2]=[C:3]([C:4]([H:11])([H:12])[H:13])[C:5]([H:14])([H:15])[H:16]"
C        1.90679026       1.19117202       0.02910971
O        0.85381440      -0.29177587      -0.85329959
C       -0.27953857      -0.47847224      -0.28738399
C       -1.46580913      -0.63376280      -1.19882769
C       -0.33637501      -1.25508120       1.00414948
C       -0.08551662       1.66162688       0.42796410
N       -1.01694448       2.11722817       0.92749753
H        1.99012222       2.24686559      -0.21948848
H        2.22635171       1.02735683       1.05609861
H        2.62196493       0.72928112      -0.64557560
H       -1.72888541      -1.68452650      -1.32174061
H       -1.27762281      -0.18907344      -2.17369703
H       -2.29558028      -0.10671758      -0.72018182
H       -1.16847920      -0.85630316       1.58811400
H        0.57650890      -1.16697943       1.58888327
H       -0.52080090      -2.31083838       0.79837811
16
Frame=12 idx=006464 GeodesicLength=0.9824271995687172 rxn_smarts="[C:1]([O:2][C:3]([C:4]([H:11])([H:12])[H:13])([C:5]([H:14])([H:15])[H:16])[C:6]#[N:7])([H:8])([H:9])[H:10]>>[C:1]([C:6]#[N:7])([H:8])([H:9])[H:10].[O:2]=[C:3]([C:4]([H:11])([H:12])[H:13])[C:5]([H:14])([H:15])[H:16]"
C        1.89505439       1.19927219       0.01543250
O        0.87046498      -0.32809779      -0.82930306
C       -0.27719223      -0.47545799      -0.26765707
C       -1.45444458      -0.62497041      -1.19417255
C       -0.35477537      -1.26262494       1.01863790
C       -0.08116383       1.63474950       0.41605082
N       -0.99239425       2.12968887       0.91348571
H        1.97622969       2.26389832      -0.19827139
H        2.25770987       1.01046947       1.02499290
H        2.59885511       0.77580011      -0.69625165
H       -1.70172366      -1.67677862      -1.33991566
H       -1.25788836      -0.16237458      -2.15910268
H       -2.29734195      -0.11772684      -0.71798644
H       -1.19725664      -0.87135602       1.59258715
H        0.54800841      -1.17707360       1.61947258
H       -0.53214158      -2.31741767       0.80200093
16
Frame=13 idx=006464 GeodesicLength=1.0650795421186636 rxn_smarts="[C:1]([O:2][C:3]([C:4]([H:11])([H:12])[H:13])([C:5]([H:14])([H:15])[H:16])[C:6]#[N:7])([H:8])([H:9])[H:10]>>[C:1]([C:6]#[N:7])([H:8])([H:9])[H:10].[O:2]=[C:3]([C:4]([H:11])([H:12])[H:13])[C:5]([H:14])([H:15])[H:16]"
C        1.88307402       1.20702933       0.00200229
O        0.88677751      -0.36307273      -0.80336735
C       -0.27436165      -0.47262191      -0.24749509
C       -1.44193270      -0.61600815      -1.18957307
C       -0.37356179      -1.27017829       1.03315297
C       -0.07640680       1.60823836       0.40700484
N       -0.96751039       2.14153884       0.89927381
H        1.96212192       2.27930188      -0.17722373
H        2.29130561       0.99448312       0.99057519
H        2.56985213       0.82166454      -0.74773057
H       -1.67319587      -1.66823127      -1.35782769
H       -1.23634578      -0.13587116      -2.14409055
H       -2.29801764      -0.12855462      -0.71719140
H       -1.22682710      -0.88670009       1.59617358
H        0.51832052      -1.18706611       1.65062190
H       -0.54329200      -2.32395173       0.80569486
16
Frame=14 idx=006464 GeodesicLength=1.1481088285016354 rxn_smarts="[C:1]([O:2][C:3]([C:4]([H:11])([H:12])[H:13])([C:5]([H:14])([H:15])[H:16])[C:6]#[N:7])([H:8])([H:9])[H:10]>>[C:1]([C:6]#[N:7])([H:8])([H:9])[H:10].[O:2]=[C:3]([C:4]([H:11])([H:12])[H:13])[C:5]([H:14])([H:15])[H:16]"
C        1.87085859       1.21436318      -0.01104108
O        0.90281031      -0.39666450      -0.77561680
C       -0.27109040      -0.46991289      -0.22689502
C       -1.42829885      -0.60680971      -1.18501346
C       -0.39267838      -1.27777023       1.04760872
C       -0.07128353       1.58215671       0.40067523
N       -0.94225214       2.15273096       0.88519697
H        1.94786584       2.29293716      -0.15707316
H        2.32681978       0.98000622       0.95281880
H        2.53500848       0.86632201      -0.79916490
H       -1.64326488      -1.65883926      -1.37548684
H       -1.21310107      -0.10943182      -2.12861790
H       -2.29762100      -0.13916373      -0.71774194
H       -1.25707465      -0.90238316       1.59882444
H        0.48750836      -1.19708748       1.68218298
H       -0.55420647      -2.33045348       0.80934394
16
Frame=15 idx=006464 GeodesicLength=1.2316227059855824 rxn_smarts="[C:1]([O:2][C:3]([C:4]([H:11])([H:12])[H:13])([C:5]([H:14])([H:15])[H:16])[C:6]#[N:7])([H:8])([H:9])[H:10]>>[C:1]([C:6]#[N:7])([H:8])([H:9])[H:10].[O:2]=[C:3]([C:4]([H:11])([H:12])[H:13])[C:5]([H:14])([H:15])[H:16]"
C        1.85842437       1.22121005      -0.02362097
O        0.91860388      -0.42885803      -0.74612717
C       -0.26742563      -0.46729492      -0.20582344
C       -1.41355417      -0.59729986      -1.18044836
C       -0.41210584      -1.28546010       1.06193220
C       -0.06578725       1.55651467       0.39702284
N       -0.91659183       2.16324580       0.87141576
H        1.93348532       2.30479610      -0.13850398
H        2.36392700       0.96756601       0.91165415
H        2.49449356       0.90927261      -0.84979915
H       -1.61187992      -1.64853485      -1.39289055
H       -1.18823080      -0.08289900      -2.11259068
H       -2.29614896      -0.14953059      -0.71956801
H       -1.28790631      -0.91846765       1.60049453
H        0.45559084      -1.20730465       1.71401422
H       -0.56489425      -2.33695557       0.81283862
16
Frame=16 idx=006464 GeodesicLength=1.3157413513162508 rxn_smarts="[C:1]([O:2][C:3]([C:4]([H:11])([H:12])[H:13])([C:5]([H:14])([H:15])[H:16])[C:6]#[N:7])([H:8])([H:9])[H:10]>>[C:1]([C:6]#[N:7])([H:8])([H:9])[H:10].[O:2]=[C:3]([C:4]([H:11])([H:12])[H:13])[C:5]([H:14])([H:15])[H:16]"
C        1.84578386       1.22753348      -0.03574007
O        0.93420056      -0.45967691      -0.71493286
C       -0.26340918      -0.46474942      -0.18422792
C       -1.39769253      -0.58740395      -1.17582830
C       -0.43185315      -1.29331422       1.07607014
C       -0.05989755       1.53130487       0.39603426
N       -0.89047313       2.17305352       0.85811513
H        1.91896591       2.31498373      -0.12215499
H        2.40223577       0.95760318       0.86696709
H        2.44858697       0.95004716      -0.89898538
H       -1.57898450      -1.63724096      -1.41003112
H       -1.16177162      -0.05612665      -2.09590373
H       -2.29357815      -0.15961575      -0.72261844
H       -1.31926952      -0.93501413       1.60113788
H        0.42254817      -1.21788701       1.74601063
H       -0.57539192      -2.34349692       0.81608769
