18
Frame=0 idx=003413 GeodesicLength=0.0 rxn_smarts="[C:1]([C@@:2]1([H:10])[C:3]([H:11])([H:12])[C:4]([H:13])([H:14])[C@:5]1([C:6]([H:16])([H:17])[H:18])[H:15])([H:7])([H:8])[H:9]>>[C:1]([C:2]([C:3]([C:4]([C:5][C:6]([H:16])([H:17])[H:18])([H:13])[H:14])([H:11])[H:12])([H:10])[H:15])([H:7])([H:8])[H:9]"
C       -1.59005629       0.74092637       0.31867640
C       -0.70237829      -0.30549847       0.93825897
C       -0.43364319      -1.56228675       0.11478207
C        0.68652224      -1.03351045      -0.77749106
C        1.33229701      -0.04946872       0.18348672
C        1.52125498       1.32186127      -0.36646997
H       -1.53998794       1.68553121       0.86325942
H       -1.33474482       0.93469712      -0.72470720
H       -2.62992283       0.40238527       0.33844522
H       -0.97595731      -0.49047322       1.98118798
H       -0.06058986      -2.35531436       0.76402709
H       -1.31154360      -1.94102611      -0.41264441
H        0.26253862      -0.55442684      -1.67315221
H        1.39581380      -1.79127548      -1.11894835
H        0.47870729       0.00913112       1.19333778
H        0.73691830       1.69151642      -1.04465297
H        1.73402515       2.07058355       0.39757556
H        2.43074676       1.22664814      -0.97497104
18
Frame=1 idx=003413 GeodesicLength=0.060694167589789794 rxn_smarts="[C:1]([C@@:2]1([H:10])[C:3]([H:11])([H:12])[C:4]([H:13])([H:14])[C@:5]1([C:6]([H:16])([H:17])[H:18])[H:15])([H:7])([H:8])[H:9]>>[C:1]([C:2]([C:3]([C:4]([C:5][C:6]([H:16])([H:17])[H:18])([H:13])[H:14])([H:11])[H:12])([H:10])[H:15])([H:7])([H:8])[H:9]"
C       -1.59647058       0.73829954       0.32250939
C       -0.70066728      -0.30372478       0.94043827
C       -0.43580296      -1.56129592       0.11553769
C        0.68110330      -1.03008528      -0.77989441
C        1.32602554      -0.04489026       0.17778105
C        1.53270546       1.32118040      -0.37762845
H       -1.55285874       1.68226231       0.86879450
H       -1.34455419       0.93710423      -0.72079911
H       -2.63420699       0.39318897       0.34043629
H       -0.98360374      -0.49554958       1.97972733
H       -0.05956930      -2.35498948       0.76217805
H       -1.31471158      -1.93956345      -0.41052161
H        0.25572948      -0.55304478      -1.67568964
H        1.39658546      -1.78406740      -1.11779943
H        0.48893575       0.00583631       1.21596235
H        0.75906506       1.69155166      -1.06710230
H        1.72734675       2.06958204       0.39216695
H        2.45494856       1.22820547      -0.96609691
18
Frame=2 idx=003413 GeodesicLength=0.12140882834061215 rxn_smarts="[C:1]([C@@:2]1([H:10])[C:3]([H:11])([H:12])[C:4]([H:13])([H:14])[C@:5]1([C:6]([H:16])([H:17])[H:18])[H:15])([H:7])([H:8])[H:9]>>[C:1]([C:2]([C:3]([C:4]([C:5][C:6]([H:16])([H:17])[H:18])([H:13])[H:14])([H:11])[H:12])([H:10])[H:15])([H:7])([H:8])[H:9]"
C       -1.60305409       0.73560973       0.32653115
C       -0.69895905      -0.30191210       0.94266854
C       -0.43804452      -1.56021521       0.11619719
C        0.67564666      -1.02652289      -0.78230592
C        1.31946269      -0.04004481       0.17216348
C        1.54440316       1.32036541      -0.38887710
H       -1.56592922       1.67883255       0.87460917
H       -1.35457759       0.93957828      -0.71665506
H       -2.63858334       0.38385880       0.34266372
H       -0.99084371      -0.50055922       1.97830121
H       -0.05864109      -2.35462185       0.76015669
H       -1.31795385      -1.93797394      -0.40852278
H        0.24889445      -0.55152492      -1.67823562
H        1.39735070      -1.77662990      -1.11660745
H        0.49925732       0.00220834       1.23840899
H        0.78216177       1.69104646      -1.09029664
H        1.71992229       2.06893901       0.38598198
H        2.47948740       1.22956625      -0.95618157
18
Frame=3 idx=003413 GeodesicLength=0.182142058281421 rxn_smarts="[C:1]([C@@:2]1([H:10])[C:3]([H:11])([H:12])[C:4]([H:13])([H:14])[C@:5]1([C:6]([H:16])([H:17])[H:18])[H:15])([H:7])([H:8])[H:9]>>[C:1]([C:2]([C:3]([C:4]([C:5][C:6]([H:16])([H:17])[H:18])([H:13])[H:14])([H:11])[H:12])([H:10])[H:15])([H:7])([H:8])[H:9]"
C       -1.60981666       0.73285237       0.33074477
C       -0.69726423      -0.30006086       0.94494722
C       -0.44036383      -1.55904173       0.11676332
C        0.67014468      -1.02281091      -0.78473073
C        1.31261109      -0.03492305       0.16662199
C        1.55636616       1.31940529      -0.40020407
H       -1.57922093       1.67523118       0.88071518
H       -1.36482034       0.94212376      -0.71226654
H       -2.64305846       0.37438465       0.34511666
H       -0.99768445      -0.50550377       1.97691825
H       -0.05779077      -2.35420309       0.75796517
H       -1.32126446      -1.93626564      -0.40664087
H        0.24201981      -0.54984842      -1.68078906
H        1.39809682      -1.76894877      -1.11538740
H        0.50967844      -0.00175006       1.26067530
H        0.80627305       1.68995666      -1.11422192
H        1.71176755       2.06866372       0.37895139
H        2.50432655       1.23073866      -0.94517865
18
Frame=4 idx=003413 GeodesicLength=0.24289352418022447 rxn_smarts="[C:1]([C@@:2]1([H:10])[C:3]([H:11])([H:12])[C:4]([H:13])([H:14])[C@:5]1([C:6]([H:16])([H:17])[H:18])[H:15])([H:7])([H:8])[H:9]>>[C:1]([C:2]([C:3]([C:4]([C:5][C:6]([H:16])([H:17])[H:18])([H:13])[H:14])([H:11])[H:12])([H:10])[H:15])([H:7])([H:8])[H:9]"
C       -1.61676695       0.73002347       0.33515329
C       -0.69559230      -0.29817104       0.94727150
C       -0.44275718      -1.55777270       0.11723852
C        0.66458995      -1.01893831      -0.78717417
C        1.30547338      -0.02951691       0.16114399
C        1.56861471       1.31828581      -0.41159752
H       -1.59275208       1.67144804       0.88712363
H       -1.37528841       0.94474412      -0.70762572
H       -2.64763792       0.36475805       0.34778583
H       -1.00413237      -0.51038498       1.97558670
H       -0.05700501      -2.35372500       0.75560529
H       -1.32463814      -1.93444584      -0.40486946
H        0.23509250      -0.54799725      -1.68334920
H        1.39880968      -1.76101160      -1.11415474
H        0.52020717      -0.00603558       1.28275835
H        0.83146549       1.68823245      -1.13886209
H        1.70289771       2.06876516       0.37100271
H        2.52941977       1.23174211      -0.93303690
18
Frame=5 idx=003413 GeodesicLength=0.30366053229653794 rxn_smarts="[C:1]([C@@:2]1([H:10])[C:3]([H:11])([H:12])[C:4]([H:13])([H:14])[C@:5]1([C:6]([H:16])([H:17])[H:18])[H:15])([H:7])([H:8])[H:9]>>[C:1]([C:2]([C:3]([C:4]([C:5][C:6]([H:16])([H:17])[H:18])([H:13])[H:14])([H:11])[H:12])([H:10])[H:15])([H:7])([H:8])[H:9]"
C       -1.62391648       0.72711764       0.33976081
C       -0.69395265      -0.29624231       0.94963844
C       -0.44522024      -1.55640471       0.11762427
C        0.65897395      -1.01489169      -0.78964309
C        1.29804983      -0.02381503       0.15571567
C        1.58116565       1.31699518      -0.42304439
H       -1.60654346       1.66747190       0.89384517
H       -1.38599333       0.94744113      -0.70272460
H       -2.65232921       0.35496828       0.35066615
H       -1.01019342      -0.51520519       1.97431446
H       -0.05626810      -2.35317845       0.75307780
H       -1.32806907      -1.93252203      -0.40320218
H        0.22809810      -0.54595074      -1.68591639
H        1.39947658      -1.75280331      -1.11292591
H        0.53085131      -0.01064234       1.30465338
H        0.85780876       1.68581931      -1.16419793
H        1.69334310       2.06925102       0.36204930
H        2.55471867       1.23259133      -0.91969098
18
Frame=6 idx=003413 GeodesicLength=0.36444071644670145 rxn_smarts="[C:1]([C@@:2]1([H:10])[C:3]([H:11])([H:12])[C:4]([H:13])([H:14])[C@:5]1([C:6]([H:16])([H:17])[H:18])[H:15])([H:7])([H:8])[H:9]>>[C:1]([C:2]([C:3]([C:4]([C:5][C:6]([H:16])([H:17])[H:18])([H:13])[H:14])([H:11])[H:12])([H:10])[H:15])([H:7])([H:8])[H:9]"
C       -1.63127569       0.72412982       0.34457106
C       -0.69235501      -0.29427405       0.95204510
C       -0.44774933      -1.55493421       0.11792213
C        0.65328919      -1.01065792      -0.79214214
C        1.29033994      -0.01780634       0.15032587
C        1.59403723       1.31551982      -0.43452441
H       -1.62061356       1.66329136       0.90089046
H       -1.39694616       0.95021533      -0.69755514
H       -2.65713899       0.34500566       0.35375197
H       -1.01587541      -0.51996738       1.97310763
H       -0.05556657      -2.35255448       0.75038316
H       -1.33155161      -1.93050063      -0.40163420
H        0.22102455      -0.54368772      -1.68848916
H        1.40008452      -1.74430900      -1.11171518
H        0.54161823      -0.01556478       1.32635658
H        0.88538301       1.68265410      -1.19020419
H        1.68313320       2.07012575       0.35201112
H        2.58016245       1.23331468      -0.90510065
18
Frame=7 idx=003413 GeodesicLength=0.4252304124851054 rxn_smarts="[C:1]([C@@:2]1([H:10])[C:3]([H:11])([H:12])[C:4]([H:13])([H:14])[C@:5]1([C:6]([H:16])([H:17])[H:18])[H:15])([H:7])([H:8])[H:9]>>[C:1]([C:2]([C:3]([C:4]([C:5][C:6]([H:16])([H:17])[H:18])([H:13])[H:14])([H:11])[H:12])([H:10])[H:15])([H:7])([H:8])[H:9]"
C       -1.63885411       0.72105514       0.34958833
C       -0.69080737      -0.29226510       0.95448788
C       -0.45034095      -1.55335723       0.11813308
C        0.64752723      -1.00622453      -0.79467782
C        1.28234375      -0.01148053       0.14496113
C        1.60724911       1.31384298      -0.44602016
H       -1.63497863       1.65889498       0.90827002
H       -1.40815858       0.95306709      -0.69210906
H       -2.66207301       0.33486097       0.35703989
H       -1.02118379      -0.52467452       1.97197122
H       -0.05488709      -2.35184361       0.74752079
H       -1.33508102      -1.92838734      -0.40015995
H        0.21385902      -0.54118665      -1.69106741
H        1.40062013      -1.73551585      -1.11053769
H        0.55251709      -0.02079639       1.34786180
H        0.91426356       1.67867107      -1.21684846
H        1.67229238       2.07140011       0.34080240
H        2.60569227       1.23393942      -0.88921600
18
Frame=8 idx=003413 GeodesicLength=0.4860261187203846 rxn_smarts="[C:1]([C@@:2]1([H:10])[C:3]([H:11])([H:12])[C:4]([H:13])([H:14])[C@:5]1([C:6]([H:16])([H:17])[H:18])[H:15])([H:7])([H:8])[H:9]>>[C:1]([C:2]([C:3]([C:4]([C:5][C:6]([H:16])([H:17])[H:18])([H:13])[H:14])([H:11])[H:12])([H:10])[H:15])([H:7])([H:8])[H:9]"
C       -1.64666388       0.71788729       0.35481820
C       -0.68931785      -0.29021394       0.95696301
C       -0.45299151      -1.55166830       0.11825701
C        0.64167903      -1.00157629      -0.79725721
C        1.27405967      -0.00482295       0.13960733
C        1.62081889       1.31194746      -0.45751351
H       -1.64965576       1.65427015       0.91599426
H       -1.41964809       0.95599418      -0.68637662
H       -2.66713944       0.32452375       0.36053106
H       -1.02612298      -0.52933201       1.97091047
H       -0.05421521      -2.35103484       0.74448845
H       -1.33865278      -1.92618644      -0.39877492
H        0.20658770      -0.53842267      -1.69365110
H        1.40107012      -1.72640772      -1.10940897
H        0.56355731      -0.02632976       1.36916070
H        0.94454700       1.67378634      -1.24409910
H        1.66086205       2.07308233       0.32832608
H        2.63122575       1.23450342      -0.87197515
18
Frame=9 idx=003413 GeodesicLength=0.5468352599078563 rxn_smarts="[C:1]([C@@:2]1([H:10])[C:3]([H:11])([H:12])[C:4]([H:13])([H:14])[C@:5]1([C:6]([H:16])([H:17])[H:18])[H:15])([H:7])([H:8])[H:9]>>[C:1]([C:2]([C:3]([C:4]([C:5][C:6]([H:16])([H:17])[H:18])([H:13])[H:14])([H:11])[H:12])([H:10])[H:15])([H:7])([H:8])[H:9]"
C       -1.65473509       0.71461307       0.36027672
C       -0.68790286      -0.28811703       0.95947432
C       -0.45569533      -1.54985738       0.11829059
C        0.63573452      -0.99668119      -0.79988518
C        1.26546409       0.00220364       0.13425501
C        1.63475155       1.30984456      -0.46895308
H       -1.66468754       1.64939450       0.92408840
H       -1.43145975       0.95899130      -0.68034138
H       -2.67235672       0.31396897       0.36423912
H       -1.03070984      -0.53393983       1.96992484
H       -0.05352873      -2.35011301       0.74127954
H       -1.34225436      -1.92390218      -0.39748434
H        0.19919695      -0.53535086      -1.69623746
H        1.40142947      -1.71694332      -1.10834214
H        0.57472923      -0.03213648       1.39025395
H        0.97641564       1.66786092      -1.27188128
H        1.64890294       2.07508907       0.31440726
H        2.65670582       1.23507525      -0.85336492
18
Frame=10 idx=003413 GeodesicLength=0.6076465181784872 rxn_smarts="[C:1]([C@@:2]1([H:10])[C:3]([H:11])([H:12])[C:4]([H:13])([H:14])[C@:5]1([C:6]([H:16])([H:17])[H:18])[H:15])([H:7])([H:8])[H:9]>>[C:1]([C:2]([C:3]([C:4]([C:5][C:6]([H:16])([H:17])[H:18])([H:13])[H:14])([H:11])[H:12])([H:10])[H:15])([H:7])([H:8])[H:9]"
C       -1.66306188       0.71123406       0.36596145
C       -0.68656154      -0.28597255       0.96201103
C       -0.45845085      -1.54792321       0.11823411
C        0.62968542      -0.99153959      -0.80257273
C        1.25657111       0.00959373       0.12888387
C        1.64907443       1.30749010      -0.48034041
H       -1.68006382       1.64426474       0.93255114
H       -1.44359021       0.96205904      -0.67400105
H       -2.67772085       0.30320120       0.36815880
H       -1.03493581      -0.53850444       1.96902355
H       -0.05282082      -2.34907119       0.73789299
H       -1.34588846      -1.92153740      -0.39627837
H        0.19167458      -0.53196283      -1.69883134
H        1.40167746      -1.70713020      -1.10735714
H        0.58606366      -0.03822724       1.41112670
H        1.00987952       1.66084409      -1.30016542
H        1.63643081       2.07750136       0.29899220
H        2.68203727       1.23568033      -0.83328940
18
Frame=11 idx=003413 GeodesicLength=0.6684554399063931 rxn_smarts="[C:1]([C@@:2]1([H:10])[C:3]([H:11])([H:12])[C:4]([H:13])([H:14])[C@:5]1([C:6]([H:16])([H:17])[H:18])[H:15])([H:7])([H:8])[H:9]>>[C:1]([C:2]([C:3]([C:4]([C:5][C:6]([H:16])([H:17])[H:18])([H:13])[H:14])([H:11])[H:12])([H:10])[H:15])([H:7])([H:8])[H:9]"
C       -1.67165686       0.70774308       0.37187900
C       -0.68530071      -0.28377624       0.96456887
C       -0.46125383      -1.54585906       0.11808575
C        0.62352228      -0.98613360      -0.80532782
C        1.24737411       0.01736506       0.12347980
C        1.66380333       1.30486906      -0.49164804
H       -1.69580270       1.63886642       0.94139403
H       -1.45606268       0.96519259      -0.66734626
H       -2.68323867       0.29220779       0.37229625
H       -1.03880405      -0.54302730       1.96820933
H       -0.05207592      -2.34789675       0.73432430
H       -1.34954852      -1.91909595      -0.39515501
H        0.18400838      -0.52822936      -1.70143384
H        1.40180055      -1.69694911      -1.10647068
H        0.59757291      -0.04459046       1.43177011
H        1.04502499       1.65264394      -1.32889498
H        1.62348533       2.08031918       0.28198066
H        2.70715206       1.23635072      -0.81171148
18
Frame=12 idx=003413 GeodesicLength=0.7292634853160391 rxn_smarts="[C:1]([C@@:2]1([H:10])[C:3]([H:11])([H:12])[C:4]([H:13])([H:14])[C@:5]1([C:6]([H:16])([H:17])[H:18])[H:15])([H:7])([H:8])[H:9]>>[C:1]([C:2]([C:3]([C:4]([C:5][C:6]([H:16])([H:17])[H:18])([H:13])[H:14])([H:11])[H:12])([H:10])[H:15])([H:7])([H:8])[H:9]"
C       -1.68053517       0.70413302       0.37803792
C       -0.68412652      -0.28152285       0.96714369
C       -0.46409965      -1.54365717       0.11784220
C        0.61723492      -0.98044403      -0.80816073
C        1.23786498       0.02553868       0.11802536
C        1.67895583       1.30196362      -0.50284897
H       -1.71192410       1.63318521       0.95063020
H       -1.46890586       0.96838690      -0.66036711
H       -2.68891830       0.28097430       0.37666070
H       -1.04231603      -0.54751035       1.96748459
H       -0.05127692      -2.34657596       0.73056751
H       -1.35322863      -1.91658002      -0.39411336
H        0.17618473      -0.52411901      -1.70404805
H        1.40178546      -1.68637984      -1.10570218
H        0.60926956      -0.05121255       1.45217512
H        1.08195030       1.64314783      -1.35799442
H        1.61012606       2.08353214       0.26324393
H        2.73195933       1.23714008      -0.78857639
18
Frame=13 idx=003413 GeodesicLength=0.7900649680927748 rxn_smarts="[C:1]([C@@:2]1([H:10])[C:3]([H:11])([H:12])[C:4]([H:13])([H:14])[C@:5]1([C:6]([H:16])([H:17])[H:18])[H:15])([H:7])([H:8])[H:9]>>[C:1]([C:2]([C:3]([C:4]([C:5][C:6]([H:16])([H:17])[H:18])([H:13])[H:14])([H:11])[H:12])([H:10])[H:15])([H:7])([H:8])[H:9]"
C       -1.68971212       0.70039451       0.38444529
C       -0.68304658      -0.27920660       0.96972999
C       -0.46698373      -1.54130780       0.11750023
C        0.61081452      -0.97444924      -0.81107893
C        1.22803538       0.03413800       0.11250678
C        1.69455078       1.29875417      -0.51390776
H       -1.72844959       1.62720288       0.96027152
H       -1.48214693       0.97163504      -0.65305317
H       -2.69476845       0.26948418       0.38125856
H       -1.04547496      -0.55195677       1.96684925
H       -0.05040797      -2.34509246       0.72661601
H       -1.35692145      -1.91399069      -0.39315327
H        0.16819357      -0.51959685      -1.70667418
H        1.40162040      -1.67539917      -1.10506524
H        0.62116479      -0.05808066       1.47233185
H        1.12073956       1.63224920      -1.38737710
H        1.59642483       2.08713137       0.24266592
H        2.75636795       1.23809090      -0.76386574
18
Frame=14 idx=003413 GeodesicLength=0.8508625222835724 rxn_smarts="[C:1]([C@@:2]1([H:10])[C:3]([H:11])([H:12])[C:4]([H:13])([H:14])[C@:5]1([C:6]([H:16])([H:17])[H:18])[H:15])([H:7])([H:8])[H:9]>>[C:1]([C:2]([C:3]([C:4]([C:5][C:6]([H:16])([H:17])[H:18])([H:13])[H:14])([H:11])[H:12])([H:10])[H:15])([H:7])([H:8])[H:9]"
C       -1.69920484       0.69651892       0.39111182
C       -0.68206839      -0.27682171       0.97232390
C       -0.46990212      -1.53880120       0.11705399
C        0.60425005      -0.96812549      -0.81409263
C        1.21787220       0.04319066       0.10690777
C        1.71059945       1.29522373      -0.52478768
H       -1.74539943       1.62090246       0.97033424
H       -1.49582124       0.97493020      -0.64539198
H       -2.70079828       0.25772124       0.38610445
H       -1.04828203      -0.55637126       1.96630388
H       -0.04945230      -2.34343110       0.72245954
H       -1.36062067      -1.91132812      -0.39227780
H        0.16002233      -0.51462570      -1.70931546
H        1.40129309      -1.66398204      -1.10457776
H        0.63327193      -0.06518222       1.49223038
H        1.16150786       1.61980778      -1.41694008
H        1.58246007       2.09109919       0.22009662
H        2.78027233       1.23927465      -0.73754320
18
Frame=15 idx=003413 GeodesicLength=0.9116548813180831 rxn_smarts="[C:1]([C@@:2]1([H:10])[C:3]([H:11])([H:12])[C:4]([H:13])([H:14])[C@:5]1([C:6]([H:16])([H:17])[H:18])[H:15])([H:7])([H:8])[H:9]>>[C:1]([C:2]([C:3]([C:4]([C:5][C:6]([H:16])([H:17])[H:18])([H:13])[H:14])([H:11])[H:12])([H:10])[H:15])([H:7])([H:8])[H:9]"
C       -1.70902770       0.69249588       0.39804719
C       -0.68119802      -0.27436108       0.97491872
C       -0.47285139      -1.53612515       0.11649766
C        0.59753046      -0.96144824      -0.81721125
C        1.20736274       0.05272549       0.10121027
C        1.72711570       1.29135093      -0.53545132
H       -1.76278843       1.61426441       0.98083088
H       -1.50996187       0.97826071      -0.63737095
H       -2.70701492       0.24566873       0.39121316
H       -1.05073648      -0.56075717       1.96584615
H       -0.04839523      -2.34157281       0.71808737
H       -1.36432078      -1.90858976      -0.39148866
H        0.15165992      -0.50916769      -1.71197437
H        1.40079005      -1.65210223      -1.10425403
H        0.64560604      -0.07250546       1.51185629
H        1.20435902       1.60568640      -1.44656307
H        1.56830691       2.09541624       0.19539870
H        2.80356397       1.24076079      -0.70959274
18
Frame=16 idx=003413 GeodesicLength=0.9724534011970896 rxn_smarts="[C:1]([C@@:2]1([H:10])[C:3]([H:11])([H:12])[C:4]([H:13])([H:14])[C@:5]1([C:6]([H:16])([H:17])[H:18])[H:15])([H:7])([H:8])[H:9]>>[C:1]([C:2]([C:3]([C:4]([C:5][C:6]([H:16])([H:17])[H:18])([H:13])[H:14])([H:11])[H:12])([H:10])[H:15])([H:7])([H:8])[H:9]"
C       -1.71919429       0.68831929       0.40526819
C       -0.68043977      -0.27181895       0.97751065
C       -0.47582878      -1.53326796       0.11582081
C        0.59064350      -0.95439247      -0.82044927
C        1.19649230       0.06277230       0.09539268
C        1.74410459       1.28711682      -0.54585478
H       -1.78062491       1.60727348       0.99178399
H       -1.52460750       0.98162026      -0.62897385
H       -2.71342544       0.23331732       0.39661207
H       -1.05283410      -0.56512109       1.96547781
H       -0.04722132      -2.33950297       0.71348172
H       -1.36801867      -1.90576966      -0.39079315
H        0.14309359      -0.50318275      -1.71465860
H        1.40009811      -1.63973366      -1.10411670
H        0.65818646      -0.08004405       1.53119719
H        1.24943560       1.58970102      -1.47611649
H        1.55401999       2.10005211       0.16838036
H        2.82612063       1.24266095      -0.67996261
