15
Frame=0 idx=011148 GeodesicLength=0.0 rxn_smarts="[C:1]([C:2]([C@@:3]1([C:6]#[C:7][H:15])[C:4]([H:13])([H:14])[O:5]1)([H:11])[H:12])([H:8])([H:9])[H:10]>>[C:1]([C:2]([C:7](=[C:6]=[C:3]1[C:4]([H:13])([H:14])[O:5]1)[H:15])([H:11])[H:12])([H:8])([H:9])[H:10]"
C       -1.34072488      -0.98193926      -0.43893623
C       -0.23622849      -0.68991378       0.55035545
C        1.04821574       0.74233040       0.04952077
C        0.21791334       1.92373105       0.14041841
O        1.15080491       1.50073732       1.17867890
C        2.10500315       0.23450441      -0.80094722
C        1.38839229      -0.80762809      -0.48530337
H       -2.24440303      -1.29733276       0.08875830
H       -1.06866836      -1.77505333      -1.13619252
H       -1.59196359      -0.09821255      -1.02835348
H       -0.53985165       0.02140456       1.31333989
H        0.09668037      -1.56727176       1.10243288
H        0.53049003       2.80763543      -0.40483725
H       -0.82935786       1.86856553       0.41578384
H        1.31369797      -1.88155712      -0.54471838
15
Frame=1 idx=011148 GeodesicLength=0.12370206519498349 rxn_smarts="[C:1]([C:2]([C@@:3]1([C:6]#[C:7][H:15])[C:4]([H:13])([H:14])[O:5]1)([H:11])[H:12])([H:8])([H:9])[H:10]>>[C:1]([C:2]([C:7](=[C:6]=[C:3]1[C:4]([H:13])([H:14])[O:5]1)[H:15])([H:11])[H:12])([H:8])([H:9])[H:10]"
C       -1.34634851      -0.99493503      -0.43901656
C       -0.24075157      -0.69644008       0.54874020
C        1.04100045       0.75529520       0.05711739
C        0.22949806       1.94995292       0.14357327
O        1.15743363       1.52109407       1.18174951
C        2.07966157       0.23436470      -0.79742479
C        1.39826550      -0.82673353      -0.48431431
H       -2.24670733      -1.31998578       0.08826481
H       -1.06919600      -1.78317567      -1.13979048
H       -1.60586112      -0.11153056      -1.02537575
H       -0.55605251       0.00825862       1.31399158
H        0.08557158      -1.57210107       1.10835645
H        0.55193036       2.82667975      -0.40764123
H       -0.81840809       1.90886600       0.41940621
H        1.33996397      -1.89960955      -0.56763630
15
Frame=2 idx=011148 GeodesicLength=0.24744536289007374 rxn_smarts="[C:1]([C:2]([C@@:3]1([C:6]#[C:7][H:15])[C:4]([H:13])([H:14])[O:5]1)([H:11])[H:12])([H:8])([H:9])[H:10]>>[C:1]([C:2]([C:7](=[C:6]=[C:3]1[C:4]([H:13])([H:14])[O:5]1)[H:15])([H:11])[H:12])([H:8])([H:9])[H:10]"
C       -1.35195633      -1.00836612      -0.43907767
C       -0.24550249      -0.70313345       0.54732964
C        1.03302205       0.76874638       0.06522734
C        0.24146894       1.97698071       0.14679515
O        1.16445661       1.54216890       1.18479578
C        2.05277642       0.23345186      -0.79314414
C        1.40832325      -0.84644930      -0.48293569
H       -2.24890058      -1.34329821       0.08761406
H       -1.06947993      -1.79159657      -1.14334246
H       -1.61992352      -0.12543006      -1.02238124
H       -0.57281205      -0.00529958       1.31470157
H        0.07413617      -1.57702115       1.11450408
H        0.57409826       2.84580730      -0.41096954
H       -0.80684058       1.95074727       0.42333837
H        1.36713378      -1.91730797      -0.59245524
15
Frame=3 idx=011148 GeodesicLength=0.37123974036507834 rxn_smarts="[C:1]([C:2]([C@@:3]1([C:6]#[C:7][H:15])[C:4]([H:13])([H:14])[O:5]1)([H:11])[H:12])([H:8])([H:9])[H:10]>>[C:1]([C:2]([C:7](=[C:6]=[C:3]1[C:4]([H:13])([H:14])[O:5]1)[H:15])([H:11])[H:12])([H:8])([H:9])[H:10]"
C       -1.35756267      -1.02226947      -0.43909914
C       -0.25051451      -0.71002489       0.54615970
C        1.02421465       0.78270041       0.07391864
C        0.25387228       2.00483651       0.15004551
O        1.17187872       1.56398686       1.18781528
C        2.02428064       0.23170117      -0.78788568
C        1.41852808      -0.86677126      -0.48122352
H       -2.25099936      -1.36729142       0.08681799
H       -1.06953488      -1.80036381      -1.14680905
H       -1.63414638      -0.13996347      -1.01937353
H       -0.59016441      -0.01931297       1.31549427
H        0.06237726      -1.58207276       1.12087145
H        0.59707490       2.86495278      -0.41490268
H       -0.79457846       1.99432347       0.42753644
H        1.39527417      -1.93443115      -0.61936567
15
Frame=4 idx=011148 GeodesicLength=0.49510670382838595 rxn_smarts="[C:1]([C:2]([C@@:3]1([C:6]#[C:7][H:15])[C:4]([H:13])([H:14])[O:5]1)([H:11])[H:12])([H:8])([H:9])[H:10]>>[C:1]([C:2]([C:7](=[C:6]=[C:3]1[C:4]([H:13])([H:14])[O:5]1)[H:15])([H:11])[H:12])([H:8])([H:9])[H:10]"
C       -1.36319351      -1.03668543      -0.43905423
C       -0.25582502      -0.71715374       0.54526688
C        1.01450782       0.79717471       0.08327256
C        0.26676311       2.03353505       0.15327227
O        1.17968956       1.58656987       1.19081054
C        1.99413495       0.22906712      -0.78136715
C        1.42881882      -0.88768686      -0.47929023
H       -2.25303471      -1.39197580       0.08590050
H       -1.06939768      -1.80953901      -1.15013890
H       -1.64852744      -0.15518735      -1.01635646
H       -0.60814133      -0.03383765       1.31640213
H        0.05030959      -1.58731124       1.12744287
H        0.62095906       2.88403261      -0.41953094
H       -0.78153185       2.03970966       0.43192517
H        1.42446864      -1.95071193      -0.64855500
15
Frame=5 idx=011148 GeodesicLength=0.6190176722120688 rxn_smarts="[C:1]([C:2]([C@@:3]1([C:6]#[C:7][H:15])[C:4]([H:13])([H:14])[O:5]1)([H:11])[H:12])([H:8])([H:9])[H:10]>>[C:1]([C:2]([C:7](=[C:6]=[C:3]1[C:4]([H:13])([H:14])[O:5]1)[H:15])([H:11])[H:12])([H:8])([H:9])[H:10]"
C       -1.36888543      -1.05165840      -0.43890415
C       -0.26147545      -0.72456834       0.54468485
C        1.00383065       0.81218189       0.09338746
C        0.28019967       2.06308375       0.15640441
O        1.18785476       1.60993777       1.19380471
C        1.96237593       0.22547849      -0.77323843
C        1.43910209      -0.90914466      -0.47730183
H       -2.25504377      -1.41736083       0.08490949
H       -1.06912875      -1.81919200      -1.15326744
H       -1.66307162      -0.17116078      -1.01332527
H       -0.62676939      -0.04895205       1.31746408
H        0.03795862      -1.59280698       1.13417902
H        0.64586742       2.90293969      -0.42495738
H       -0.76761183       2.08702988       0.43637921
H        1.45479710      -1.96580744      -0.68021872
15
Frame=6 idx=011148 GeodesicLength=0.7430223368858315 rxn_smarts="[C:1]([C:2]([C@@:3]1([C:6]#[C:7][H:15])[C:4]([H:13])([H:14])[O:5]1)([H:11])[H:12])([H:8])([H:9])[H:10]>>[C:1]([C:2]([C:7](=[C:6]=[C:3]1[C:4]([H:13])([H:14])[O:5]1)[H:15])([H:11])[H:12])([H:8])([H:9])[H:10]"
C       -1.37469797      -1.06723319      -0.43860135
C       -0.26750767      -0.73232986       0.54444866
C        0.99210397       0.82773925       0.10438212
C        0.29425562       2.09347450       0.15934692
O        1.19629879       1.63410785       1.19682345
C        1.92906453       0.22092933      -0.76303811
C        1.44926083      -0.93109143      -0.47552916
H       -2.25709625      -1.44342866       0.08391124
H       -1.06883245      -1.82941269      -1.15611842
H       -1.67779049      -0.18794264      -1.01027272
H       -0.64606286      -0.06475607       1.31874047
H        0.02537765      -1.59865738       1.14102739
H        0.67194994       2.92154215      -0.43128812
H       -0.75270389       2.13639700       0.44070544
H        1.48638024      -1.97933815      -0.71453782
15
Frame=7 idx=011148 GeodesicLength=0.867093353678542 rxn_smarts="[C:1]([C:2]([C@@:3]1([C:6]#[C:7][H:15])[C:4]([H:13])([H:14])[O:5]1)([H:11])[H:12])([H:8])([H:9])[H:10]>>[C:1]([C:2]([C:7](=[C:6]=[C:3]1[C:4]([H:13])([H:14])[O:5]1)[H:15])([H:11])[H:12])([H:8])([H:9])[H:10]"
C       -1.38070047      -1.08345571      -0.43808189
C       -0.27396787      -0.74051086       0.54459308
C        0.97924908       0.84385605       0.11639602
C        0.30900646       2.12468543       0.16197665
O        1.20490410       1.65909751       1.19992724
C        1.89436745       0.21537655      -0.75024096
C        1.45914800      -0.95342131      -0.47428563
H       -2.25926328      -1.47016991       0.08300022
H       -1.06863437      -1.84028524      -1.15860813
H       -1.69271000      -0.20558657      -1.00716843
H       -0.66602687      -0.08138155       1.32030633
H        0.01262643      -1.60498121       1.14791093
H        0.69938491       2.93967334      -0.43863929
H       -0.73670173       2.18793260       0.44462682
H        1.51931817      -1.99082911      -0.75171295
15
Frame=8 idx=011148 GeodesicLength=0.9911987257015983 rxn_smarts="[C:1]([C:2]([C@@:3]1([C:6]#[C:7][H:15])[C:4]([H:13])([H:14])[O:5]1)([H:11])[H:12])([H:8])([H:9])[H:10]>>[C:1]([C:2]([C:7](=[C:6]=[C:3]1[C:4]([H:13])([H:14])[O:5]1)[H:15])([H:11])[H:12])([H:8])([H:9])[H:10]"
C       -1.38697660      -1.10038325      -0.43727220
C       -0.28090131      -0.74920621       0.54515586
C        0.96518611       0.86053086       0.12959094
C        0.32453266       2.15671048       0.16413985
O        1.21351320       1.68494351       1.20323392
C        1.85854624       0.20866561      -0.73425516
C        1.46859063      -0.97595696      -0.47394159
H       -2.26160749      -1.49762045       0.08230047
H       -1.06869159      -1.85188622      -1.16068025
H       -1.70789463      -0.22413396      -1.00395375
H       -0.68664931      -0.09900433       1.32226110
H       -0.00021888      -1.61194147       1.15473630
H        0.72838998       2.95716044      -0.44713223
H       -0.71950715       2.24181605       0.44775913
H        1.55368814      -1.99969410      -0.79194239
15
Frame=9 idx=011148 GeodesicLength=1.1153773939229805 rxn_smarts="[C:1]([C:2]([C@@:3]1([C:6]#[C:7][H:15])[C:4]([H:13])([H:14])[O:5]1)([H:11])[H:12])([H:8])([H:9])[H:10]>>[C:1]([C:2]([C:7](=[C:6]=[C:3]1[C:4]([H:13])([H:14])[O:5]1)[H:15])([H:11])[H:12])([H:8])([H:9])[H:10]"
C       -1.39362085      -1.11801122      -0.43609240
C       -0.28838115      -0.75849252       0.54620075
C        0.94979150       0.87780662       0.14411281
C        0.34095782       2.18937004       0.16566084
O        1.22190812       1.71159232       1.20672143
C        1.82167901       0.20125847      -0.71450066
C        1.47744097      -0.99873406      -0.47486602
H       -2.26427666      -1.52568420       0.08185608
H       -1.06912055      -1.86423286      -1.16222403
H       -1.72337903      -0.24360028      -1.00052803
H       -0.70793315      -0.11775282       1.32474031
H       -0.01311549      -1.61967289       1.16144626
H        0.75923135       2.97365959      -0.45687256
H       -0.70090853       2.29795860       0.44971663
H        1.58972664      -2.00546480      -0.83537140
15
Frame=10 idx=011148 GeodesicLength=1.2395280102461417 rxn_smarts="[C:1]([C:2]([C@@:3]1([C:6]#[C:7][H:15])[C:4]([H:13])([H:14])[O:5]1)([H:11])[H:12])([H:8])([H:9])[H:10]>>[C:1]([C:2]([C:7](=[C:6]=[C:3]1[C:4]([H:13])([H:14])[O:5]1)[H:15])([H:11])[H:12])([H:8])([H:9])[H:10]"
C       -1.40074078      -1.13641660      -0.43442819
C       -0.29644547      -0.76851320       0.54779152
C        0.93298927       0.89565337       0.16018514
C        0.35837907       2.22266048       0.16628514
O        1.22977435       1.73913334       1.21066234
C        1.78427736       0.19270425      -0.69015219
C        1.48549901      -1.02139382      -0.47748087
H       -2.26729851      -1.55451393       0.08186474
H       -1.07012867      -1.87735974      -1.16323329
H       -1.73931973      -0.26399634      -0.99673342
H       -0.72982485      -0.13789846       1.32791204
H       -0.02595733      -1.62843198       1.16792736
H        0.79226594       2.98893726      -0.46798971
H       -0.68083294       2.35663091       0.44976144
H        1.62736327      -2.00719554      -0.88237208
15
Frame=11 idx=011148 GeodesicLength=1.363767721133091 rxn_smarts="[C:1]([C:2]([C@@:3]1([C:6]#[C:7][H:15])[C:4]([H:13])([H:14])[O:5]1)([H:11])[H:12])([H:8])([H:9])[H:10]>>[C:1]([C:2]([C:7](=[C:6]=[C:3]1[C:4]([H:13])([H:14])[O:5]1)[H:15])([H:11])[H:12])([H:8])([H:9])[H:10]"
C       -1.40847322      -1.15562558      -0.43215457
C       -0.30516433      -0.77939418       0.55005370
C        0.91464046       0.91408814       0.17802372
C        0.37697505       2.25637137       0.16570982
O        1.23668340       1.76756863       1.21516367
C        1.74656789       0.18319531      -0.66027779
C        1.49265759      -1.04380046      -0.48216868
H       -2.27081331      -1.58417377       0.08243299
H       -1.07187372      -1.89122889      -1.16368407
H       -1.75589160      -0.28531541      -0.99232982
H       -0.75230251      -0.15964472       1.33201435
H       -0.03867351      -1.63843811       1.17415589
H        0.82797678       3.00254107      -0.48058187
H       -0.65903059       2.41779684       0.44705910
H        1.66672162      -2.00394025      -0.93341645
15
Frame=12 idx=011148 GeodesicLength=1.487904875315299 rxn_smarts="[C:1]([C:2]([C@@:3]1([C:6]#[C:7][H:15])[C:4]([H:13])([H:14])[O:5]1)([H:11])[H:12])([H:8])([H:9])[H:10]>>[C:1]([C:2]([C:7](=[C:6]=[C:3]1[C:4]([H:13])([H:14])[O:5]1)[H:15])([H:11])[H:12])([H:8])([H:9])[H:10]"
C       -1.41693594      -1.17572267      -0.42911783
C       -0.31460950      -0.79133786       0.55309341
C        0.89464753       0.93307532       0.19782416
C        0.39694231       2.29036771       0.16356953
O        1.24215506       1.79696423       1.22057012
C        1.70908282       0.17225671      -0.62394630
C        1.49867008      -1.06542609      -0.48937353
H       -2.27482086      -1.61495524       0.08375568
H       -1.07454788      -1.90573280      -1.16359947
H       -1.77331446      -0.30755145      -0.98701128
H       -0.77530621      -0.18337639       1.33727174
H       -0.05121608      -1.65003104       1.18003494
H        0.86699706       3.01402887      -0.49473168
H       -0.63532199       2.48160067       0.44049022
H        1.70757805      -1.99415998      -0.98882971
15
Frame=13 idx=011148 GeodesicLength=1.6118075395988647 rxn_smarts="[C:1]([C:2]([C@@:3]1([C:6]#[C:7][H:15])[C:4]([H:13])([H:14])[O:5]1)([H:11])[H:12])([H:8])([H:9])[H:10]>>[C:1]([C:2]([C:7](=[C:6]=[C:3]1[C:4]([H:13])([H:14])[O:5]1)[H:15])([H:11])[H:12])([H:8])([H:9])[H:10]"
C       -1.42622835      -1.19662821      -0.42519760
C       -0.32488617      -0.80442921       0.55707911
C        0.87278785       0.95260751       0.21968037
C        0.41847179       2.32413006       0.15956476
O        1.24568328       1.82716584       1.22688612
C        1.67175584       0.16031072      -0.58046607
C        1.50348347      -1.08613925      -0.49941975
H       -2.27943332      -1.64677952       0.08581085
H       -1.07812706      -1.92068357      -1.16297260
H       -1.79180138      -0.33060765      -0.98043120
H       -0.79882886      -0.20913863       1.34396259
H       -0.06353055      -1.66335827       1.18554892
H        0.90983534       3.02254258      -0.51041484
H       -0.60935984       2.54768081       0.42919595
H        1.75017797      -1.97667320      -1.04882662
15
Frame=14 idx=011148 GeodesicLength=1.7352049094707152 rxn_smarts="[C:1]([C:2]([C@@:3]1([C:6]#[C:7][H:15])[C:4]([H:13])([H:14])[O:5]1)([H:11])[H:12])([H:8])([H:9])[H:10]>>[C:1]([C:2]([C:7](=[C:6]=[C:3]1[C:4]([H:13])([H:14])[O:5]1)[H:15])([H:11])[H:12])([H:8])([H:9])[H:10]"
C       -1.43644602      -1.21852657      -0.42019778
C       -0.33609036      -0.81901151       0.56213138
C        0.84895255       0.97264353       0.24363897
C        0.44194907       2.35748361       0.15319211
O        1.24659408       1.85825834       1.23456299
C        1.63497984       0.14643746      -0.52872403
C        1.50664555      -1.10485620      -0.51284306
H       -2.28446814      -1.68030104       0.08879248
H       -1.08281694      -1.93586737      -1.16187216
H       -1.81163083      -0.35448451      -0.97209433
H       -0.82272218      -0.23750983       1.35227816
H       -0.07559544      -1.67897984       1.19054119
H        0.95754478       3.02755077      -0.52752517
H       -0.58070754       2.61615755       0.41149074
H        1.79381156      -1.94899440      -1.11337149
15
Frame=15 idx=011148 GeodesicLength=1.8582890210933183 rxn_smarts="[C:1]([C:2]([C@@:3]1([C:6]#[C:7][H:15])[C:4]([H:13])([H:14])[O:5]1)([H:11])[H:12])([H:8])([H:9])[H:10]>>[C:1]([C:2]([C:7](=[C:6]=[C:3]1[C:4]([H:13])([H:14])[O:5]1)[H:15])([H:11])[H:12])([H:8])([H:9])[H:10]"
C       -1.44784929      -1.24143731      -0.41400099
C       -0.34842455      -0.83521839       0.56849755
C        0.82286899       0.99312925       0.26946441
C        0.46782132       2.38971070       0.14412219
O        1.24434858       1.88992870       1.24347856
C        1.59804098       0.13072357      -0.46820799
C        1.50813293      -1.12065251      -0.53033876
H       -2.29015538      -1.71572086       0.09270038
H       -1.08866480      -1.95101958      -1.16049898
H       -1.83333659      -0.37918711      -0.96152359
H       -0.84705421      -0.26852941       1.36261427
H       -0.08732247      -1.69704932       1.19504612
H        1.01104495       3.02795964      -0.54568360
H       -0.54859634       2.68646584       0.38623624
H        1.83914587      -1.90910321      -1.18190582
15
Frame=16 idx=011148 GeodesicLength=1.9811276065503118 rxn_smarts="[C:1]([C:2]([C@@:3]1([C:6]#[C:7][H:15])[C:4]([H:13])([H:14])[O:5]1)([H:11])[H:12])([H:8])([H:9])[H:10]>>[C:1]([C:2]([C:7](=[C:6]=[C:3]1[C:4]([H:13])([H:14])[O:5]1)[H:15])([H:11])[H:12])([H:8])([H:9])[H:10]"
C       -1.46063101      -1.26563706      -0.40652987
C       -0.36220403      -0.85333029       0.57638548
C        0.79432110       1.01401540       0.29644334
C        0.49674897       2.42029823       0.13211921
O        1.23886355       1.92171902       1.25340474
C        1.55964335       0.11266594      -0.39944719
C        1.50762036      -1.13173933      -0.55242885
H       -2.29648167      -1.75378120       0.09746555
H       -1.09565765      -1.96595515      -1.15901429
H       -1.85738736      -0.40492758      -0.94833684
H       -0.87193695      -0.30240112       1.37513584
H       -0.09877428      -1.71788356       1.19911174
H        1.07136403       3.02302673      -0.56423526
H       -0.51185589       2.75827801       0.35256874
H        1.88636747      -1.85434805      -1.25264234
