10
Frame=0 idx=001968 GeodesicLength=0.0 rxn_smarts="[O:1]([C@@:2]([C:3](=[O:4])[H:9])([C:5]#[C:6][H:10])[H:8])[H:7]>>[O:1]([C@@:2]([C:3][O:4][H:9])([C:5]#[C:6][H:10])[H:8])[H:7]"
O       -0.31758239       1.64452693      -0.18981245
C       -0.00891703       0.47338893       0.50070684
C       -1.12020443      -0.56229082       0.41039150
O       -2.06236837      -0.26222595      -0.42466739
C        1.21341221      -0.18920721       0.01822863
C        2.19359729      -0.73905316      -0.39105163
H       -0.98324849       1.42955528      -0.85685485
H        0.11692568       0.71052776       1.56314599
H       -2.10501761      -1.29015073       0.12542788
H        3.07340312      -1.21507103      -0.75551450
10
Frame=1 idx=001968 GeodesicLength=0.03218945706538715 rxn_smarts="[O:1]([C@@:2]([C:3](=[O:4])[H:9])([C:5]#[C:6][H:10])[H:8])[H:7]>>[O:1]([C@@:2]([C:3][O:4][H:9])([C:5]#[C:6][H:10])[H:8])[H:7]"
O       -0.31454191       1.64810050      -0.19115048
C       -0.01033530       0.47724340       0.50228635
C       -1.12805590      -0.55189495       0.42407645
O       -2.06468735      -0.25886208      -0.41496362
C        1.20634366      -0.19432813       0.01806446
C        2.18400081      -0.74821756      -0.39190596
H       -0.97846436       1.43328013      -0.85977765
H        0.12139870       0.71792276       1.56336996
H       -2.08651776      -1.31163965       0.10562657
H        3.07085941      -1.21160441      -0.75562607
10
Frame=2 idx=001968 GeodesicLength=0.06397419233004753 rxn_smarts="[O:1]([C@@:2]([C:3](=[O:4])[H:9])([C:5]#[C:6][H:10])[H:8])[H:7]>>[O:1]([C@@:2]([C:3][O:4][H:9])([C:5]#[C:6][H:10])[H:8])[H:7]"
O       -0.31255101       1.65189262      -0.19181386
C       -0.01187794       0.48121279       0.50381292
C       -1.13493335      -0.54224018       0.43661417
O       -2.06625554      -0.25660044      -0.40616859
C        1.19986664      -0.19779837       0.01782349
C        2.17554743      -0.75458881      -0.39293704
H       -0.97441800       1.43706994      -0.86223840
H        0.12527069       0.72477356       1.56363936
H       -2.06667516      -1.33168731       0.08665694
H        3.06602624      -1.21203380      -0.75538899
10
Frame=3 idx=001968 GeodesicLength=0.09592115294555338 rxn_smarts="[O:1]([C@@:2]([C:3](=[O:4])[H:9])([C:5]#[C:6][H:10])[H:8])[H:7]>>[O:1]([C@@:2]([C:3][O:4][H:9])([C:5]#[C:6][H:10])[H:8])[H:7]"
O       -0.31113741       1.65579968      -0.19203507
C       -0.01352052       0.48507894       0.50523390
C       -1.14123306      -0.53328806       0.44811846
O       -2.06735918      -0.25513902      -0.39823458
C        1.19376519      -0.20038642       0.01741540
C        2.16786902      -0.75933282      -0.39418186
H       -0.97071850       1.44094919      -0.86448038
H        0.12865118       0.73098440       1.56396821
H       -2.04661584      -1.35026078       0.06904803
H        3.06029913      -1.21440509      -0.75485212
10
Frame=4 idx=001968 GeodesicLength=0.1279150420090489 rxn_smarts="[O:1]([C@@:2]([C:3](=[O:4])[H:9])([C:5]#[C:6][H:10])[H:8])[H:7]>>[O:1]([C@@:2]([C:3][O:4][H:9])([C:5]#[C:6][H:10])[H:8])[H:7]"
O       -0.30999739       1.65964731      -0.19199717
C       -0.01523940       0.48868240       0.50650267
C       -1.14722420      -0.52490605       0.45873732
O       -2.06822554      -0.25418123      -0.39101029
C        1.18787346      -0.20265558       0.01683319
C        2.16069059      -0.76328726      -0.39555978
H       -0.96714058       1.44484401      -0.86662996
H        0.13166912       0.73650518       1.56426165
H       -2.02694284      -1.36733463       0.05295208
H        3.05453678      -1.21731415      -0.75408971
10
Frame=5 idx=001968 GeodesicLength=0.16011238981648918 rxn_smarts="[O:1]([C@@:2]([C:3](=[O:4])[H:9])([C:5]#[C:6][H:10])[H:8])[H:7]>>[O:1]([C@@:2]([C:3][O:4][H:9])([C:5]#[C:6][H:10])[H:8])[H:7]"
O       -0.30872153       1.66325603      -0.19194274
C       -0.01705273       0.49193443       0.50771379
C       -1.15321768      -0.51690582       0.46869900
O       -2.06890985      -0.25352328      -0.38451654
C        1.18207629      -0.20518116       0.01649402
C        2.15382494      -0.76737377      -0.39642344
H       -0.96320941       1.44856191      -0.86897648
H        0.13420616       0.74150759       1.56457553
H       -2.00810813      -1.38301552       0.03844415
H        3.04911194      -1.21926040      -0.75406730
10
Frame=6 idx=001968 GeodesicLength=0.19188570551081233 rxn_smarts="[O:1]([C@@:2]([C:3](=[O:4])[H:9])([C:5]#[C:6][H:10])[H:8])[H:7]>>[O:1]([C@@:2]([C:3][O:4][H:9])([C:5]#[C:6][H:10])[H:8])[H:7]"
O       -0.30773216       1.66676996      -0.19163444
C       -0.01886756       0.49490965       0.50865850
C       -1.15888582      -0.50932523       0.47791845
O       -2.06954053      -0.25308859      -0.37834364
C        1.17630831      -0.20745068       0.01556851
C        2.14710025      -0.77073982      -0.39805966
H       -0.95959519       1.45238388      -0.87107424
H        0.13677619       0.74574263       1.56469780
H       -1.98959098      -1.39751929       0.02509963
H        3.04402749      -1.22168250      -0.75283091
10
Frame=7 idx=001968 GeodesicLength=0.22379379918116607 rxn_smarts="[O:1]([C@@:2]([C:3](=[O:4])[H:9])([C:5]#[C:6][H:10])[H:8])[H:7]>>[O:1]([C@@:2]([C:3][O:4][H:9])([C:5]#[C:6][H:10])[H:8])[H:7]"
O       -0.30647708       1.67001329      -0.19138323
C       -0.02072957       0.49749218       0.50949012
C       -1.16467391      -0.50199760       0.48660740
O       -2.07018230      -0.25271048      -0.37268242
C        1.17052792      -0.21021424       0.01472866
C        2.14053450      -0.77455090      -0.39935961
H       -0.95560520       1.45607696      -0.87336144
H        0.13907165       0.74943813       1.56475256
H       -1.97221028      -1.41091952       0.01323659
H        3.03974428      -1.22262784      -0.75202863
10
Frame=8 idx=001968 GeodesicLength=0.2557312113079474 rxn_smarts="[O:1]([C@@:2]([C:3](=[O:4])[H:9])([C:5]#[C:6][H:10])[H:8])[H:7]>>[O:1]([C@@:2]([C:3][O:4][H:9])([C:5]#[C:6][H:10])[H:8])[H:7]"
O       -0.30508313       1.67308449      -0.19112477
C       -0.02263172       0.49980813       0.51024356
C       -1.17046797      -0.49489676       0.49481013
O       -2.07075591      -0.25243988      -0.36748553
C        1.16476600      -0.21319906       0.01395915
C        2.13414118      -0.77846881      -0.40039404
H       -0.95134800       1.45969337      -0.87577661
H        0.14112029       0.75270489       1.56479058
H       -1.95556294      -1.42350232       0.00254402
H        3.03582220      -1.22278405      -0.75156648
10
Frame=9 idx=001968 GeodesicLength=0.28767120667989055 rxn_smarts="[O:1]([C@@:2]([C:3](=[O:4])[H:9])([C:5]#[C:6][H:10])[H:8])[H:7]>>[O:1]([C@@:2]([C:3][O:4][H:9])([C:5]#[C:6][H:10])[H:8])[H:7]"
O       -0.30377614       1.67613798      -0.19073243
C       -0.02456225       0.50199413       0.51090383
C       -1.17611968      -0.48803329       0.50253691
O       -2.07122773      -0.25233735      -0.36263713
C        1.15908860      -0.21604659       0.01307034
C        2.12795353      -0.78202839      -0.40156149
H       -0.94707989       1.46336760      -0.87814904
H        0.14300491       0.75560264       1.56479756
H       -1.93921417      -1.43553870      -0.00730322
H        3.03193282      -1.22311803      -0.75092533
10
Frame=10 idx=001968 GeodesicLength=0.3196044910427152 rxn_smarts="[O:1]([C@@:2]([C:3](=[O:4])[H:9])([C:5]#[C:6][H:10])[H:8])[H:7]>>[O:1]([C@@:2]([C:3][O:4][H:9])([C:5]#[C:6][H:10])[H:8])[H:7]"
O       -0.30248056       1.67914910      -0.19026485
C       -0.02653846       0.50407818       0.51153750
C       -1.18168847      -0.48134652       0.50986427
O       -2.07157211      -0.25239259      -0.35816167
C        1.15349787      -0.21881337       0.01227960
C        2.12194774      -0.78540389      -0.40254903
H       -0.94267643       1.46703325      -0.88056902
H        0.14464014       0.75825367       1.56483118
H       -1.92308872      -1.44711784      -0.01640176
H        3.02795900      -1.22343999      -0.75056622
10
Frame=11 idx=001968 GeodesicLength=0.35155544941188166 rxn_smarts="[O:1]([C@@:2]([C:3](=[O:4])[H:9])([C:5]#[C:6][H:10])[H:8])[H:7]>>[O:1]([C@@:2]([C:3][O:4][H:9])([C:5]#[C:6][H:10])[H:8])[H:7]"
O       -0.30120198       1.68213887      -0.18972972
C       -0.02856643       0.50610227       0.51217487
C       -1.18718157      -0.47480264       0.51684783
O       -2.07178316      -0.25260318      -0.35402852
C        1.14800022      -0.22146564       0.01164945
C        2.11608972      -0.78861592      -0.40331428
H       -0.93812596       1.47068430      -0.88304810
H        0.14601201       0.76073517       1.56491752
H       -1.90702552      -1.45834567      -0.02489110
H        3.02378268      -1.22382757      -0.75057795
10
Frame=12 idx=001968 GeodesicLength=0.3836167858513295 rxn_smarts="[O:1]([C@@:2]([C:3](=[O:4])[H:9])([C:5]#[C:6][H:10])[H:8])[H:7]>>[O:1]([C@@:2]([C:3][O:4][H:9])([C:5]#[C:6][H:10])[H:8])[H:7]"
O       -0.30026042       1.68537833      -0.18893422
C       -0.03063634       0.50823324       0.51276184
C       -1.19245256      -0.46850813       0.52348713
O       -2.07192154      -0.25307844      -0.35002680
C        1.14271289      -0.22354432       0.01076376
C        2.11045637      -0.79108548      -0.40466343
H       -0.93382496       1.47456314      -0.88532572
H        0.14724921       0.76309930       1.56503271
H       -1.89055722      -1.46947848      -0.03313429
H        3.01923457      -1.22557916      -0.74996098
10
Frame=13 idx=001968 GeodesicLength=0.4155886282714122 rxn_smarts="[O:1]([C@@:2]([C:3](=[O:4])[H:9])([C:5]#[C:6][H:10])[H:8])[H:7]>>[O:1]([C@@:2]([C:3][O:4][H:9])([C:5]#[C:6][H:10])[H:8])[H:7]"
O       -0.30035742       1.68918610      -0.18737236
C       -0.03265540       0.51061194       0.51307629
C       -1.19691506      -0.46269056       0.52944108
O       -2.07163514      -0.25408638      -0.34627581
C        1.13772794      -0.22414000       0.00866522
C        2.10522321      -0.79099879      -0.40828268
H       -0.93056880       1.47913873      -0.88682189
H        0.14875592       0.76495504       1.56498483
H       -1.87352090      -1.48070595      -0.04098099
H        3.01394564      -1.23127014      -0.74643369
10
Frame=14 idx=001968 GeodesicLength=0.447554707683755 rxn_smarts="[O:1]([C@@:2]([C:3](=[O:4])[H:9])([C:5]#[C:6][H:10])[H:8])[H:7]>>[O:1]([C@@:2]([C:3][O:4][H:9])([C:5]#[C:6][H:10])[H:8])[H:7]"
O       -0.29920831       1.69214337      -0.18662971
C       -0.03483417       0.51255360       0.51376295
C       -1.20214032      -0.45649483       0.53553270
O       -2.07142781      -0.25470531      -0.34300157
C        1.13250605      -0.22630834       0.00854883
C        2.09967400      -0.79367551      -0.40841419
H       -0.92563617       1.48275203      -0.88944869
H        0.14939396       0.76707653       1.56524125
H       -1.85721008      -1.49116303      -0.04807563
H        3.00888285      -1.23217851      -0.74751594
10
Frame=15 idx=001968 GeodesicLength=0.4797282690589747 rxn_smarts="[O:1]([C@@:2]([C:3](=[O:4])[H:9])([C:5]#[C:6][H:10])[H:8])[H:7]>>[O:1]([C@@:2]([C:3][O:4][H:9])([C:5]#[C:6][H:10])[H:8])[H:7]"
O       -0.29777422       1.69506680      -0.18595635
C       -0.03709167       0.51442028       0.51453330
C       -1.20764570      -0.45033155       0.54142081
O       -2.07130486      -0.25538940      -0.34008715
C        1.12737978      -0.22876932       0.00885721
C        2.09430901      -0.79689081      -0.40790810
H       -0.92023403       1.48628594      -0.89230983
H        0.14965170       0.76923402       1.56564739
H       -1.84138000      -1.50144669      -0.05450088
H        3.00408997      -1.23217927      -0.74969640
10
Frame=16 idx=001968 GeodesicLength=0.5116288869036579 rxn_smarts="[O:1]([C@@:2]([C:3](=[O:4])[H:9])([C:5]#[C:6][H:10])[H:8])[H:7]>>[O:1]([C@@:2]([C:3][O:4][H:9])([C:5]#[C:6][H:10])[H:8])[H:7]"
O       -0.29723558       1.69834662      -0.18472243
C       -0.03929737       0.51642912       0.51501356
C       -1.21235467      -0.44454796       0.54679780
O       -2.07081171      -0.25635688      -0.33712943
C        1.12236435      -0.22999523       0.00804752
C        2.08901893      -0.79800275      -0.40933605
H       -0.91576916       1.49036000      -0.89450512
H        0.15023581       0.77084288       1.56581146
H       -1.82466923      -1.51169366      -0.06081298
H        2.99851865      -1.23538215      -0.74916432
