10
Frame=0 idx=007659 GeodesicLength=0.0 rxn_smarts="[N:1]#[C:2][c:3]1[c:4]([H:8])[o:5][c:6]([H:9])[c:7]1[H:10]>>[N+:1](#[C-:2])[C@@:7]([C:3]#[C:4][H:8])([C:6](=[O:5])[H:9])[H:10]"
N        1.09272768      -0.90353248      -1.08930050
C        2.09454764      -0.39615939      -0.58145531
C        0.79992682       0.08711628       0.89745057
C        0.10257980       1.21908045       0.82491526
O       -1.12051357       1.04420477       0.01796656
C       -1.14017497      -0.12556786      -0.43777916
C        0.05537237      -0.87527729       0.00140444
H        0.20979181       2.24757168       1.12046605
H       -1.96408863      -0.40228905      -1.08526965
H       -0.13016894      -1.89514711       0.33160175
10
Frame=1 idx=007659 GeodesicLength=0.12415652366544536 rxn_smarts="[N:1]#[C:2][c:3]1[c:4]([H:8])[o:5][c:6]([H:9])[c:7]1[H:10]>>[N+:1](#[C-:2])[C@@:7]([C:3]#[C:4][H:8])([C:6](=[O:5])[H:9])[H:10]"
N        1.11893389      -0.92959161      -1.09046171
C        2.09814216      -0.37998694      -0.59565013
C        0.79728823       0.09178141       0.88396081
C        0.10564024       1.22440391       0.83723496
O       -1.15307211       1.03482335       0.03743124
C       -1.14826504      -0.12860704      -0.43723533
C        0.04639751      -0.87429654       0.00388829
H        0.23183955       2.25272650       1.12536686
H       -1.95460371      -0.40120817      -1.10884172
H       -0.14230071      -1.89004486       0.34430673
10
Frame=2 idx=007659 GeodesicLength=0.24833276328861983 rxn_smarts="[N:1]#[C:2][c:3]1[c:4]([H:8])[o:5][c:6]([H:9])[c:7]1[H:10]>>[N+:1](#[C-:2])[C@@:7]([C:3]#[C:4][H:8])([C:6](=[O:5])[H:9])[H:10]"
N        1.14646379      -0.95787799      -1.09006778
C        2.10091534      -0.36359983      -0.61194338
C        0.79489198       0.09724460       0.86914486
C        0.10917338       1.23010684       0.84900364
O       -1.18665473       1.02412897       0.05819359
C       -1.15643404      -0.13148092      -0.43685907
C        0.03720499      -0.87322558       0.00651087
H        0.25291045       2.25757963       1.13148307
H       -1.94381644      -0.39843860      -1.13341585
H       -0.15465472      -1.88443712       0.35795004
10
Frame=3 idx=007659 GeodesicLength=0.37249083739447275 rxn_smarts="[N:1]#[C:2][c:3]1[c:4]([H:8])[o:5][c:6]([H:9])[c:7]1[H:10]>>[N+:1](#[C-:2])[C@@:7]([C:3]#[C:4][H:8])([C:6](=[O:5])[H:9])[H:10]"
N        1.17552399      -0.98827374      -1.08779859
C        2.10265657      -0.34696058      -0.63051432
C        0.79260407       0.10347755       0.85298405
C        0.11302046       1.23609116       0.86036881
O       -1.22111822       1.01205500       0.08001514
C       -1.16477946      -0.13424995      -0.43655776
C        0.02777791      -0.87208452       0.00923235
H        0.27318670       2.26215143       1.13870785
H       -1.93171680      -0.39384937      -1.15884938
H       -0.16715522      -1.87835697       0.37241184
10
Frame=4 idx=007659 GeodesicLength=0.4966081190049255 rxn_smarts="[N:1]#[C:2][c:3]1[c:4]([H:8])[o:5][c:6]([H:9])[c:7]1[H:10]>>[N+:1](#[C-:2])[C@@:7]([C:3]#[C:4][H:8])([C:6](=[O:5])[H:9])[H:10]"
N        1.20634581      -1.02052746      -1.08333305
C        2.10316533      -0.33012408      -0.65148407
C        0.79026981       0.11045137       0.83546709
C        0.11705892       1.24227244       0.87145342
O       -1.25627901       0.99863223       0.10250105
C       -1.17343114      -0.13699207      -0.43622746
C        0.01809482      -0.87088240       0.01198819
H        0.29285940       2.26642033       1.14699577
H       -1.91837867      -0.38740386      -1.18487843
H       -0.17970528      -1.87184651       0.38751750
10
Frame=5 idx=007659 GeodesicLength=0.6206600380243701 rxn_smarts="[N:1]#[C:2][c:3]1[c:4]([H:8])[o:5][c:6]([H:9])[c:7]1[H:10]>>[N+:1](#[C-:2])[C@@:7]([C:3]#[C:4][H:8])([C:6](=[O:5])[H:9])[H:10]"
N        1.23915944      -1.05429280      -1.07636180
C        2.10224975      -0.31326034      -0.67493879
C        0.78773125       0.11815519       0.81656268
C        0.12123140       1.24860820       0.88229392
O       -1.29197484       0.98395134       0.12521575
C       -1.18253645      -0.13980447      -0.43577453
C        0.00813215      -0.86961634       0.01470546
H        0.31210504       2.27033583       1.15641205
H       -1.90391510      -0.37913046      -1.21120735
H       -0.19218262      -1.86494615       0.40309261
10
Frame=6 idx=007659 GeodesicLength=0.7445834924886617 rxn_smarts="[N:1]#[C:2][c:3]1[c:4]([H:8])[o:5][c:6]([H:9])[c:7]1[H:10]>>[N+:1](#[C-:2])[C@@:7]([C:3]#[C:4][H:8])([C:6](=[O:5])[H:9])[H:10]"
N        1.27421180      -1.08903059      -1.06660438
C        2.09978869      -0.29668398      -0.70079692
C        0.78479660       0.12655689       0.79625039
C        0.12550347       1.25505501       0.89288813
O       -1.32812436       0.96811405       0.14783472
C       -1.19225034      -0.14277260      -0.43513198
C       -0.00213435      -0.86826402       0.01727844
H        0.33116819       2.27384389       1.16689940
H       -1.88852237      -0.36911453      -1.23748350
H       -0.20443732      -1.85770412       0.41886570
10
Frame=7 idx=007659 GeodesicLength=0.8682713904758698 rxn_smarts="[N:1]#[C:2][c:3]1[c:4]([H:8])[o:5][c:6]([H:9])[c:7]1[H:10]>>[N+:1](#[C-:2])[C@@:7]([C:3]#[C:4][H:8])([C:6](=[O:5])[H:9])[H:10]"
N        1.31171833      -1.12413132      -1.05379214
C        2.09566936      -0.28080637      -0.72890782
C        0.78127391       0.13562146       0.77447948
C        0.12987168       1.26157612       0.90315439
O       -1.36476929       0.95112746       0.17027911
C       -1.20272648      -0.14598228      -0.43422753
C       -0.01272583      -0.86679883       0.01961273
H        0.35029457       2.27689094       1.17829217
H       -1.87232224      -0.35733221      -1.26346949
H       -0.21628401      -1.85016496       0.43457910
10
Frame=8 idx=007659 GeodesicLength=0.9923279890987143 rxn_smarts="[N:1]#[C:2][c:3]1[c:4]([H:8])[o:5][c:6]([H:9])[c:7]1[H:10]>>[N+:1](#[C-:2])[C@@:7]([C:3]#[C:4][H:8])([C:6](=[O:5])[H:9])[H:10]"
N        1.35200517      -1.15908804      -1.03777381
C        2.09001895      -0.26598449      -0.75919673
C        0.77699085       0.14535780       0.75132173
C        0.13433215       1.26823527       0.91323016
O       -1.40228182       0.93273537       0.19304632
C       -1.21423805      -0.14962127      -0.43298118
C       -0.02374996      -0.86530239       0.02162589
H        0.36991775       2.27976231       1.19006411
H       -1.85525327      -0.34354401      -1.28931969
H       -0.22774177      -1.84255054       0.44998320
10
Frame=9 idx=007659 GeodesicLength=1.115728823846749 rxn_smarts="[N:1]#[C:2][c:3]1[c:4]([H:8])[o:5][c:6]([H:9])[c:7]1[H:10]>>[N+:1](#[C-:2])[C@@:7]([C:3]#[C:4][H:8])([C:6](=[O:5])[H:9])[H:10]"
N        1.39515109      -1.19212066      -1.01879493
C        2.08346260      -0.25291499      -0.78971811
C        0.77152355       0.15547156       0.72700508
C        0.13896781       1.27476883       0.92289129
O       -1.44010877       0.91346376       0.21476135
C       -1.22653216      -0.15322529      -0.43178242
C       -0.03512400      -0.86348230       0.02283198
H        0.39046209       2.28173416       1.20167717
H       -1.83926860      -0.32884066      -1.31284034
H       -0.23853360      -1.83485441       0.46396892
10
Frame=10 idx=007659 GeodesicLength=1.2394559962403582 rxn_smarts="[N:1]#[C:2][c:3]1[c:4]([H:8])[o:5][c:6]([H:9])[c:7]1[H:10]>>[N+:1](#[C-:2])[C@@:7]([C:3]#[C:4][H:8])([C:6](=[O:5])[H:9])[H:10]"
N        1.44138682      -1.22346629      -0.99673119
C        2.07631396      -0.24196607      -0.82099496
C        0.76496326       0.16618914       0.70128297
C        0.14392348       1.28152784       0.93199668
O       -1.47880828       0.89303367       0.23636316
C       -1.23997407      -0.15709953      -0.43051702
C       -0.04698998      -0.86149291       0.02328140
H        0.41200269       2.28340061       1.21354648
H       -1.82402416      -0.31290072      -1.33498643
H       -0.24879371      -1.82722574       0.47675892
10
Frame=11 idx=007659 GeodesicLength=1.3629972380589594 rxn_smarts="[N:1]#[C:2][c:3]1[c:4]([H:8])[o:5][c:6]([H:9])[c:7]1[H:10]>>[N+:1](#[C-:2])[C@@:7]([C:3]#[C:4][H:8])([C:6](=[O:5])[H:9])[H:10]"
N        1.49066795      -1.25235732      -0.97146583
C        2.06874132      -0.23341533      -0.85244184
C        0.75711157       0.17745431       0.67409138
C        0.14926501       1.28834544       0.94042407
O       -1.51829046       0.87133054       0.25779040
C       -1.25447597      -0.16112452      -0.42929585
C       -0.05938076      -0.85920496       0.02283911
H        0.43481811       2.28440012       1.22531856
H       -1.81000433      -0.29587258      -1.35536766
H       -0.25845244      -1.81955571       0.48810764
10
Frame=12 idx=007659 GeodesicLength=1.4864247399271167 rxn_smarts="[N:1]#[C:2][c:3]1[c:4]([H:8])[o:5][c:6]([H:9])[c:7]1[H:10]>>[N+:1](#[C-:2])[C@@:7]([C:3]#[C:4][H:8])([C:6](=[O:5])[H:9])[H:10]"
N        1.54311349      -1.27826415      -0.94293220
C        2.06117777      -0.22752045      -0.88358862
C        0.74787024       0.18927793       0.64532438
C        0.15509214       1.29520886       0.94811929
O       -1.55858197       0.84839722       0.27896211
C       -1.27007319      -0.16519658      -0.42823271
C       -0.07235077      -0.85656738       0.02134666
H        0.45920733       2.28458623       1.23694008
H       -1.79791828      -0.27805670      -1.37370823
H       -0.26753675      -1.81186498       0.49776924
10
Frame=13 idx=007659 GeodesicLength=1.6097857528563595 rxn_smarts="[N:1]#[C:2][c:3]1[c:4]([H:8])[o:5][c:6]([H:9])[c:7]1[H:10]>>[N+:1](#[C-:2])[C@@:7]([C:3]#[C:4][H:8])([C:6](=[O:5])[H:9])[H:10]"
N        1.59882564      -1.30073784      -0.91094495
C        2.05396263      -0.22447488      -0.91414415
C        0.73717736       0.20171117       0.61477356
C        0.16153343       1.30209785       0.95497450
O       -1.59971679       0.82428504       0.29979708
C       -1.28682904      -0.16923289      -0.42740214
C       -0.08595936      -0.85352672       0.01868286
H        0.48545119       2.28372630       1.24853040
H       -1.78838109      -0.25972454      -1.38989062
H       -0.27606397      -1.80412349       0.50562346
10
Frame=14 idx=007659 GeodesicLength=1.733081290721112 rxn_smarts="[N:1]#[C:2][c:3]1[c:4]([H:8])[o:5][c:6]([H:9])[c:7]1[H:10]>>[N+:1](#[C-:2])[C@@:7]([C:3]#[C:4][H:8])([C:6](=[O:5])[H:9])[H:10]"
N        1.65786065      -1.31928766      -0.87516217
C        2.04727768      -0.22438249      -0.94395031
C        0.72496685       0.21482365       0.58223112
C        0.16875376       1.30892287       0.96102380
O       -1.64173886       0.79890984       0.32037464
C       -1.30482492      -0.17319863      -0.42686719
C       -0.10029556      -0.85005537       0.01475101
H        0.51391755       2.28161261       1.26003409
H       -1.78183980      -0.24101517      -1.40403920
H       -0.28407735      -1.79632964       0.51160420
10
Frame=15 idx=007659 GeodesicLength=1.8563124743133768 rxn_smarts="[N:1]#[C:2][c:3]1[c:4]([H:8])[o:5][c:6]([H:9])[c:7]1[H:10]>>[N+:1](#[C-:2])[C@@:7]([C:3]#[C:4][H:8])([C:6](=[O:5])[H:9])[H:10]"
N        1.72029981      -1.33330481      -0.83514496
C        2.04130935      -0.22738773      -0.97282117
C        0.71114995       0.22868996       0.54742106
C        0.17694176       1.31551744       0.96630360
O       -1.68469744       0.77218430       0.34077241
C       -1.32416567      -0.17703787      -0.42665424
C       -0.11545528      -0.84610487       0.00943329
H        0.54498214       2.27791684       1.27131136
H       -1.77875212      -0.22203164      -1.41622763
H       -0.29161250      -1.78844161       0.51560630
10
Frame=16 idx=007659 GeodesicLength=1.9794789590060142 rxn_smarts="[N:1]#[C:2][c:3]1[c:4]([H:8])[o:5][c:6]([H:9])[c:7]1[H:10]>>[N+:1](#[C-:2])[C@@:7]([C:3]#[C:4][H:8])([C:6](=[O:5])[H:9])[H:10]"
N        1.78622217      -1.34201411      -0.79038719
C        2.03625898      -0.23368170      -1.00046951
C        0.69558058       0.24335209       0.51006447
C        0.18631082       1.32160458       0.97090863
O       -1.72865017       0.74396005       0.36118010
C       -1.34497573      -0.18068344      -0.42673955
C       -0.13155080      -0.84163179       0.00257787
H        0.57903643       2.27227432       1.28193706
H       -1.77952551      -0.20274234      -1.42650465
H       -0.29870676      -1.78043765       0.51743277
