13
Frame=0 idx=006508 GeodesicLength=0.0 rxn_smarts="[C:1](#[C:2][C@:3]12[C:4]([H:9])([H:10])[C@@:5]1([H:11])[O:6][C:7]2([H:12])[H:13])[H:8]>>[C:1](#[C:2][C:3]1=[C:4]([H:10])[C:5]([H:9])([H:11])[O:6][C:7]1([H:12])[H:13])[H:8]"
C        2.56057856       0.56693917       0.38167998
C        1.41824825       0.35826047       0.08861155
C        0.05830430       0.10381994      -0.30742485
C       -0.86512143       1.18003577      -0.73409270
C       -1.08781097       0.01361885       0.70529569
O       -1.50544853      -1.23300773       0.22439607
C       -0.41047268      -1.29924383      -0.72087896
H        3.57482778       0.75653995       0.64343819
H       -1.85642660       0.82773965       0.35516676
H       -0.51526033       2.08080104      -0.19917357
H       -0.88710056       0.13796995       1.76596017
H        0.27733657      -2.10343907      -0.45485042
H       -0.76165440      -1.39003412      -1.74812795
13
Frame=1 idx=006508 GeodesicLength=0.099607334719684 rxn_smarts="[C:1](#[C:2][C@:3]12[C:4]([H:9])([H:10])[C@@:5]1([H:11])[O:6][C:7]2([H:12])[H:13])[H:8]>>[C:1](#[C:2][C:3]1=[C:4]([H:10])[C:5]([H:9])([H:11])[O:6][C:7]1([H:12])[H:13])[H:8]"
C        2.57694892       0.56298734       0.37458968
C        1.42919654       0.35636255       0.10146548
C        0.07040797       0.10272479      -0.29582968
C       -0.85658220       1.17613318      -0.70319226
C       -1.11073068       0.01907646       0.70167312
O       -1.50857090      -1.23218575       0.21336849
C       -0.40072368      -1.29618060      -0.71490179
H        3.60277456       0.74852323       0.59038635
H       -1.89798661       0.82648480       0.32833501
H       -0.51675891       2.08265168      -0.17464201
H       -0.93444946       0.14341696       1.76677067
H        0.28036786      -2.10321957      -0.43963069
H       -0.73389342      -1.38677506      -1.74839238
13
Frame=2 idx=006508 GeodesicLength=0.19910998846574637 rxn_smarts="[C:1](#[C:2][C@:3]12[C:4]([H:9])([H:10])[C@@:5]1([H:11])[O:6][C:7]2([H:12])[H:13])[H:8]>>[C:1](#[C:2][C:3]1=[C:4]([H:10])[C:5]([H:9])([H:11])[O:6][C:7]1([H:12])[H:13])[H:8]"
C        2.59392599       0.55757108       0.36618928
C        1.44083052       0.35330350       0.11397227
C        0.08268474       0.10120028      -0.28342560
C       -0.84744128       1.17215173      -0.67128220
C       -1.13357876       0.02425932       0.69822321
O       -1.51208589      -1.23099278       0.20226182
C       -0.39149182      -1.29314252      -0.70863101
H        3.62791664       0.74423411       0.53772399
H       -1.93730605       0.82579960       0.29934104
H       -0.51724680       2.08410189      -0.14910777
H       -0.98194873       0.14806735       1.76725578
H        0.28228237      -2.10346258      -0.42443048
H       -0.70654093      -1.38309099      -1.74809032
13
Frame=3 idx=006508 GeodesicLength=0.2984597261296325 rxn_smarts="[C:1](#[C:2][C@:3]12[C:4]([H:9])([H:10])[C@@:5]1([H:11])[O:6][C:7]2([H:12])[H:13])[H:8]>>[C:1](#[C:2][C:3]1=[C:4]([H:10])[C:5]([H:9])([H:11])[O:6][C:7]1([H:12])[H:13])[H:8]"
C        2.61135417       0.55153770       0.35617418
C        1.45316119       0.34953262       0.12546903
C        0.09500568       0.09934506      -0.27045157
C       -0.83812211       1.16797432      -0.63846719
C       -1.15623234       0.02913460       0.69504171
O       -1.51582370      -1.22954034       0.19129279
C       -0.38279333      -1.29015419      -0.70210162
H        3.65055993       0.74247930       0.48660837
H       -1.97419066       0.82574995       0.26840541
H       -0.51709794       2.08516744      -0.12285204
H       -1.02922220       0.15200185       1.76746130
H        0.28326392      -2.10405821      -0.40937480
H       -0.67986262      -1.37917010      -1.74720558
13
Frame=4 idx=006508 GeodesicLength=0.3977131624978548 rxn_smarts="[C:1](#[C:2][C@:3]12[C:4]([H:9])([H:10])[C@@:5]1([H:11])[O:6][C:7]2([H:12])[H:13])[H:8]>>[C:1](#[C:2][C:3]1=[C:4]([H:10])[C:5]([H:9])([H:11])[O:6][C:7]1([H:12])[H:13])[H:8]"
C        2.62822706       0.54678884       0.34583238
C        1.46566130       0.34627235       0.13602392
C        0.10722615       0.09772481      -0.25676918
C       -0.82925259       1.16361067      -0.60473946
C       -1.17888575       0.03375674       0.69209040
O       -1.51918512      -1.22800857       0.18043780
C       -0.37385398      -1.28687282      -0.69509601
H        3.67178414       0.73858700       0.43514102
H       -2.00914241       0.82591981       0.23526961
H       -0.51756940       2.08602891      -0.09593902
H       -1.07665055       0.15536649       1.76732995
H        0.28450384      -2.10425173      -0.39411363
H       -0.65286269      -1.37492250      -1.74546777
13
Frame=5 idx=006508 GeodesicLength=0.49675986672185163 rxn_smarts="[C:1](#[C:2][C@:3]12[C:4]([H:9])([H:10])[C@@:5]1([H:11])[O:6][C:7]2([H:12])[H:13])[H:8]>>[C:1](#[C:2][C:3]1=[C:4]([H:10])[C:5]([H:9])([H:11])[O:6][C:7]1([H:12])[H:13])[H:8]"
C        2.64518466       0.54269777       0.33346048
C        1.47874271       0.34313895       0.14422774
C        0.11928957       0.09602404      -0.24298124
C       -0.82087381       1.15889797      -0.57029639
C       -1.20114662       0.03806290       0.68956358
O       -1.52239642      -1.22638436       0.17010683
C       -0.36537953      -1.28360499      -0.68787323
H        3.69103629       0.73497770       0.38711602
H       -2.04151307       0.82668093       0.20066796
H       -0.51813661       2.08654541      -0.06878580
H       -1.12319370       0.15814211       1.76703530
H        0.28528476      -2.10449187      -0.37916611
H       -0.62689824      -1.37068657      -1.74307514
13
Frame=6 idx=006508 GeodesicLength=0.5956641486809924 rxn_smarts="[C:1](#[C:2][C@:3]12[C:4]([H:9])([H:10])[C@@:5]1([H:11])[O:6][C:7]2([H:12])[H:13])[H:8]>>[C:1](#[C:2][C:3]1=[C:4]([H:10])[C:5]([H:9])([H:11])[O:6][C:7]1([H:12])[H:13])[H:8]"
C        2.66210907       0.53877499       0.31957127
C        1.49229288       0.33986043       0.15041389
C        0.13120771       0.09412758      -0.22890624
C       -0.81278689       1.15381423      -0.53501832
C       -1.22322118       0.04204799       0.68743138
O       -1.52568039      -1.22459782       0.16007675
C       -0.35738811      -1.28037129      -0.68039625
H        3.70885427       0.73254195       0.34149578
H       -2.07113471       0.82821596       0.16435837
H       -0.51864258       2.08662965      -0.04118679
H       -1.16929562       0.16023410       1.76659422
H        0.28546338      -2.10486196      -0.36438528
H       -0.60177782      -1.36641581      -1.74004879
13
Frame=7 idx=006508 GeodesicLength=0.6944660995505552 rxn_smarts="[C:1](#[C:2][C@:3]12[C:4]([H:9])([H:10])[C@@:5]1([H:11])[O:6][C:7]2([H:12])[H:13])[H:8]>>[C:1](#[C:2][C:3]1=[C:4]([H:10])[C:5]([H:9])([H:11])[O:6][C:7]1([H:12])[H:13])[H:8]"
C        2.67874880       0.53599025       0.30448976
C        1.50614210       0.33707863       0.15457416
C        0.14290748       0.09227217      -0.21450636
C       -0.80527092       1.14833687      -0.49892321
C       -1.24525875       0.04566312       0.68568735
O       -1.52885366      -1.22277560       0.15033079
C       -0.34960881      -1.27706235      -0.67259909
H        3.72579631       0.72927239       0.29770770
H       -2.09815608       0.83044668       0.12638079
H       -0.51961361       2.08635288      -0.01318405
H       -1.21517677       0.16161661       1.76601714
H        0.28549821      -2.10509020      -0.34962068
H       -0.57715431      -1.36210145      -1.73635430
13
Frame=8 idx=006508 GeodesicLength=0.7931453329774686 rxn_smarts="[C:1](#[C:2][C@:3]12[C:4]([H:9])([H:10])[C@@:5]1([H:11])[O:6][C:7]2([H:12])[H:13])[H:8]>>[C:1](#[C:2][C:3]1=[C:4]([H:10])[C:5]([H:9])([H:11])[O:6][C:7]1([H:12])[H:13])[H:8]"
C        2.69539125       0.53305737       0.28786061
C        1.52040876       0.33404845       0.15636366
C        0.15444018       0.09008745      -0.19990101
C       -0.79797572       1.14236744      -0.46197440
C       -1.26721652       0.04894849       0.68437500
O       -1.53230745      -1.22078227       0.14086081
C       -0.34248090      -1.27389066      -0.66457929
H        3.74175589       0.72808778       0.25664479
H       -2.12207264       0.83373002       0.08682244
H       -0.52039596       2.08552928       0.01523980
H       -1.26069033       0.16227213       1.76539269
H        0.28473881      -2.10556855      -0.33500120
H       -0.55359537      -1.35788693      -1.73210391
13
Frame=9 idx=006508 GeodesicLength=0.891812747699241 rxn_smarts="[C:1](#[C:2][C@:3]12[C:4]([H:9])([H:10])[C@@:5]1([H:11])[O:6][C:7]2([H:12])[H:13])[H:8]>>[C:1](#[C:2][C:3]1=[C:4]([H:10])[C:5]([H:9])([H:11])[O:6][C:7]1([H:12])[H:13])[H:8]"
C        2.71185884       0.53072243       0.27011951
C        1.53495231       0.33120791       0.15626671
C        0.16581680       0.08773663      -0.18482368
C       -0.79099040       1.13589642      -0.42404614
C       -1.28937242       0.05183697       0.68344733
O       -1.53600764      -1.21869950       0.13146155
C       -0.33571284      -1.27076502      -0.65622701
H        3.75701820       0.72748897       0.21689191
H       -2.14282335       0.83811124       0.04545303
H       -0.52130741       2.08419868       0.04427279
H       -1.30642420       0.16208802       1.76470903
H        0.28351837      -2.10611198      -0.32024059
H       -0.53052626      -1.35371078      -1.72728442
13
Frame=10 idx=006508 GeodesicLength=0.989394359034203 rxn_smarts="[C:1](#[C:2][C@:3]12[C:4]([H:9])([H:10])[C@@:5]1([H:11])[O:6][C:7]2([H:12])[H:13])[H:8]>>[C:1](#[C:2][C:3]1=[C:4]([H:10])[C:5]([H:9])([H:11])[O:6][C:7]1([H:12])[H:13])[H:8]"
C        2.72795802       0.52872557       0.25146490
C        1.54958194       0.32839135       0.15487068
C        0.17698736       0.08508817      -0.16894358
C       -0.78409616       1.12889106      -0.38516452
C       -1.31179852       0.05444794       0.68252592
O       -1.53980099      -1.21629185       0.12166657
C       -0.32917770      -1.26767174      -0.64743696
H        3.77132645       0.72772638       0.17744085
H       -2.16021404       0.84360301       0.00306265
H       -0.52227396       2.08228954       0.07397009
H       -1.35278234       0.16111614       1.76338635
H        0.28166673      -2.10680578      -0.30515383
H       -0.50737680      -1.34950979      -1.72168912
13
Frame=11 idx=006508 GeodesicLength=1.08772451698366 rxn_smarts="[C:1](#[C:2][C@:3]12[C:4]([H:9])([H:10])[C@@:5]1([H:11])[O:6][C:7]2([H:12])[H:13])[H:8]>>[C:1](#[C:2][C:3]1=[C:4]([H:10])[C:5]([H:9])([H:11])[O:6][C:7]1([H:12])[H:13])[H:8]"
C        2.74374025       0.52734426       0.23109512
C        1.56423384       0.32581027       0.15096763
C        0.18795388       0.08219458      -0.15269231
C       -0.77764908       1.12121707      -0.34502505
C       -1.33445923       0.05659834       0.68213291
O       -1.54392727      -1.21388926       0.11214266
C       -0.32309152      -1.26468834      -0.63828265
H        3.78532555       0.72884353       0.14010017
H       -2.17373411       0.85064384      -0.04160089
H       -0.52346360       2.07972051       0.10441268
H       -1.39930439       0.15922833       1.76214237
H        0.27940398      -2.10757814      -0.28993107
H       -0.48502830      -1.34544498      -1.71546157
13
Frame=12 idx=006508 GeodesicLength=1.1860799348740347 rxn_smarts="[C:1](#[C:2][C@:3]12[C:4]([H:9])([H:10])[C@@:5]1([H:11])[O:6][C:7]2([H:12])[H:13])[H:8]>>[C:1](#[C:2][C:3]1=[C:4]([H:10])[C:5]([H:9])([H:11])[O:6][C:7]1([H:12])[H:13])[H:8]"
C        2.75935441       0.52673469       0.20944583
C        1.57903007       0.32355142       0.14522727
C        0.19879393       0.07901721      -0.13574157
C       -0.77146492       1.11284198      -0.30371138
C       -1.35767460       0.05829112       0.68201956
O       -1.54855962      -1.21141286       0.10245016
C       -0.31738858      -1.26183813      -0.62870495
H        3.79907862       0.73079487       0.10354523
H       -2.18333236       0.85924436      -0.08794498
H       -0.52473454       2.07648645       0.13559934
H       -1.44667941       0.15632486       1.76076109
H        0.27655713      -2.10852076      -0.27425407
H       -0.46298012      -1.34151522      -1.70869154
13
Frame=13 idx=006508 GeodesicLength=1.2837138545438482 rxn_smarts="[C:1](#[C:2][C@:3]12[C:4]([H:9])([H:10])[C@@:5]1([H:11])[O:6][C:7]2([H:12])[H:13])[H:8]>>[C:1](#[C:2][C:3]1=[C:4]([H:10])[C:5]([H:9])([H:11])[O:6][C:7]1([H:12])[H:13])[H:8]"
C        2.77428800       0.52656917       0.18626032
C        1.59352567       0.32141114       0.13740045
C        0.20941182       0.07539748      -0.11807519
C       -0.76548503       1.10363910      -0.26115551
C       -1.38120315       0.05968898       0.68192990
O       -1.55332801      -1.20860811       0.09237190
C       -0.31202000      -1.25916023      -0.61866143
H        3.81193618       0.73399800       0.06815618
H       -2.18829303       0.86954666      -0.13512998
H       -0.52608965       2.07244184       0.16746682
H       -1.49467691       0.15260617       1.75869055
H        0.27299111      -2.10968933      -0.25817830
H       -0.44105700      -1.33784087      -1.70107570
13
Frame=14 idx=006508 GeodesicLength=1.381718136915134 rxn_smarts="[C:1](#[C:2][C@:3]12[C:4]([H:9])([H:10])[C@@:5]1([H:11])[O:6][C:7]2([H:12])[H:13])[H:8]>>[C:1](#[C:2][C:3]1=[C:4]([H:10])[C:5]([H:9])([H:11])[O:6][C:7]1([H:12])[H:13])[H:8]"
C        2.78867025       0.52716362       0.16161235
C        1.60779897       0.31947051       0.12799207
C        0.21992289       0.07130920      -0.09937398
C       -0.75966847       1.09351198      -0.21699306
C       -1.40545426       0.06065805       0.68194197
O       -1.55861821      -1.20567798       0.08192366
C       -0.30693073      -1.25666531      -0.60804663
H        3.82423561       0.73837648       0.03271499
H       -2.18815009       0.88193830      -0.18420887
H       -0.52746458       2.06749316       0.20045158
H       -1.54403555       0.14785506       1.75614689
H        0.26882495      -2.11109227      -0.24144926
H       -0.41913076      -1.33434081      -1.69271170
13
Frame=15 idx=006508 GeodesicLength=1.4796913556698696 rxn_smarts="[C:1](#[C:2][C@:3]12[C:4]([H:9])([H:10])[C@@:5]1([H:11])[O:6][C:7]2([H:12])[H:13])[H:8]>>[C:1](#[C:2][C:3]1=[C:4]([H:10])[C:5]([H:9])([H:11])[O:6][C:7]1([H:12])[H:13])[H:8]"
C        2.80268396       0.52891691       0.13540417
C        1.62192265       0.31797643       0.11682430
C        0.23037376       0.06677045      -0.07965857
C       -0.75412243       1.08241083      -0.17134694
C       -1.43056512       0.06112255       0.68196131
O       -1.56458937      -1.20267617       0.07098513
C       -0.30223333      -1.25442630      -0.59685046
H        3.83637105       0.74377016      -0.00254150
H       -2.18271828       0.89652253      -0.23454162
H       -0.52885258       2.06168636       0.23425710
H       -1.59489253       0.14187892       1.75306223
H        0.26390979      -2.11285528      -0.22387733
H       -0.39728755      -1.33109739      -1.68367781
13
Frame=16 idx=006508 GeodesicLength=1.577421795799997 rxn_smarts="[C:1](#[C:2][C@:3]12[C:4]([H:9])([H:10])[C@@:5]1([H:11])[O:6][C:7]2([H:12])[H:13])[H:8]>>[C:1](#[C:2][C:3]1=[C:4]([H:10])[C:5]([H:9])([H:11])[O:6][C:7]1([H:12])[H:13])[H:8]"
C        2.81493766       0.53241544       0.10761769
C        1.63486387       0.31736585       0.10349615
C        0.24053149       0.06190977      -0.05897095
C       -0.74911294       1.07008312      -0.12394865
C       -1.45613140       0.06132189       0.68174809
O       -1.57023407      -1.19929724       0.05943501
C       -0.29739662      -1.25223843      -0.58502177
H        3.84734146       0.74806278      -0.03763356
H       -2.17093298       0.91316530      -0.28526057
H       -0.53095747       2.05473525       0.26896576
H       -1.64689092       0.13515767       1.74876362
H        0.25881293      -2.11444373      -0.20568078
H       -0.37483101      -1.32823767      -1.67351004
