15
Frame=0 idx=010994 GeodesicLength=0.0 rxn_smarts="[C:1]([C@@:2]1([O:3][H:11])[C:4]([H:12])([H:13])[C@@:5]2([H:14])[O:6][C@@:7]12[H:15])([H:8])([H:9])[H:10]>>[C:1](=[C:2]1[C:4]([H:12])([H:13])[C@@:5]2([H:14])[O:6][C@@:7]12[H:15])([H:8])[H:9].[O:3]([H:10])[H:11]"
C        1.51117597       0.88844170      -0.39038903
C        0.29545714       0.23723155      -0.12881215
O        1.05087927      -0.64565363       1.43560195
C       -1.03392731       0.73753564       0.44267337
C       -1.69233370      -0.45883547      -0.24823866
O       -1.37596721      -0.33643771      -1.63108601
C       -0.41219665      -0.93264208      -0.77316266
H        2.11401316       0.50881723      -1.20837701
H        1.55720864       1.95649410      -0.21616151
H        1.77291485       0.14511524       0.72499967
H        1.24246487      -1.58949818       1.38983340
H       -1.04417565       0.70163998       1.52846012
H       -1.36063745       1.71196305       0.07933277
H       -2.58479860      -1.00765214       0.01768090
H       -0.04007733      -1.91651928      -1.02235516
15
Frame=1 idx=010994 GeodesicLength=0.049663007645309044 rxn_smarts="[C:1]([C@@:2]1([O:3][H:11])[C:4]([H:12])([H:13])[C@@:5]2([H:14])[O:6][C@@:7]12[H:15])([H:8])([H:9])[H:10]>>[C:1](=[C:2]1[C:4]([H:12])([H:13])[C@@:5]2([H:14])[O:6][C@@:7]12[H:15])([H:8])[H:9].[O:3]([H:10])[H:11]"
C        1.51034390       0.88528268      -0.39044998
C        0.29563626       0.23392633      -0.12194164
O        1.05081566      -0.64540380       1.44901851
C       -1.03577740       0.73875674       0.44088453
C       -1.69285732      -0.45759706      -0.25108641
O       -1.37273883      -0.33631673      -1.63295830
C       -0.41163636      -0.93311046      -0.77244558
H        2.09518978       0.51743024      -1.22675732
H        1.55895072       1.95243481      -0.20941639
H        1.79201552       0.13800948       0.73260491
H        1.24744944      -1.58704476       1.38915826
H       -1.05057633       0.70362178       1.52682460
H       -1.35982391       1.71330629       0.07552067
H       -2.58623108      -1.00582833       0.01313164
H       -0.04076001      -1.91746721      -1.02208752
15
Frame=2 idx=010994 GeodesicLength=0.09933926216673844 rxn_smarts="[C:1]([C@@:2]1([O:3][H:11])[C:4]([H:12])([H:13])[C@@:5]2([H:14])[O:6][C@@:7]12[H:15])([H:8])([H:9])[H:10]>>[C:1](=[C:2]1[C:4]([H:12])([H:13])[C@@:5]2([H:14])[O:6][C@@:7]12[H:15])([H:8])[H:9].[O:3]([H:10])[H:11]"
C        1.50955130       0.88199971      -0.39055702
C        0.29579529       0.23060661      -0.11518923
O        1.05090949      -0.64502822       1.46235700
C       -1.03756601       0.73995173       0.43903018
C       -1.69335104      -0.45638827      -0.25395592
O       -1.36952692      -0.33627080      -1.63485357
C       -0.41107312      -0.93362119      -0.77176898
H        2.07577822       0.52668506      -1.24499233
H        1.56089264       1.94815330      -0.20244771
H        1.81144126       0.13057362       0.73999505
H        1.25203246      -1.58437637       1.38884119
H       -1.05686342       0.70558549       1.52510412
H       -1.35894041       1.71461857       0.07165525
H       -2.58762847      -1.00401828       0.00859578
H       -0.04145127      -1.91847096      -1.02181380
15
Frame=3 idx=010994 GeodesicLength=0.14907665905130796 rxn_smarts="[C:1]([C@@:2]1([O:3][H:11])[C:4]([H:12])([H:13])[C@@:5]2([H:14])[O:6][C@@:7]12[H:15])([H:8])([H:9])[H:10]>>[C:1](=[C:2]1[C:4]([H:12])([H:13])[C@@:5]2([H:14])[O:6][C@@:7]12[H:15])([H:8])[H:9].[O:3]([H:10])[H:11]"
C        1.50880107       0.87858398      -0.39072437
C        0.29592777       0.22727855      -0.10856293
O        1.05115913      -0.64453865       1.47563022
C       -1.03930995       0.74113553       0.43711425
C       -1.69382491      -0.45520545      -0.25684215
O       -1.36635593      -0.33629134      -1.63678777
C       -0.41050916      -0.93417182      -0.77114964
H        2.05582507       0.53653205      -1.26300995
H        1.56302480       1.94364984      -0.19531459
H        1.83117412       0.12284130       0.74721796
H        1.25627402      -1.58152423       1.38885002
H       -1.06305047       0.70754986       1.52331714
H       -1.35801186       1.71592277       0.06773353
H       -2.58898761      -1.00223257       0.00409841
H       -0.04213609      -1.91952982      -1.02157014
15
Frame=4 idx=010994 GeodesicLength=0.19874750099365673 rxn_smarts="[C:1]([C@@:2]1([O:3][H:11])[C:4]([H:12])([H:13])[C@@:5]2([H:14])[O:6][C@@:7]12[H:15])([H:8])([H:9])[H:10]>>[C:1](=[C:2]1[C:4]([H:12])([H:13])[C@@:5]2([H:14])[O:6][C@@:7]12[H:15])([H:8])[H:9].[O:3]([H:10])[H:11]"
C        1.50809641       0.87502512      -0.39093620
C        0.29603761       0.22393219      -0.10205217
O        1.05154594      -0.64389449       1.48880396
C       -1.04098020       0.74228289       0.43511356
C       -1.69426897      -0.45405702      -0.25974940
O       -1.36319886      -0.33640470      -1.63871609
C       -0.40995764      -0.93476285      -0.77055065
H        2.03524714       0.54707285      -1.28078924
H        1.56538371       1.93888082      -0.18796598
H        1.85121438       0.11479337       0.75424071
H        1.26014695      -1.57844182       1.38914051
H       -1.06911526       0.70949851       1.52140514
H       -1.35697670       1.71716860       0.06373391
H       -2.59031194      -1.00046372      -0.00038868
H       -0.04286258      -1.92062973      -1.02128937
15
Frame=5 idx=010994 GeodesicLength=0.24848451153928391 rxn_smarts="[C:1]([C@@:2]1([O:3][H:11])[C:4]([H:12])([H:13])[C@@:5]2([H:14])[O:6][C@@:7]12[H:15])([H:8])([H:9])[H:10]>>[C:1](=[C:2]1[C:4]([H:12])([H:13])[C@@:5]2([H:14])[O:6][C@@:7]12[H:15])([H:8])[H:9].[O:3]([H:10])[H:11]"
C        1.50743502       0.87131810      -0.39122239
C        0.29611638       0.22057245      -0.09566473
O        1.05208983      -0.64312297       1.50191691
C       -1.04261143       0.74342256       0.43304347
C       -1.69470300      -0.45293034      -0.26268058
O       -1.36007772      -0.33659562      -1.64068727
C       -0.40941416      -0.93540325      -0.76999852
H        2.01410414       0.55824726      -1.29828367
H        1.56794645       1.93386016      -0.18046178
H        1.87156219       0.10644979       0.76111175
H        1.26375663      -1.57518150       1.38971472
H       -1.07509028       0.71145782       1.51941882
H       -1.35589207       1.71840816       0.05966110
H       -2.59162027      -0.99870166      -0.00485534
H       -0.04360172      -1.92180094      -1.02101248
15
Frame=6 idx=010994 GeodesicLength=0.29824742374295293 rxn_smarts="[C:1]([C@@:2]1([O:3][H:11])[C:4]([H:12])([H:13])[C@@:5]2([H:14])[O:6][C@@:7]12[H:15])([H:8])([H:9])[H:10]>>[C:1](=[C:2]1[C:4]([H:12])([H:13])[C@@:5]2([H:14])[O:6][C@@:7]12[H:15])([H:8])[H:9].[O:3]([H:10])[H:11]"
C        1.50681409       0.86745510      -0.39158755
C        0.29616059       0.21719782      -0.08940143
O        1.05278113      -0.64221559       1.51495436
C       -1.04419920       0.74454954       0.43089500
C       -1.69512705      -0.45182694      -0.26563450
O       -1.35699430      -0.33686937      -1.64268758
C       -0.40888693      -0.93609067      -0.76948575
H        1.99239670       0.57006759      -1.31543274
H        1.57071969       1.92856823      -0.17281211
H        1.89220531       0.09782231       0.76784030
H        1.26712766      -1.57173229       1.39053460
H       -1.08097037       0.71342665       1.51733958
H       -1.35474449       1.71962902       0.05550485
H       -2.59291214      -0.99694562      -0.00930076
H       -0.04437070      -1.92303576      -1.02072627
15
Frame=7 idx=010994 GeodesicLength=0.3480817229838895 rxn_smarts="[C:1]([C@@:2]1([O:3][H:11])[C:4]([H:12])([H:13])[C@@:5]2([H:14])[O:6][C@@:7]12[H:15])([H:8])([H:9])[H:10]>>[C:1](=[C:2]1[C:4]([H:12])([H:13])[C@@:5]2([H:14])[O:6][C@@:7]12[H:15])([H:8])[H:9].[O:3]([H:10])[H:11]"
C        1.50623593       0.86343242      -0.39204869
C        0.29616798       0.21380868      -0.08326378
O        1.05361931      -0.64117942       1.52792968
C       -1.04575418       0.74567435       0.42867160
C       -1.69554771      -0.45074428      -0.26861191
O       -1.35394718      -0.33722611      -1.64473171
C       -0.40837485      -0.93683353      -0.76901635
H        1.97013218       0.58253780      -1.33221155
H        1.57370382       1.92300519      -0.16503903
H        1.91314431       0.08891590       0.77444817
H        1.27029944      -1.56811352       1.39158858
H       -1.08676983       0.71541645       1.51518214
H       -1.35354546       1.72085082       0.05126170
H       -2.59419891      -0.99519169      -0.01372342
H       -0.04516485      -1.92435305      -1.02043545
15
Frame=8 idx=010994 GeodesicLength=0.397867642815505 rxn_smarts="[C:1]([C@@:2]1([O:3][H:11])[C:4]([H:12])([H:13])[C@@:5]2([H:14])[O:6][C@@:7]12[H:15])([H:8])([H:9])[H:10]>>[C:1](=[C:2]1[C:4]([H:12])([H:13])[C@@:5]2([H:14])[O:6][C@@:7]12[H:15])([H:8])[H:9].[O:3]([H:10])[H:11]"
C        1.50568149       0.85924871      -0.39260945
C        0.29612442       0.21041369      -0.07725181
O        1.05459905      -0.63999320       1.54079714
C       -1.04727174       0.74677475       0.42637185
C       -1.69597273      -0.44968543      -0.27161035
O       -1.35096895      -0.33765422      -1.64678660
C       -0.40790430      -0.93760427      -0.76858949
H        1.94740294       0.59551702      -1.34842609
H        1.57688635       1.91715105      -0.15722276
H        1.93434896       0.07982582       0.78095702
H        1.27333219      -1.56428088       1.39278884
H       -1.09246888       0.71739599       1.51292091
H       -1.35228955       1.72203018       0.04695436
H       -2.59548170      -0.99344518      -0.01813222
H       -0.04601754      -1.92569405      -1.02016136
15
Frame=9 idx=010994 GeodesicLength=0.4476717229805021 rxn_smarts="[C:1]([C@@:2]1([O:3][H:11])[C:4]([H:12])([H:13])[C@@:5]2([H:14])[O:6][C@@:7]12[H:15])([H:8])([H:9])[H:10]>>[C:1](=[C:2]1[C:4]([H:12])([H:13])[C@@:5]2([H:14])[O:6][C@@:7]12[H:15])([H:8])[H:9].[O:3]([H:10])[H:11]"
C        1.50517011       0.85488261      -0.39326854
C        0.29604522       0.20699187      -0.07135936
O        1.05572037      -0.63864326       1.55358362
C       -1.04874019       0.74786036       0.42397096
C       -1.69639252      -0.44865056      -0.27464250
O       -1.34801283      -0.33819823      -1.64886447
C       -0.40746128      -0.93843939      -0.76817894
H        1.92402236       0.60927253      -1.36423905
H        1.58031968       1.91096362      -0.14921884
H        1.95586208       0.07042384       0.78733765
H        1.27618238      -1.56023451       1.39418541
H       -1.09807374       0.71940148       1.51053437
H       -1.35093855       1.72317765       0.04252211
H       -2.59676811      -0.99168571      -0.02254301
H       -0.04693497      -1.92712230      -1.01981942
15
Frame=10 idx=010994 GeodesicLength=0.49755113555352104 rxn_smarts="[C:1]([C@@:2]1([O:3][H:11])[C:4]([H:12])([H:13])[C@@:5]2([H:14])[O:6][C@@:7]12[H:15])([H:8])([H:9])[H:10]>>[C:1](=[C:2]1[C:4]([H:12])([H:13])[C@@:5]2([H:14])[O:6][C@@:7]12[H:15])([H:8])[H:9].[O:3]([H:10])[H:11]"
C        1.50468456       0.85034574      -0.39406270
C        0.29591476       0.20355687      -0.06559513
O        1.05699100      -0.63715427       1.56630091
C       -1.05019217       0.74894832       0.42148915
C       -1.69682639      -0.44763233      -0.27770298
O       -1.34511075      -0.33882805      -1.65099248
C       -0.40705031      -0.93933093      -0.76781332
H        1.90012915       0.62364985      -1.37951618
H        1.58397008       1.90446878      -0.14113673
H        1.97766888       0.06077655       0.79362876
H        1.27894913      -1.55600934       1.39575049
H       -1.10361214       0.72143525       1.50806608
H       -1.34954730       1.72432912       0.03799105
H       -2.59807014      -0.98991883      -0.02693814
H       -0.04789834      -1.92863673      -1.01946880
15
Frame=11 idx=010994 GeodesicLength=0.5474517090386998 rxn_smarts="[C:1]([C@@:2]1([O:3][H:11])[C:4]([H:12])([H:13])[C@@:5]2([H:14])[O:6][C@@:7]12[H:15])([H:8])([H:9])[H:10]>>[C:1](=[C:2]1[C:4]([H:12])([H:13])[C@@:5]2([H:14])[O:6][C@@:7]12[H:15])([H:8])[H:9].[O:3]([H:10])[H:11]"
C        1.50421554       0.84563575      -0.39499677
C        0.29572699       0.20011093      -0.05995809
O        1.05840450      -0.63551479       1.57892402
C       -1.05162466       0.75002794       0.41892091
C       -1.69727794      -0.44663215      -0.28079201
O       -1.34227265      -0.33954388      -1.65315223
C       -0.40668425      -0.94026810      -0.76748722
H        1.87575279       0.63860715      -1.39416323
H        1.58783808       1.89764701      -0.13300227
H        1.99976045       0.05091995       0.79984281
H        1.28166351      -1.55157839       1.39743254
H       -1.10907677       0.72348621       1.50549649
H       -1.34810686       1.72546189       0.03336277
H       -2.59939005      -0.98814537      -0.03132360
H       -0.04892869      -1.93021416      -1.01910411
15
Frame=12 idx=010994 GeodesicLength=0.5973827801562577 rxn_smarts="[C:1]([C@@:2]1([O:3][H:11])[C:4]([H:12])([H:13])[C@@:5]2([H:14])[O:6][C@@:7]12[H:15])([H:8])([H:9])[H:10]>>[C:1](=[C:2]1[C:4]([H:12])([H:13])[C@@:5]2([H:14])[O:6][C@@:7]12[H:15])([H:8])[H:9].[O:3]([H:10])[H:11]"
C        1.50375630       0.84075572      -0.39608218
C        0.29547554       0.19665891      -0.05445602
O        1.05994684      -0.63373846       1.59144661
C       -1.05304430       0.75110514       0.41626812
C       -1.69775213      -0.44565301      -0.28390223
O       -1.33951954      -0.34034126      -1.65534618
C       -0.40636953      -0.94124762      -0.76721394
H        1.85096940       0.65409760      -1.40812098
H        1.59190914       1.89051016      -0.12485844
H        2.02212366       0.04088289       0.80602034
H        1.28435587      -1.54694640       1.39919614
H       -1.11446843       0.72556333       1.50283295
H       -1.34662868       1.72658499       0.02863847
H       -2.60072354      -0.98637868      -0.03567631
H       -0.05003059      -1.93185330      -1.01874636
15
Frame=13 idx=010994 GeodesicLength=0.6473202579468126 rxn_smarts="[C:1]([C@@:2]1([O:3][H:11])[C:4]([H:12])([H:13])[C@@:5]2([H:14])[O:6][C@@:7]12[H:15])([H:8])([H:9])[H:10]>>[C:1](=[C:2]1[C:4]([H:12])([H:13])[C@@:5]2([H:14])[O:6][C@@:7]12[H:15])([H:8])[H:9].[O:3]([H:10])[H:11]"
C        1.50329697       0.83571097      -0.39732565
C        0.29515219       0.19320813      -0.04909468
O        1.06160252      -0.63183547       1.60384890
C       -1.05445735       0.75217785       0.41353250
C       -1.69825582      -0.44469666      -0.28702621
O       -1.33687613      -0.34120996      -1.65756513
C       -0.40611662      -0.94225565      -0.76700317
H        1.82587294       0.67003129      -1.42130245
H        1.59616479       1.88306404      -0.11675938
H        2.04474361       0.03071892       0.81220237
H        1.28706430      -1.54210590       1.40098674
H       -1.11978594       0.72766345       1.50007388
H       -1.34512420       1.72769216       0.02382661
H       -2.60206804      -0.98463076      -0.03997852
H       -0.05121323      -1.93353243      -1.01841582
15
Frame=14 idx=010994 GeodesicLength=0.6972707066397944 rxn_smarts="[C:1]([C@@:2]1([O:3][H:11])[C:4]([H:12])([H:13])[C@@:5]2([H:14])[O:6][C@@:7]12[H:15])([H:8])([H:9])[H:10]>>[C:1](=[C:2]1[C:4]([H:12])([H:13])[C@@:5]2([H:14])[O:6][C@@:7]12[H:15])([H:8])[H:9].[O:3]([H:10])[H:11]"
C        1.50282472       0.83051038      -0.39873742
C        0.29474979       0.18976343      -0.04387471
O        1.06336809      -0.62981173       1.61612847
C       -1.05587363       0.75324903       0.41071874
C       -1.69879633      -0.44376190      -0.29016321
O       -1.33435322      -0.34214308      -1.65981325
C       -0.40593111      -0.94328835      -0.76686105
H        1.80052504       0.68634700      -1.43366103
H        1.60059138       1.87531774      -0.10873378
H        2.06762225       0.02045000       0.81840779
H        1.28982636      -1.53705517       1.40277965
H       -1.12503724       0.72978619       1.49722768
H       -1.34360734       1.72878915       0.01893383
H       -2.60342909      -0.98290392      -0.04422823
H       -0.05247966      -1.93524877      -1.01812348
15
Frame=15 idx=010994 GeodesicLength=0.7472305160180447 rxn_smarts="[C:1]([C@@:2]1([O:3][H:11])[C:4]([H:12])([H:13])[C@@:5]2([H:14])[O:6][C@@:7]12[H:15])([H:8])([H:9])[H:10]>>[C:1](=[C:2]1[C:4]([H:12])([H:13])[C@@:5]2([H:14])[O:6][C@@:7]12[H:15])([H:8])[H:9].[O:3]([H:10])[H:11]"
C        1.50232837       0.82516116      -0.40032371
C        0.29426258       0.18632814      -0.03879651
O        1.06523909      -0.62766729       1.62827902
C       -1.05730009       0.75431831       0.40782770
C       -1.69937967      -0.44284904      -0.29331231
O       -1.33196007      -0.34313773      -1.66208938
C       -0.40581861      -0.94434126      -0.76679003
H        1.77497609       0.70300415      -1.44516155
H        1.60518106       1.86727302      -0.10079571
H        2.09076561       0.01008822       0.82464895
H        1.29266759      -1.53178526       1.40455261
H       -1.13022778       0.73193027       1.49429496
H       -1.34208678       1.72987428       0.01396215
H       -2.60481158      -0.98120030      -0.04842386
H       -0.05383581      -1.93699669      -1.01787231
15
Frame=16 idx=010994 GeodesicLength=0.7971984999383747 rxn_smarts="[C:1]([C@@:2]1([O:3][H:11])[C:4]([H:12])([H:13])[C@@:5]2([H:14])[O:6][C@@:7]12[H:15])([H:8])([H:9])[H:10]>>[C:1](=[C:2]1[C:4]([H:12])([H:13])[C@@:5]2([H:14])[O:6][C@@:7]12[H:15])([H:8])[H:9].[O:3]([H:10])[H:11]"
C        1.50179562       0.81967263      -0.40208959
C        0.29368433       0.18290635      -0.03385989
O        1.06721073      -0.62540481       1.64029539
C       -1.05874481       0.75538600       0.40486201
C       -1.70001224      -0.44195783      -0.29647264
O       -1.32970609      -0.34418894      -1.66439357
C       -0.40578468      -0.94540944      -0.76679353
H        1.74928328       0.71995100      -1.45577257
H        1.60992284       1.85893594      -0.09296293
H        2.11417979      -0.00035098       0.83094155
H        1.29561585      -1.52628883       1.40628262
H       -1.13536424       0.73409375       1.49127905
H       -1.34057327       1.73094778       0.00891617
H       -2.60622055      -0.97952228      -0.05256412
H       -0.05528655      -1.93877035      -1.01766795
