18
Frame=0 idx=004584 GeodesicLength=0.0 rxn_smarts="[C:1]([C:2]([C:3]([H:11])([H:12])[H:13])([C:4]([C:5]([O:6][H:18])([H:16])[H:17])([H:14])[H:15])[H:10])([H:7])([H:8])[H:9]>>[C:1]([C:2]([C:3]([H:11])([H:12])[H:13])([C:4](=[C:5]([H:16])[H:17])[H:14])[H:10])([H:7])([H:8])[H:9].[O:6]([H:15])[H:18]"
C       -1.42524513       0.67642249      -1.15554984
C       -0.60047348      -0.23994019      -0.24950821
C       -1.50370909      -0.95781160       0.75097936
C        0.51077341       0.51000983       0.46096600
C        1.74464299       0.74821522      -0.17521009
O        2.67942173      -0.53999098       0.83344706
H       -0.79833729       1.15772523      -1.90948880
H       -1.90282267       1.46629183      -0.56895757
H       -2.21308533       0.12349792      -1.67406991
H       -0.13302050      -1.00441082      -0.88452053
H       -1.97025346      -0.23976252       1.43159957
H       -0.93742202      -1.66741453       1.35708276
H       -2.30506847      -1.50123295       0.24482612
H        0.19776303       1.24516780       1.19928448
H        1.44555990      -0.36083927       1.04132888
H        2.37754678       1.57466815       0.11880263
H        1.94200183       0.35545553      -1.16820796
H        2.89172783      -1.34605117       0.34719600
18
Frame=1 idx=004584 GeodesicLength=0.05136619183150646 rxn_smarts="[C:1]([C:2]([C:3]([H:11])([H:12])[H:13])([C:4]([C:5]([O:6][H:18])([H:16])[H:17])([H:14])[H:15])[H:10])([H:7])([H:8])[H:9]>>[C:1]([C:2]([C:3]([H:11])([H:12])[H:13])([C:4](=[C:5]([H:16])[H:17])[H:14])[H:10])([H:7])([H:8])[H:9].[O:6]([H:15])[H:18]"
C       -1.42741834       0.68337440      -1.15276960
C       -0.60287686      -0.23998112      -0.25395125
C       -1.50336289      -0.95952232       0.74788211
C        0.51096491       0.50493378       0.45683762
C        1.74594722       0.73826072      -0.18061028
O        2.68379053      -0.54178872       0.85352667
H       -0.80172389       1.16725618      -1.90597008
H       -1.90186566       1.47127641      -0.56095582
H       -2.21846565       0.13440456      -1.67047077
H       -0.13970303      -1.00303544      -0.89359573
H       -1.96838809      -0.24277488       1.43089621
H       -0.93424489      -1.66956796       1.35094291
H       -2.30579479      -1.50174856       0.24222502
H        0.19791095       1.24515407       1.19041624
H        1.44004585      -0.37026940       1.05998838
H        2.36261095       1.58303361       0.09636438
H        1.94149145       0.33676666      -1.17079563
H        2.92108224      -1.33577200       0.36003963
18
Frame=2 idx=004584 GeodesicLength=0.10278531485175599 rxn_smarts="[C:1]([C:2]([C:3]([H:11])([H:12])[H:13])([C:4]([C:5]([O:6][H:18])([H:16])[H:17])([H:14])[H:15])[H:10])([H:7])([H:8])[H:9]>>[C:1]([C:2]([C:3]([H:11])([H:12])[H:13])([C:4](=[C:5]([H:16])[H:17])[H:14])[H:10])([H:7])([H:8])[H:9].[O:6]([H:15])[H:18]"
C       -1.42948215       0.69044427      -1.14986986
C       -0.60529586      -0.24004163      -0.25839753
C       -1.50310557      -0.96128233       0.74469626
C        0.51125379       0.49963896       0.45275254
C        1.74731642       0.72818586      -0.18604474
O        2.68801348      -0.54353546       0.87369226
H       -0.80492626       1.17691048      -1.90226391
H       -1.90070501       1.47635660      -0.55277059
H       -2.22379401       0.14555310      -1.66677511
H       -0.14648182      -1.00164379      -0.90273557
H       -1.96652398      -0.24585114       1.43018806
H       -0.93123711      -1.67190797       1.34461288
H       -2.30668983      -1.50217700       0.23948822
H        0.19828006       1.24484368       1.18168537
H        1.43429390      -0.37983694       1.07885253
H        2.34719209       1.59098524       0.07283315
H        1.94089963       0.31778392      -1.17330647
H        2.95099224      -1.32442584       0.37336250
18
Frame=3 idx=004584 GeodesicLength=0.15408338400489768 rxn_smarts="[C:1]([C:2]([C:3]([H:11])([H:12])[H:13])([C:4]([C:5]([O:6][H:18])([H:16])[H:17])([H:14])[H:15])[H:10])([H:7])([H:8])[H:9]>>[C:1]([C:2]([C:3]([H:11])([H:12])[H:13])([C:4](=[C:5]([H:16])[H:17])[H:14])[H:10])([H:7])([H:8])[H:9].[O:6]([H:15])[H:18]"
C       -1.43136665       0.69761435      -1.14684832
C       -0.60768720      -0.24009667      -0.26283380
C       -1.50284697      -0.96307495       0.74143591
C        0.51161952       0.49413067       0.44871279
C        1.74867997       0.71800642      -0.19150742
O        2.69193340      -0.54529395       0.89387946
H       -0.80790590       1.18667970      -1.89836590
H       -1.89927464       1.48146035      -0.54441306
H       -2.22894588       0.15693393      -1.66297862
H       -0.15331651      -1.00016184      -0.91191359
H       -1.96457454      -0.24902294       1.42947265
H       -0.92832255      -1.67438417       1.33811848
H       -2.30760710      -1.50249903       0.23663227
H        0.19885351       1.24420484       1.17307957
H        1.42823205      -0.38950045       1.09795300
H        2.33123476       1.59839654       0.04820443
H        1.94013756       0.29857829      -1.17573393
H        2.98115716      -1.31197110       0.38710608
18
Frame=4 idx=004584 GeodesicLength=0.2054685824940877 rxn_smarts="[C:1]([C:2]([C:3]([H:11])([H:12])[H:13])([C:4]([C:5]([O:6][H:18])([H:16])[H:17])([H:14])[H:15])[H:10])([H:7])([H:8])[H:9]>>[C:1]([C:2]([C:3]([H:11])([H:12])[H:13])([C:4](=[C:5]([H:16])[H:17])[H:14])[H:10])([H:7])([H:8])[H:9].[O:6]([H:15])[H:18]"
C       -1.43315866       0.70494396      -1.14368009
C       -0.61010285      -0.24016594      -0.26729333
C       -1.50266590      -0.96492884       0.73805807
C        0.51209237       0.48837131       0.44469095
C        1.75010873       0.70766123      -0.19704082
O        2.69570729      -0.54699514       0.91421586
H       -0.81072923       1.19662952      -1.89424236
H       -1.89763244       1.48668371      -0.53581898
H       -2.23408283       0.16863316      -1.65905307
H       -0.16028334      -0.99863860      -0.92120136
H       -1.96258700      -0.25228809       1.42874719
H       -0.92555799      -1.67708351       1.33137400
H       -2.30869839      -1.50271697       0.23361331
H        0.19968018       1.24324953       1.16458123
H        1.42191647      -0.39932511       1.11726691
H        2.31471271       1.60526915       0.02235195
H        1.93930386       0.27893635      -1.17805895
H        3.01197699      -1.29823574       0.40148946
18
Frame=5 idx=004584 GeodesicLength=0.2568096849974095 rxn_smarts="[C:1]([C:2]([C:3]([H:11])([H:12])[H:13])([C:4]([C:5]([O:6][H:18])([H:16])[H:17])([H:14])[H:15])[H:10])([H:7])([H:8])[H:9]>>[C:1]([C:2]([C:3]([H:11])([H:12])[H:13])([C:4](=[C:5]([H:16])[H:17])[H:14])[H:10])([H:7])([H:8])[H:9].[O:6]([H:15])[H:18]"
C       -1.43478290       0.71238575      -1.14037533
C       -0.61250617      -0.24024031      -0.27174907
C       -1.50253435      -0.96682200       0.73459670
C        0.51265858       0.48238280       0.44071072
C        1.75157686       0.69721524      -0.20261678
O        2.69921463      -0.54874939       0.93454595
H       -0.81331575       1.20669355      -1.88991498
H       -1.89572240       1.49196611      -0.52702623
H       -2.23908653       0.18058379      -1.65500454
H       -0.16731865      -0.99705012      -0.93054565
H       -1.96056071      -0.25563504       1.42801899
H       -0.92293943      -1.67994587       1.32444285
H       -2.30989403      -1.50282740       0.23046761
H        0.20072835       1.24196891       1.15622451
H        1.41529823      -0.40927719       1.13680688
H        2.29762231       1.61151833      -0.00462990
H        1.93836372       0.25902505      -1.18028881
H        3.04319825      -1.28319220       0.41633709
18
Frame=6 idx=004584 GeodesicLength=0.3081574910863287 rxn_smarts="[C:1]([C:2]([C:3]([H:11])([H:12])[H:13])([C:4]([C:5]([O:6][H:18])([H:16])[H:17])([H:14])[H:15])[H:10])([H:7])([H:8])[H:9]>>[C:1]([C:2]([C:3]([H:11])([H:12])[H:13])([C:4](=[C:5]([H:16])[H:17])[H:14])[H:10])([H:7])([H:8])[H:9].[O:6]([H:15])[H:18]"
C       -1.43625374       0.71992742      -1.13695015
C       -0.61488955      -0.24031610      -0.27619439
C       -1.50244163      -0.96875496       0.73105661
C        0.51332716       0.47619837       0.43678127
C        1.75310350       0.68671548      -0.20821371
O        2.70246663      -0.55066457       0.95480874
H       -0.81568202       1.21685947      -1.88540001
H       -1.89357635       1.49730657      -0.51806830
H       -2.24396920       0.19274866      -1.65085142
H       -0.17439585      -0.99540393      -0.93992290
H       -1.95850326      -0.25905121       1.42727528
H       -0.92043832      -1.68296121       1.31734934
H       -2.31118039      -1.50285781       0.22719661
H        0.20199730       1.24041176       1.14801128
H        1.40839533      -0.41930905       1.15661660
H        2.28000515       1.61710717      -0.03266752
H        1.93732057       0.23891427      -1.18241160
H        3.07471467      -1.26687034       0.43158427
18
Frame=7 idx=004584 GeodesicLength=0.3594852014958259 rxn_smarts="[C:1]([C:2]([C:3]([H:11])([H:12])[H:13])([C:4]([C:5]([O:6][H:18])([H:16])[H:17])([H:14])[H:15])[H:10])([H:7])([H:8])[H:9]>>[C:1]([C:2]([C:3]([H:11])([H:12])[H:13])([C:4](=[C:5]([H:16])[H:17])[H:14])[H:10])([H:7])([H:8])[H:9].[O:6]([H:15])[H:18]"
C       -1.43755398       0.72756026      -1.13340204
C       -0.61724038      -0.24038873      -0.28062592
C       -1.50237182      -0.97072326       0.72744171
C        0.51409860       0.46982394       0.43290119
C        1.75468527       0.67618192      -0.21383374
O        2.70542841      -0.55280962       0.97495084
H       -0.81781279       1.22711680      -1.88069610
H       -1.89118057       1.50268889      -0.50894677
H       -2.24870510       0.20511750      -1.64658715
H       -0.18149605      -0.99368690      -0.94932551
H       -1.95640330      -0.26253846       1.42651567
H       -0.91804036      -1.68611593       1.31009982
H       -2.31253282      -1.50280622       0.22380712
H        0.20348404       1.23858058       1.13993883
H        1.40119057      -0.42939356       1.17671284
H        2.26184339       1.62197433      -0.06173581
H        1.93617159       0.21863572      -1.18442562
H        3.10643529      -1.24921727       0.44721064
18
Frame=8 idx=004584 GeodesicLength=0.41079680796873674 rxn_smarts="[C:1]([C:2]([C:3]([H:11])([H:12])[H:13])([C:4]([C:5]([O:6][H:18])([H:16])[H:17])([H:14])[H:15])[H:10])([H:7])([H:8])[H:9]>>[C:1]([C:2]([C:3]([H:11])([H:12])[H:13])([C:4](=[C:5]([H:16])[H:17])[H:14])[H:10])([H:7])([H:8])[H:9].[O:6]([H:15])[H:18]"
C       -1.43868131       0.73528574      -1.12972745
C       -0.61955232      -0.24045416      -0.28504565
C       -1.50231400      -0.97272962       0.72375163
C        0.51497721       0.46326649       0.42906455
C        1.75632692       0.66562956      -0.21948697
O        2.70808408      -0.55524728       0.99493546
H       -0.81970815       1.23747151      -1.87580016
H       -1.88853535       1.50810977      -0.49965491
H       -2.25329039       0.21768992      -1.64220611
H       -0.18860987      -0.99189023      -0.95875820
H       -1.95425070      -0.26610315       1.42574336
H       -0.91573040      -1.68941230       1.30269008
H       -2.31393971      -1.50267737       0.22030054
H        0.20519247       1.23648666       1.13200127
H        1.39367291      -0.43950583       1.19711302
H        2.24312935       1.62606259      -0.09182791
H        1.93492496       0.19819500      -1.18633073
H        3.13830431      -1.23017731       0.46323818
18
Frame=9 idx=004584 GeodesicLength=0.4620864289278469 rxn_smarts="[C:1]([C:2]([C:3]([H:11])([H:12])[H:13])([C:4]([C:5]([O:6][H:18])([H:16])[H:17])([H:14])[H:15])[H:10])([H:7])([H:8])[H:9]>>[C:1]([C:2]([C:3]([H:11])([H:12])[H:13])([C:4](=[C:5]([H:16])[H:17])[H:14])[H:10])([H:7])([H:8])[H:9].[O:6]([H:15])[H:18]"
C       -1.43963694       0.74310325      -1.12592099
C       -0.62181862      -0.24050509      -0.28945533
C       -1.50225081      -0.97477391       0.71998256
C        0.51596665       0.45653568       0.42526419
C        1.75802910       0.65507341      -0.22518203
O        2.71041455      -0.55804809       1.01472165
H       -0.82137574       1.24792824      -1.87070415
H       -1.88564494       1.51355899      -0.49018602
H       -2.25772264       0.23046326      -1.63770095
H       -0.19572846      -0.98999807      -0.96822354
H       -1.95202824      -0.26975328       1.42495629
H       -0.91348382      -1.69284631       1.29511053
H       -2.31538107      -1.50247330       0.21667502
H        0.20712745       1.23414157       1.12418841
H        1.38582933      -0.44961275       1.21783494
H        2.22386703       1.62930210      -0.12293458
H        1.93358247       0.17760017      -1.18812320
H        3.17025470      -1.20969586       0.47969720
18
Frame=10 idx=004584 GeodesicLength=0.5133590475267064 rxn_smarts="[C:1]([C:2]([C:3]([H:11])([H:12])[H:13])([C:4]([C:5]([O:6][H:18])([H:16])[H:17])([H:14])[H:15])[H:10])([H:7])([H:8])[H:9]>>[C:1]([C:2]([C:3]([H:11])([H:12])[H:13])([C:4](=[C:5]([H:16])[H:17])[H:14])[H:10])([H:7])([H:8])[H:9].[O:6]([H:15])[H:18]"
C       -1.44041290       0.75100470      -1.12198557
C       -0.62402892      -0.24053942      -0.29385285
C       -1.50217119      -0.97685622       0.71614160
C        0.51707135       0.44964494       0.42149748
C        1.75979726       0.64454361      -0.23092635
O        2.71240099      -0.56131253       1.03424344
H       -0.82280769       1.25847850      -1.86541522
H       -1.88250742       1.51902947      -0.48054694
H       -2.26198957       0.24342045      -1.63307086
H       -0.20283203      -0.98800819      -0.97771534
H       -1.94973235      -0.27348709       1.42415758
H       -0.91128627      -1.69641077       1.28737385
H       -2.31684132      -1.50220375       0.21294047
H        0.20928854       1.23156256       1.11649760
H        1.37764992      -0.45967343       1.23890210
H        2.20406097       1.63164516      -0.15500315
H        1.93215058       0.15689251      -1.18981029
H        3.20219005      -1.18773052       0.49657246
18
Frame=11 idx=004584 GeodesicLength=0.5646181118130258 rxn_smarts="[C:1]([C:2]([C:3]([H:11])([H:12])[H:13])([C:4]([C:5]([O:6][H:18])([H:16])[H:17])([H:14])[H:15])[H:10])([H:7])([H:8])[H:9]>>[C:1]([C:2]([C:3]([H:11])([H:12])[H:13])([C:4](=[C:5]([H:16])[H:17])[H:14])[H:10])([H:7])([H:8])[H:9].[O:6]([H:15])[H:18]"
C       -1.44101155       0.75899214      -1.11791548
C       -0.62617970      -0.24055273      -0.29824205
C       -1.50206351      -0.97897710       0.71222630
C        0.51829614       0.44259815       0.41775332
C        1.76163262       0.63405095      -0.23673865
O        2.71402755      -0.56512560       1.05345421
H       -0.82401094       1.26912707      -1.85992804
H       -1.87912310       1.52451748      -0.47072797
H       -2.26609454       0.25656434      -1.62830554
H       -0.20991812      -0.98591028      -0.98724088
H       -1.94734790      -0.27731017       1.42334914
H       -0.90912057      -1.70010576       1.27947026
H       -2.31831045      -1.50186843       0.20909838
H        0.21168446       1.22875638       1.10891763
H        1.36912066      -0.46965991       1.26032530
H        2.18371794       1.63302209      -0.18801298
H        1.93063451       0.13607195      -1.19139643
H        3.23406649      -1.16419055       0.51391350
18
Frame=12 idx=004584 GeodesicLength=0.6158650074380582 rxn_smarts="[C:1]([C:2]([C:3]([H:11])([H:12])[H:13])([C:4]([C:5]([O:6][H:18])([H:16])[H:17])([H:14])[H:15])[H:10])([H:7])([H:8])[H:9]>>[C:1]([C:2]([C:3]([H:11])([H:12])[H:13])([C:4](=[C:5]([H:16])[H:17])[H:14])[H:10])([H:7])([H:8])[H:9].[O:6]([H:15])[H:18]"
C       -1.44143380       0.76706370      -1.11370657
C       -0.62826431      -0.24054031      -0.30262574
C       -1.50191213      -0.98113766       0.70823681
C        0.51964696       0.43540465       0.41402021
C        1.76353785       0.62361309      -0.24263857
O        2.71527610      -0.56959106       1.07229109
H       -0.82499158       1.27987590      -1.85423956
H       -1.87549411       1.53001547      -0.46072289
H       -2.27003716       0.26988950      -1.62339590
H       -0.21697831      -0.98369430      -0.99680449
H       -1.94485873      -0.28122819       1.42253366
H       -0.90696395      -1.70392855       1.27139465
H       -2.31977236      -1.50147185       0.20515369
H        0.21432303       1.22573582       1.10143551
H        1.36022897      -0.47952948       1.28212045
H        2.16285422       1.63336973      -0.22192656
H        1.92903955       0.11515376      -1.19289084
H        3.26579977      -1.13900023       0.53176504
18
Frame=13 idx=004584 GeodesicLength=0.6671091416590286 rxn_smarts="[C:1]([C:2]([C:3]([H:11])([H:12])[H:13])([C:4]([C:5]([O:6][H:18])([H:16])[H:17])([H:14])[H:15])[H:10])([H:7])([H:8])[H:9]>>[C:1]([C:2]([C:3]([H:11])([H:12])[H:13])([C:4](=[C:5]([H:16])[H:17])[H:14])[H:10])([H:7])([H:8])[H:9].[O:6]([H:15])[H:18]"
C       -1.44168753       0.77522766      -1.10934918
C       -0.63028044      -0.24049682      -0.30701286
C       -1.50170036      -0.98334309       0.70416902
C        0.52113148       0.42806730       0.41027794
C        1.76551497       0.61323386      -0.24866044
O        2.71613062      -0.57480537       1.09069980
H       -0.82576566       1.29074125      -1.84834138
H       -1.87162327       1.53552293      -0.45051107
H       -2.27382889       0.28340686      -1.61832576
H       -0.22401635      -0.98134701      -1.00642505
H       -1.94223915      -0.28525405       1.42171882
H       -0.90479071      -1.70788779       1.26312792
H       -2.32121543      -1.50101594       0.20110889
H        0.21722029       1.22250892       1.09403186
H        1.35096138      -0.48924777       1.30429484
H        2.14148610       1.63261529      -0.25672876
H        1.92737385       0.09412243      -1.19430847
H        3.29732910      -1.11204867       0.55023388
18
Frame=14 idx=004584 GeodesicLength=0.7183459466112367 rxn_smarts="[C:1]([C:2]([C:3]([H:11])([H:12])[H:13])([C:4]([C:5]([O:6][H:18])([H:16])[H:17])([H:14])[H:15])[H:10])([H:7])([H:8])[H:9]>>[C:1]([C:2]([C:3]([H:11])([H:12])[H:13])([C:4](=[C:5]([H:16])[H:17])[H:14])[H:10])([H:7])([H:8])[H:9].[O:6]([H:15])[H:18]"
C       -1.44177274       0.78347305      -1.10484313
C       -0.63221739      -0.24041770      -0.31140413
C       -1.50140666      -0.98559237       0.70002861
C        0.52275745       0.42060385       0.40651363
C        1.76756768       0.60294253      -0.25482647
O        2.71656687      -0.58091865       1.10857806
H       -0.82633984       1.30171423      -1.84223705
H       -1.86751513       1.54102527      -0.44009531
H       -2.27746570       0.29709425      -1.61308771
H       -0.23101570      -0.97886096      -1.01609967
H       -1.93947234      -0.28938864       1.42090687
H       -0.90256929      -1.71196996       1.25467693
H       -2.32261394      -1.50051177       0.19697682
H        0.22038339       1.21909613       1.08669152
H        1.34130905      -0.49874954       1.32686705
H        2.11965495       1.63070901      -0.29233765
H        1.92563933       0.07302769      -1.19567272
H        3.32851001      -1.08327644       0.56936435
18
Frame=15 idx=004584 GeodesicLength=0.7695827551857082 rxn_smarts="[C:1]([C:2]([C:3]([H:11])([H:12])[H:13])([C:4]([C:5]([O:6][H:18])([H:16])[H:17])([H:14])[H:15])[H:10])([H:7])([H:8])[H:9]>>[C:1]([C:2]([C:3]([H:11])([H:12])[H:13])([C:4](=[C:5]([H:16])[H:17])[H:14])[H:10])([H:7])([H:8])[H:9].[O:6]([H:15])[H:18]"
C       -1.44169749       0.79180360      -1.10018096
C       -0.63407277      -0.24029933      -0.31580802
C       -1.50101230      -0.98788632       0.69581589
C        0.52453435       0.41301514       0.40270254
C        1.76969606       0.59274247      -0.26117921
O        2.71656188      -0.58808083       1.12583121
H       -0.82673198       1.31280213      -1.83592332
H       -1.86317016       1.54652036      -0.42946087
H       -2.28095986       0.31095704      -1.60766397
H       -0.23798123      -0.97622727      -1.02584287
H       -1.93652999      -0.29363704       1.42010535
H       -0.90027132      -1.71617501       1.24603132
H       -2.32395434      -1.49995876       0.19276846
H        0.22383201       1.21550101       1.07939227
H        1.33126304      -0.50799733       1.34983532
H        2.09739362       1.62758609      -0.32870101
H        1.92383768       0.05187331      -1.19701586
H        3.35926279      -1.05253925       0.58929374
18
Frame=16 idx=004584 GeodesicLength=0.8208189801248792 rxn_smarts="[C:1]([C:2]([C:3]([H:11])([H:12])[H:13])([C:4]([C:5]([O:6][H:18])([H:16])[H:17])([H:14])[H:15])[H:10])([H:7])([H:8])[H:9]>>[C:1]([C:2]([C:3]([H:11])([H:12])[H:13])([C:4](=[C:5]([H:16])[H:17])[H:14])[H:10])([H:7])([H:8])[H:9].[O:6]([H:15])[H:18]"
C       -1.44146344       0.80021463      -1.09535677
C       -0.63584420      -0.24014140      -0.32022913
C       -1.50050428      -0.99022021       0.69153497
C        0.52647469       0.40529824       0.39882263
C        1.77190182       0.58263835      -0.26775985
O        2.71608880      -0.59649045       1.14232800
H       -0.82694988       1.32399746      -1.82939879
H       -1.85857960       1.55200143      -0.41860032
H       -2.28431819       0.32499091      -1.60203775
H       -0.24491895      -0.97344376      -1.03565967
H       -1.93339042      -0.29799436       1.41931832
H       -0.89787803      -1.72049110       1.23719149
H       -2.32522921      -1.49935318       0.18849932
H        0.22759151       1.21171999       1.07211697
H        1.32082074      -0.51695426       1.37319181
H        2.07474363       1.62319201      -0.36574017
H        1.92196416       0.03068334      -1.19837934
H        3.38949084      -1.01964763       0.61015828
