14
Frame=0 idx=005417 GeodesicLength=0.0 rxn_smarts="[C:1]([C:2]([C@@:3]([O:4][H:13])([C:5]#[C:6][H:14])[H:12])([H:10])[H:11])([H:7])([H:8])[H:9]>>[C:1]([C:2]([C:3](=[C:5]=[C:6]([O:4][H:13])[H:14])[H:12])([H:10])[H:11])([H:7])([H:8])[H:9]"
C       -1.72015310       1.07688697       0.02439521
C       -0.92491043      -0.22325119      -0.06223763
C        0.50037499       0.01236172       0.34375358
O        1.28955999      -1.46664947       0.16873069
C        1.43091112       0.69161367      -0.55391278
C        2.14082849      -0.38328636      -0.72627697
H       -1.71123852       1.48466770       1.03787953
H       -2.75981860       0.90362186      -0.25529941
H       -1.29894879       1.82813985      -0.64359982
H       -0.93459492      -0.60551290      -1.08514622
H       -1.36414985      -0.98575969       0.58611352
H        0.61480240       0.23326074       1.40804488
H        1.77028885      -1.69648027       0.97506341
H        2.96704840      -0.86961261      -1.21750803
14
Frame=1 idx=005417 GeodesicLength=0.08452298735906821 rxn_smarts="[C:1]([C:2]([C@@:3]([O:4][H:13])([C:5]#[C:6][H:14])[H:12])([H:10])[H:11])([H:7])([H:8])[H:9]>>[C:1]([C:2]([C:3](=[C:5]=[C:6]([O:4][H:13])[H:14])[H:12])([H:10])[H:11])([H:7])([H:8])[H:9]"
C       -1.72431692       1.08186341       0.02065748
C       -0.93193991      -0.22024585      -0.05990641
C        0.49319231       0.00744797       0.35379186
O        1.30184500      -1.48331848       0.18029639
C        1.42851672       0.67409874      -0.54110334
C        2.15631151      -0.38311711      -0.72574587
H       -1.71815768       1.49211301       1.03316470
H       -2.76345019       0.91122018      -0.26273662
H       -1.29926516       1.83080639      -0.64767759
H       -0.93890947      -0.60510719      -1.08185586
H       -1.37679177      -0.98002843       0.58788312
H        0.60176400       0.24155040       1.41590184
H        1.79993271      -1.71246456       0.97554722
H        2.97126886      -0.85481848      -1.24821692
14
Frame=2 idx=005417 GeodesicLength=0.1690134605572843 rxn_smarts="[C:1]([C:2]([C@@:3]([O:4][H:13])([C:5]#[C:6][H:14])[H:12])([H:10])[H:11])([H:7])([H:8])[H:9]>>[C:1]([C:2]([C:3](=[C:5]=[C:6]([O:4][H:13])[H:14])[H:12])([H:10])[H:11])([H:7])([H:8])[H:9]"
C       -1.72835340       1.08696353       0.01673761
C       -0.93915624      -0.21728807      -0.05739245
C        0.48574489       0.00222630       0.36417150
O        1.31443071      -1.50041087       0.19215344
C        1.42601281       0.65581585      -0.52801856
C        2.17176715      -0.38287955      -0.72545489
H       -1.72497072       1.49989686       1.02816677
H       -2.76693647       0.91910345      -0.27044468
H       -1.29920481       1.83335207      -0.65202450
H       -0.94340963      -0.60497892      -1.07828227
H       -1.38980385      -0.97411973       0.58991331
H        0.58850568       0.25000536       1.42379005
H        1.83042722      -1.72900976       0.97537898
H        2.97494669      -0.83867650      -1.27869430
14
Frame=3 idx=005417 GeodesicLength=0.2534771869676008 rxn_smarts="[C:1]([C:2]([C@@:3]([O:4][H:13])([C:5]#[C:6][H:14])[H:12])([H:10])[H:11])([H:7])([H:8])[H:9]>>[C:1]([C:2]([C:3](=[C:5]=[C:6]([O:4][H:13])[H:14])[H:12])([H:10])[H:11])([H:7])([H:8])[H:9]"
C       -1.73226969       1.09220582       0.01265708
C       -0.94661243      -0.21437980      -0.05466489
C        0.47800232      -0.00332443       0.37483879
O        1.32728325      -1.51797524       0.20422497
C        1.42332955       0.63667235      -0.51478442
C        2.18707144      -0.38262186      -0.72558916
H       -1.73161726       1.50807724       1.02288863
H       -2.77030218       0.92730600      -0.27834117
H       -1.29878908       1.83575487      -0.65666635
H       -0.94821903      -0.60517173      -1.07437692
H       -1.40322478      -0.96799345       0.59228656
H        0.57507467       0.25865653       1.43161726
H        1.86177699      -1.74617235       0.97438043
H        2.97849623      -0.82103397      -1.30847082
14
Frame=4 idx=005417 GeodesicLength=0.337915373677129 rxn_smarts="[C:1]([C:2]([C@@:3]([O:4][H:13])([C:5]#[C:6][H:14])[H:12])([H:10])[H:11])([H:7])([H:8])[H:9]>>[C:1]([C:2]([C:3](=[C:5]=[C:6]([O:4][H:13])[H:14])[H:12])([H:10])[H:11])([H:7])([H:8])[H:9]"
C       -1.73605697       1.09759191       0.00840164
C       -0.95431970      -0.21152339      -0.05170291
C        0.46994676      -0.00920897       0.38581923
O        1.34041500      -1.53602678       0.21653221
C        1.42045055       0.61661950      -0.50138273
C        2.20218504      -0.38232145      -0.72615688
H       -1.73808643       1.51667845       1.01730516
H       -2.77353553       0.93583306      -0.28644381
H       -1.29799870       1.83799132      -0.66162807
H       -0.95335539      -0.60571307      -1.07010694
H       -1.41707539      -0.96162522       0.59503868
H        0.56146767       0.26753241       1.43937910
H        1.89400183      -1.76398860       0.97245952
H        2.98196127      -0.80183916      -1.33751422
14
Frame=5 idx=005417 GeodesicLength=0.42233180520485647 rxn_smarts="[C:1]([C:2]([C@@:3]([O:4][H:13])([C:5]#[C:6][H:14])[H:12])([H:10])[H:11])([H:7])([H:8])[H:9]>>[C:1]([C:2]([C:3](=[C:5]=[C:6]([O:4][H:13])[H:14])[H:12])([H:10])[H:11])([H:7])([H:8])[H:9]"
C       -1.73971200       1.10312692       0.00396713
C       -0.96229978      -0.20872061      -0.04848448
C        0.46155810      -0.01543544       0.39711513
O        1.35382881      -1.55459348       0.22907993
C        1.41734360       0.59559710      -0.48783809
C        2.21705444      -0.38197172      -0.72719998
H       -1.74435701       1.52573098       1.01139951
H       -2.77663751       0.94469643      -0.29474336
H       -1.29682473       1.84004131      -0.66693271
H       -0.95886304      -0.60663468      -1.06543730
H       -1.43138208      -0.95498853       0.59821396
H        0.54770006       0.27666636       1.44703892
H        1.92711356      -1.78250158       0.96951962
H        2.98547758      -0.78101307      -1.36569828
14
Frame=6 idx=005417 GeodesicLength=0.5067256273395675 rxn_smarts="[C:1]([C:2]([C@@:3]([O:4][H:13])([C:5]#[C:6][H:14])[H:12])([H:10])[H:11])([H:7])([H:8])[H:9]>>[C:1]([C:2]([C:3](=[C:5]=[C:6]([O:4][H:13])[H:14])[H:12])([H:10])[H:11])([H:7])([H:8])[H:9]"
C       -1.74321620       1.10880702      -0.00067245
C       -0.97055726      -0.20597443      -0.04498293
C        0.45282080      -0.02200548       0.40877111
O        1.36754376      -1.57369126       0.24191077
C        1.41399861       0.57354670      -0.47410966
C        2.23164902      -0.38153959      -0.72868679
H       -1.75041441       1.53525974       1.00512923
H       -2.77958127       0.95389348      -0.30328039
H       -1.29523230       1.84186778      -0.67261554
H       -0.96474893      -0.60797042      -1.06032360
H       -1.44616320      -0.94805165       0.60185350
H        0.53376613       0.28609371       1.45460091
H        1.96112581      -1.80176479       0.96544726
H        2.98900944      -0.75847081      -1.39304142
14
Frame=7 idx=005417 GeodesicLength=0.5911070544508775 rxn_smarts="[C:1]([C:2]([C@@:3]([O:4][H:13])([C:5]#[C:6][H:14])[H:12])([H:10])[H:11])([H:7])([H:8])[H:9]>>[C:1]([C:2]([C:3](=[C:5]=[C:6]([O:4][H:13])[H:14])[H:12])([H:10])[H:11])([H:7])([H:8])[H:9]"
C       -1.74656014       1.11463601      -0.00552716
C       -0.97911493      -0.20328870      -0.04116881
C        0.44371494      -0.02892431       0.42079129
O        1.38156401      -1.59335460       0.25503327
C        1.41038132       0.55038808      -0.46022610
C        2.24590431      -0.38101503      -0.73065963
H       -1.75622613       1.54530573       0.99846552
H       -2.78236142       0.96343315      -0.31204793
H       -1.29320576       1.84343514      -0.67871327
H       -0.97106541      -0.60976597      -1.05471778
H       -1.46144539      -0.94077899       0.60601912
H        0.51969224       0.29585428       1.46202303
H        1.99603703      -1.82184169       0.96011690
H        2.99268533      -0.73408311      -1.41938845
14
Frame=8 idx=005417 GeodesicLength=0.6754737629835439 rxn_smarts="[C:1]([C:2]([C@@:3]([O:4][H:13])([C:5]#[C:6][H:14])[H:12])([H:10])[H:11])([H:7])([H:8])[H:9]>>[C:1]([C:2]([C:3](=[C:5]=[C:6]([O:4][H:13])[H:14])[H:12])([H:10])[H:11])([H:7])([H:8])[H:9]"
C       -1.74971216       1.12059977      -0.01063812
C       -0.98796369      -0.20066407      -0.03701842
C        0.43422984      -0.03618793       0.43324080
O        1.39592725      -1.61359660       0.26853281
C        1.40649505       0.52607000      -0.44610534
C        2.25981586      -0.38034934      -0.73302768
H       -1.76177685       1.55588103       0.99134488
H       -2.78493328       0.97329930      -0.32111913
H       -1.29069209       1.84469613      -0.68526136
H       -0.97779282      -0.61204872      -1.04857195
H       -1.47724068      -0.93313231       0.61073657
H        0.50547039       0.30598484       1.46932173
H        2.03185596      -1.84280355       0.95342062
H        2.99631724      -0.70774855      -1.44485541
14
Frame=9 idx=005417 GeodesicLength=0.7597857221398046 rxn_smarts="[C:1]([C:2]([C@@:3]([O:4][H:13])([C:5]#[C:6][H:14])[H:12])([H:10])[H:11])([H:7])([H:8])[H:9]>>[C:1]([C:2]([C:3](=[C:5]=[C:6]([O:4][H:13])[H:14])[H:12])([H:10])[H:11])([H:7])([H:8])[H:9]"
C       -1.75266592       1.12670267      -0.01600896
C       -0.99716810      -0.19810426      -0.03244930
C        0.42433595      -0.04380233       0.44608427
O        1.41062916      -1.63446730       0.28230923
C        1.40221343       0.50046037      -0.43191466
C        2.27324392      -0.37955245      -0.73591901
H       -1.76694157       1.56710287       0.98371014
H       -2.78731881       0.98349743      -0.33038992
H       -1.28772755       1.84554539      -0.69237419
H       -0.98511273      -0.61493343      -1.04175167
H       -1.49359025      -0.92501096       0.61619772
H        0.49118841       0.31656802       1.47636119
H        2.06853605      -1.86475249       0.94483825
H        3.00037800      -0.67925354      -1.46869307
14
Frame=10 idx=005417 GeodesicLength=0.8440751023906632 rxn_smarts="[C:1]([C:2]([C@@:3]([O:4][H:13])([C:5]#[C:6][H:14])[H:12])([H:10])[H:11])([H:7])([H:8])[H:9]>>[C:1]([C:2]([C:3](=[C:5]=[C:6]([O:4][H:13])[H:14])[H:12])([H:10])[H:11])([H:7])([H:8])[H:9]"
C       -1.75536317       1.13292088      -0.02171684
C       -1.00666595      -0.19561544      -0.02746835
C        0.41403835      -0.05176021       0.45946231
O        1.42573302      -1.65596940       0.29657172
C        1.39763273       0.47354180      -0.41738683
C        2.28627041      -0.37850428      -0.73906496
H       -1.77176661       1.57893144       0.97547691
H       -2.78942309       0.99400272      -0.34005849
H       -1.28418006       1.84596103      -0.70006374
H       -0.99286660      -0.61841581      -1.03425578
H       -1.51048630      -0.91641867       0.62233528
H        0.47678700       0.32759711       1.48325572
H        2.10608700      -1.88777086       0.93454201
H        3.00420329      -0.64850033      -1.49162897
14
Frame=11 idx=005417 GeodesicLength=0.9283358300746164 rxn_smarts="[C:1]([C:2]([C@@:3]([O:4][H:13])([C:5]#[C:6][H:14])[H:12])([H:10])[H:11])([H:7])([H:8])[H:9]>>[C:1]([C:2]([C:3](=[C:5]=[C:6]([O:4][H:13])[H:14])[H:12])([H:10])[H:11])([H:7])([H:8])[H:9]"
C       -1.75777057       1.13924530      -0.02780172
C       -1.01646969      -0.19320780      -0.02202669
C        0.40332229      -0.06006374       0.47340658
O        1.44125812      -1.67814287       0.31134664
C        1.39271796       0.44521531      -0.40251204
C        2.29884318      -0.37714226      -0.74242045
H       -1.77618188       1.59143248       0.96656539
H       -2.79121733       1.00480880      -0.35014196
H       -1.28001158       1.84586090      -0.70842466
H       -1.00110264      -0.62257916      -1.02599962
H       -1.52794760      -0.90729356       0.62925264
H        0.46230597       0.33911838       1.48997015
H        2.14447057      -1.91197285       0.92228646
H        3.00778320      -0.61527893      -1.51350072
14
Frame=12 idx=005417 GeodesicLength=1.012557813235213 rxn_smarts="[C:1]([C:2]([C@@:3]([O:4][H:13])([C:5]#[C:6][H:14])[H:12])([H:10])[H:11])([H:7])([H:8])[H:9]>>[C:1]([C:2]([C:3](=[C:5]=[C:6]([O:4][H:13])[H:14])[H:12])([H:10])[H:11])([H:7])([H:8])[H:9]"
C       -1.75985332       1.14566683      -0.03430094
C       -1.02659731      -0.19089422      -0.01607654
C        0.39217650      -0.06871380       0.48792473
O        1.45723065      -1.70103820       0.32665839
C        1.38741881       0.41537270      -0.38731680
C        2.31091415      -0.37540661      -0.74593895
H       -1.78009942       1.60467655       0.95689462
H       -2.79267982       1.01590597      -0.36063332
H       -1.27519133       1.84515697      -0.71755138
H       -1.00989258      -0.62751339      -1.01689100
H       -1.54599455      -0.89757022       0.63705768
H        0.44781201       0.35117672       1.49642767
H        2.18360883      -1.93748010       0.90784694
H        3.01114738      -0.57933921      -1.53410111
14
Frame=13 idx=005417 GeodesicLength=1.0967177484752308 rxn_smarts="[C:1]([C:2]([C@@:3]([O:4][H:13])([C:5]#[C:6][H:14])[H:12])([H:10])[H:11])([H:7])([H:8])[H:9]>>[C:1]([C:2]([C:3](=[C:5]=[C:6]([O:4][H:13])[H:14])[H:12])([H:10])[H:11])([H:7])([H:8])[H:9]"
C       -1.76157355       1.15216288      -0.04126157
C       -1.03706321      -0.18868427      -0.00955054
C        0.38059879      -0.07769447       0.50302775
O        1.47366948      -1.72469633       0.34252828
C        1.38167962       0.38389071      -0.37184400
C        2.32243633      -0.37321027      -0.74954217
H       -1.78340748       1.61874703       0.94635837
H       -2.79378506       1.02726513      -0.37152476
H       -1.26970164       1.84372290      -0.72757883
H       -1.01932352      -0.63333205      -1.00680535
H       -1.56462657      -0.88715926       0.64590294
H        0.43339814       0.36385197       1.50254179
H        2.22337008      -1.96446862       0.89086124
H        3.01432860      -0.54039535      -1.55311315
14
Frame=14 idx=005417 GeodesicLength=1.1808168437157656 rxn_smarts="[C:1]([C:2]([C@@:3]([O:4][H:13])([C:5]#[C:6][H:14])[H:12])([H:10])[H:11])([H:7])([H:8])[H:9]>>[C:1]([C:2]([C:3](=[C:5]=[C:6]([O:4][H:13])[H:14])[H:12])([H:10])[H:11])([H:7])([H:8])[H:9]"
C       -1.76284864       1.15869866      -0.04877186
C       -1.04786056      -0.18658933      -0.00237666
C        0.36858619      -0.08700505       0.51880514
O        1.49062643      -1.74917771       0.35904113
C        1.37548646       0.35063289      -0.35599639
C        2.33332303      -0.37047185      -0.75312470
H       -1.78598211       1.63371187       0.93478998
H       -2.79444959       1.03885454      -0.38290353
H       -1.26343732       1.84139772      -0.73864747
H       -1.02942580      -0.64014502      -0.99559476
H       -1.58385669      -0.87594855       0.65591694
H        0.41911193       0.37719605       1.50828782
H        2.26366379      -1.99309436       0.87097494
H        3.01706289      -0.49805987      -1.57040059
14
Frame=15 idx=005417 GeodesicLength=1.264835681214879 rxn_smarts="[C:1]([C:2]([C@@:3]([O:4][H:13])([C:5]#[C:6][H:14])[H:12])([H:10])[H:11])([H:7])([H:8])[H:9]>>[C:1]([C:2]([C:3](=[C:5]=[C:6]([O:4][H:13])[H:14])[H:12])([H:10])[H:11])([H:7])([H:8])[H:9]"
C       -1.76359832       1.16523269      -0.05691131
C       -1.05897866      -0.18462384       0.00551551
C        0.35614884      -0.09662355       0.53530453
O        1.50816760      -1.77453234       0.37628775
C        1.36880724       0.31546648      -0.33973516
C        2.34349394      -0.36708116      -0.75656955
H       -1.78768199       1.64963862       0.92202813
H       -2.79459880       1.05062508      -0.39481852
H       -1.25631628       1.83802040      -0.75090420
H       -1.04024263      -0.64807366      -0.98311217
H       -1.60367689      -0.86383467       0.66723828
H        0.40504818       0.39127228       1.51358992
H        2.30431161      -2.02351715       0.84777777
H        3.01911617      -0.45196920      -1.58569096
14
Frame=16 idx=005417 GeodesicLength=1.3487684534738082 rxn_smarts="[C:1]([C:2]([C@@:3]([O:4][H:13])([C:5]#[C:6][H:14])[H:12])([H:10])[H:11])([H:7])([H:8])[H:9]>>[C:1]([C:2]([C:3](=[C:5]=[C:6]([O:4][H:13])[H:14])[H:12])([H:10])[H:11])([H:7])([H:8])[H:9]"
C       -1.76374737       1.17172240      -0.06578461
C       -1.07043806      -0.18280759       0.01426388
C        0.34329506      -0.10652361       0.55255891
O        1.52632536      -1.80084302       0.39435939
C        1.36156244       0.27818188      -0.32310706
C        2.35274055      -0.36302147      -0.75987778
H       -1.78829093       1.66669060       0.90783822
H       -2.79418880       1.06252391      -0.40726411
H       -1.24829887       1.83333908      -0.76462821
H       -1.05191948      -0.65733479      -0.96909291
H       -1.62408077      -0.85064004       0.68017129
H        0.39136657       0.40620461       1.51830866
H        2.34506465      -2.05604049       0.82057176
H        3.02060966      -0.40145148      -1.59831743
