17
Frame=0 idx=009551 GeodesicLength=0.0 rxn_smarts="[C:1]([O:2][C@@:3]1([H:11])[C@@:4]2([H:12])[C:5]([H:13])([H:14])[C:6]([H:15])([H:16])[C@@:7]12[H:17])([H:8])([H:9])[H:10]>>[C:1](=[O:2])([H:8])[H:9].[C:3]1([H:11])=[C:4]([H:12])[C:5]([H:13])([H:14])[C:6]([H:15])([H:16])[C:7]1([H:10])[H:17]"
C        2.11352756       0.24762168       0.58375552
O        1.37605177      -0.68149072       1.16962868
C        0.19011838      -1.15024757      -0.10765787
C       -1.12974080      -1.15973527       0.29590516
C       -1.75794420       0.18966679       0.39681689
C       -0.84121320       1.03030524      -0.49636355
C        0.15441357       0.00505951      -0.98205207
H        3.08935877      -0.07923258       0.18789147
H        2.19824595       1.19757706       1.13178642
H        1.54432605       0.57668880      -0.42948309
H        0.66666774      -2.06787633      -0.42401383
H       -1.67066750      -2.06535572       0.55112140
H       -2.77494106       0.18260384      -0.00189293
H       -1.82684360       0.52671403       1.43675018
H       -1.39251171       1.47769486      -1.32330911
H       -0.35050433       1.84355460       0.04420980
H        0.41165669      -0.07354830      -2.03309309
17
Frame=1 idx=009551 GeodesicLength=0.10517360195324095 rxn_smarts="[C:1]([O:2][C@@:3]1([H:11])[C@@:4]2([H:12])[C:5]([H:13])([H:14])[C:6]([H:15])([H:16])[C@@:7]12[H:17])([H:8])([H:9])[H:10]>>[C:1](=[O:2])([H:8])[H:9].[C:3]1([H:11])=[C:4]([H:12])[C:5]([H:13])([H:14])[C:6]([H:15])([H:16])[C:7]1([H:10])[H:17]"
C        2.12610972       0.24236418       0.59618588
O        1.39226155      -0.69243614       1.17518471
C        0.19163736      -1.14934130      -0.10780657
C       -1.13488004      -1.15697237       0.27336222
C       -1.75383632       0.19502255       0.40566574
C       -0.84967950       1.03180749      -0.50456363
C        0.14339708       0.00254091      -0.98961263
H        3.11907606      -0.07191035       0.23547238
H        2.17388428       1.19956052       1.13623375
H        1.55290436       0.56566902      -0.44750752
H        0.67152663      -2.06518659      -0.42520374
H       -1.67634499      -2.06338202       0.52438494
H       -2.77990543       0.19790983       0.03105966
H       -1.79547365       0.52566373       1.44887709
H       -1.41175689       1.46686824      -1.33094970
H       -0.35959482       1.85431000       0.02195787
H        0.39067463      -0.08248770      -2.04274045
17
Frame=2 idx=009551 GeodesicLength=0.210279794470575 rxn_smarts="[C:1]([O:2][C@@:3]1([H:11])[C@@:4]2([H:12])[C:5]([H:13])([H:14])[C:6]([H:15])([H:16])[C@@:7]12[H:17])([H:8])([H:9])[H:10]>>[C:1](=[O:2])([H:8])[H:9].[C:3]1([H:11])=[C:4]([H:12])[C:5]([H:13])([H:14])[C:6]([H:15])([H:16])[C:7]1([H:10])[H:17]"
C        2.13923957       0.23674396       0.60877355
O        1.40961197      -0.70461948       1.18004368
C        0.19294432      -1.14810765      -0.10805632
C       -1.13964473      -1.15354075       0.25178985
C       -1.74966894       0.20036488       0.41419626
C       -0.85834783       1.03348597      -0.51273386
C        0.13218070       0.00023747      -0.99729380
H        3.14868559      -0.06308171       0.28459040
H        2.14930412       1.19995767       1.14032978
H        1.56153923       0.55431148      -0.46601380
H        0.67567659      -2.06227429      -0.42695469
H       -1.68154505      -2.06069281       0.49897122
H       -2.78396943       0.21230319       0.06333885
H       -1.76481232       0.52500366       1.45980124
H       -1.43125408       1.45628387      -1.33816611
H       -0.36908382       1.86496373      -0.00017661
H        0.36914413      -0.09133918      -2.05243965
17
Frame=3 idx=009551 GeodesicLength=0.31534414704828795 rxn_smarts="[C:1]([O:2][C@@:3]1([H:11])[C@@:4]2([H:12])[C:5]([H:13])([H:14])[C:6]([H:15])([H:16])[C@@:7]12[H:17])([H:8])([H:9])[H:10]>>[C:1](=[O:2])([H:8])[H:9].[C:3]1([H:11])=[C:4]([H:12])[C:5]([H:13])([H:14])[C:6]([H:15])([H:16])[C:7]1([H:10])[H:17]"
C        2.15297750       0.23075210       0.62149314
O        1.42807895      -0.71795083       1.18417158
C        0.19409047      -1.14652470      -0.10839880
C       -1.14402897      -1.14949657       0.23119821
C       -1.74546751       0.20570610       0.42241640
C       -0.86722967       1.03533857      -0.52086814
C        0.12074737      -0.00184854      -1.00510040
H        3.17807586      -0.05283121       0.33540272
H        2.12466633       1.19869766       1.14398902
H        1.57019382       0.54267293      -0.48508188
H        0.67921828      -2.05910192      -0.42921427
H       -1.68626812      -2.05736720       0.47480636
H       -2.78721318       0.22580693       0.09491182
H       -1.73489585       0.52478342       1.46958944
H       -1.45100119       1.44595306      -1.34495539
H       -0.37898310       1.87551980      -0.02217588
H        0.34703899      -0.10010961      -2.06218391
17
Frame=4 idx=009551 GeodesicLength=0.42039998178455856 rxn_smarts="[C:1]([O:2][C@@:3]1([H:11])[C@@:4]2([H:12])[C:5]([H:13])([H:14])[C:6]([H:15])([H:16])[C@@:7]12[H:17])([H:8])([H:9])[H:10]>>[C:1](=[O:2])([H:8])[H:9].[C:3]1([H:11])=[C:4]([H:12])[C:5]([H:13])([H:14])[C:6]([H:15])([H:16])[C:7]1([H:10])[H:17]"
C        2.16737269       0.22438154       0.63433669
O        1.44762094      -0.73234205       1.18752783
C        0.19512322      -1.14457440      -0.10884328
C       -1.14803008      -1.14489850       0.21156565
C       -1.74123643       0.21106073       0.43034559
C       -0.87633754       1.03735907      -0.52897327
C        0.10908099      -0.00371750      -1.01305063
H        3.20709519      -0.04123140       0.38812886
H        2.10011598       1.19572183       1.14712861
H        1.57883497       0.53079646      -0.50480667
H        0.68225026      -2.05563719      -0.43195340
H       -1.69050922      -2.05348105       0.45182011
H       -2.78970650       0.23847196       0.12580622
H       -1.70569467       0.52504171       1.47832288
H       -1.47101283       1.43586809      -1.35132379
H       -0.38930353       1.88598695      -0.04405268
H        0.32433659      -0.10880627      -2.07197873
17
Frame=5 idx=009551 GeodesicLength=0.5255993032233268 rxn_smarts="[C:1]([O:2][C@@:3]1([H:11])[C@@:4]2([H:12])[C:5]([H:13])([H:14])[C:6]([H:15])([H:16])[C@@:7]12[H:17])([H:8])([H:9])[H:10]>>[C:1](=[O:2])([H:8])[H:9].[C:3]1([H:11])=[C:4]([H:12])[C:5]([H:13])([H:14])[C:6]([H:15])([H:16])[C:7]1([H:10])[H:17]"
C        2.18246335       0.21760319       0.64739355
O        1.46818737      -0.74773213       1.19009296
C        0.19609200      -1.14223156      -0.10940391
C       -1.15163120      -1.13976909       0.19287356
C       -1.73697599       0.21643390       0.43800115
C       -0.88568499       1.03954502      -0.53705635
C        0.09717269      -0.00536214      -1.02116245
H        3.23558349      -0.02845239       0.44287440
H        2.07572926       1.19109454       1.14967800
H        1.58745433       0.51871215      -0.52529220
H        0.68486231      -2.05185014      -0.43515326
H       -1.69423992      -2.04907079       0.42996243
H       -2.79148310       0.25032942       0.15606530
H       -1.67718044       0.52577908       1.48604813
H       -1.49130951       1.42601921      -1.35727700
H       -0.40006055       1.89637946      -0.06581722
H        0.30102088      -0.11742774      -2.08182710
17
Frame=6 idx=009551 GeodesicLength=0.6308663858220953 rxn_smarts="[C:1]([O:2][C@@:3]1([H:11])[C@@:4]2([H:12])[C:5]([H:13])([H:14])[C:6]([H:15])([H:16])[C@@:7]12[H:17])([H:8])([H:9])[H:10]>>[C:1](=[O:2])([H:8])[H:9].[C:3]1([H:11])=[C:4]([H:12])[C:5]([H:13])([H:14])[C:6]([H:15])([H:16])[C:7]1([H:10])[H:17]"
C        2.19830942       0.21042779       0.66061272
O        1.48972956      -0.76399686       1.19183183
C        0.19704103      -1.13947524      -0.11010299
C       -1.15484395      -1.13418126       0.17507210
C       -1.73268493       0.22183746       0.44540186
C       -0.89528729       1.04188936      -0.54512288
C        0.08500020      -0.00678213      -1.02946072
H        3.26332074      -0.01457030       0.49993647
H        2.05173503       1.18472017       1.15153020
H        1.59600127       0.50646984      -0.54663647
H        0.68716068      -2.04769737      -0.43879215
H       -1.69744487      -2.04422265       0.40920244
H       -2.79261509       0.26143180       0.18571523
H       -1.64930863       0.52702730       1.49285011
H       -1.51191055       1.41639977      -1.36281497
H       -0.41126548       1.90669980      -0.08748132
H        0.27706287      -0.12597747      -2.09174148
17
Frame=7 idx=009551 GeodesicLength=0.7361773344491612 rxn_smarts="[C:1]([O:2][C@@:3]1([H:11])[C@@:4]2([H:12])[C:5]([H:13])([H:14])[C:6]([H:15])([H:16])[C@@:7]12[H:17])([H:8])([H:9])[H:10]>>[C:1](=[O:2])([H:8])[H:9].[C:3]1([H:11])=[C:4]([H:12])[C:5]([H:13])([H:14])[C:6]([H:15])([H:16])[C:7]1([H:10])[H:17]"
C        2.21497073       0.20284849       0.67399799
O        1.51219854      -0.78103748       1.19271768
C        0.19801390      -1.13628082      -0.11096231
C       -1.15766680      -1.12818259       0.15811838
C       -1.72836101       0.22727383       0.45256045
C       -0.90515782       1.04438687      -0.55317587
C        0.07254853      -0.00797248      -1.03796614
H        3.29005611       0.00027035       0.55953456
H        2.02831382       1.17660665       1.15257642
H        1.60444045       0.49411077      -0.56893740
H        0.68923847      -2.04313824      -0.44285299
H       -1.70009065      -2.03899622       0.38952151
H       -2.79314354       0.27181443       0.21478749
H       -1.62203731       0.52879427       1.49879242
H       -1.53283288       1.40700535      -1.36793558
H       -0.42292930       1.91695177      -0.10904838
H        0.25243877      -0.13445494      -2.10172824
17
Frame=8 idx=009551 GeodesicLength=0.8415472751157395 rxn_smarts="[C:1]([O:2][C@@:3]1([H:11])[C@@:4]2([H:12])[C:5]([H:13])([H:14])[C:6]([H:15])([H:16])[C@@:7]12[H:17])([H:8])([H:9])[H:10]>>[C:1](=[O:2])([H:8])[H:9].[C:3]1([H:11])=[C:4]([H:12])[C:5]([H:13])([H:14])[C:6]([H:15])([H:16])[C:7]1([H:10])[H:17]"
C        2.23251375       0.19485321       0.68757791
O        1.53552252      -0.79873905       1.19274166
C        0.19905662      -1.13261727      -0.11200715
C       -1.16008783      -1.12181542       0.14195975
C       -1.72399481       0.23274422       0.45949345
C       -0.91531004       1.04703387      -0.56121411
C        0.05980163      -0.00892685      -1.04669860
H        3.31548551       0.01589388       0.62188540
H        2.00567673       1.16679421       1.15268010
H        1.61273285       0.48166187      -0.59231552
H        0.69119292      -2.03812685      -0.44731262
H       -1.70213019      -2.03344932       0.37089124
H       -2.79310127       0.28150411       0.24332398
H       -1.59531826       0.53107702       1.50393273
H       -1.55409700       1.39782943      -1.37262832
H       -0.43506580       1.92714007      -0.13051745
H        0.22712269      -0.14285714      -2.11179247
17
Frame=9 idx=009551 GeodesicLength=0.9471706243492274 rxn_smarts="[C:1]([O:2][C@@:3]1([H:11])[C@@:4]2([H:12])[C:5]([H:13])([H:14])[C:6]([H:15])([H:16])[C@@:7]12[H:17])([H:8])([H:9])[H:10]>>[C:1](=[O:2])([H:8])[H:9].[C:3]1([H:11])=[C:4]([H:12])[C:5]([H:13])([H:14])[C:6]([H:15])([H:16])[C:7]1([H:10])[H:17]"
C        2.25093509       0.18641419       0.70152808
O        1.55960064      -0.81702772       1.19193391
C        0.20022878      -1.12845057      -0.11329521
C       -1.16208707      -1.11509641       0.12655345
C       -1.71955503       0.23824831       0.46623177
C       -0.92577066       1.04983180      -0.56925838
C        0.04674566      -0.00962571      -1.05570756
H        3.33938273       0.03202857       0.68715794
H        1.98390031       1.15542322       1.15173148
H        1.62089576       0.46912463      -0.61694596
H        0.69314675      -2.03261673      -0.45220215
H       -1.70349962      -2.02761210       0.35332757
H       -2.79249309       0.29052579       0.27144498
H       -1.56903870       0.53385716       1.50829771
H       -1.57576685       1.38884945      -1.37689519
H       -0.44770169       1.93728882      -0.15193295
H        0.20107699      -0.15116271      -2.12196949
17
Frame=10 idx=009551 GeodesicLength=1.0528246527303837 rxn_smarts="[C:1]([O:2][C@@:3]1([H:11])[C@@:4]2([H:12])[C:5]([H:13])([H:14])[C:6]([H:15])([H:16])[C@@:7]12[H:17])([H:8])([H:9])[H:10]>>[C:1](=[O:2])([H:8])[H:9].[C:3]1([H:11])=[C:4]([H:12])[C:5]([H:13])([H:14])[C:6]([H:15])([H:16])[C:7]1([H:10])[H:17]"
C        2.27034638       0.17755163       0.71578840
O        1.58442675      -0.83579543       1.19024148
C        0.20156143      -1.12375546      -0.11483263
C       -1.16365940      -1.10807872       0.11185582
C       -1.71503265       0.24378895       0.47278154
C       -0.93653899       1.05276749      -0.57729568
C        0.03336723      -0.01007644      -1.06499125
H        3.36127624       0.04860599       0.75556615
H        1.96330553       1.14245209       1.14959910
H        1.62885112       0.45653615      -0.64289734
H        0.69516094      -2.02656513      -0.45749383
H       -1.70416128      -2.02154929       0.33680897
H       -2.79134652       0.29891265       0.29913923
H       -1.54317898       0.53715810       1.51196142
H       -1.59782948       1.38005556      -1.38071878
H       -0.46083784       1.94738595      -0.17327497
H        0.17428952      -0.15939411      -2.13223761
17
Frame=11 idx=009551 GeodesicLength=1.1584782371400135 rxn_smarts="[C:1]([O:2][C@@:3]1([H:11])[C@@:4]2([H:12])[C:5]([H:13])([H:14])[C:6]([H:15])([H:16])[C@@:7]12[H:17])([H:8])([H:9])[H:10]>>[C:1](=[O:2])([H:8])[H:9].[C:3]1([H:11])=[C:4]([H:12])[C:5]([H:13])([H:14])[C:6]([H:15])([H:16])[C:7]1([H:10])[H:17]"
C        2.29078905       0.16826049       0.73046346
O        1.60994215      -0.85496111       1.18769770
C        0.20311600      -1.11849428      -0.11664540
C       -1.16477900      -1.10078813       0.09783161
C       -1.71040862       0.24936470       0.47915669
C       -0.94762756       1.05584178      -0.58532730
C        0.01966582      -0.01026429      -1.07456360
H        3.38073785       0.06538865       0.82715847
H        1.94408412       1.12797661       1.14616594
H        1.63658048       0.44390314      -0.67028476
H        0.69734693      -2.01991941      -0.46317564
H       -1.70404613      -2.01530387       0.32134428
H       -2.78967496       0.30666941       0.32645514
H       -1.51767819       0.54098703       1.51495369
H       -1.62030459       1.37143448      -1.38409119
H       -0.47449387       1.95744415      -0.19455027
H        0.14675054      -0.16753935      -2.14258880
17
Frame=12 idx=009551 GeodesicLength=1.264065361833957 rxn_smarts="[C:1]([O:2][C@@:3]1([H:11])[C@@:4]2([H:12])[C:5]([H:13])([H:14])[C:6]([H:15])([H:16])[C@@:7]12[H:17])([H:8])([H:9])[H:10]>>[C:1](=[O:2])([H:8])[H:9].[C:3]1([H:11])=[C:4]([H:12])[C:5]([H:13])([H:14])[C:6]([H:15])([H:16])[C:7]1([H:10])[H:17]"
C        2.31230665       0.15855864       0.74565731
O        1.63611791      -0.87445539       1.18428831
C        0.20493453      -1.11263080      -0.11875891
C       -1.16542159      -1.09325010       0.08444651
C       -1.70564981       0.25498143       0.48537565
C       -0.95904848       1.05904259      -0.59335868
C        0.00563481      -0.01018563      -1.08443373
H        3.39731578       0.08216394       0.90201086
H        1.92645098       1.11208752       1.14133799
H        1.64404682       0.43124540      -0.69921089
H        0.69978205      -2.01262828      -0.46925593
H       -1.70309045      -2.00891190       0.30693685
H       -2.78745934       0.31382476       0.35345035
H       -1.49246267       0.54535244       1.51731323
H       -1.64321582       1.36294323      -1.38700562
H       -0.48869514       1.96747134      -0.21578099
H        0.11845378      -0.17560919      -2.15301229
17
Frame=13 idx=009551 GeodesicLength=1.3697707559553363 rxn_smarts="[C:1]([O:2][C@@:3]1([H:11])[C@@:4]2([H:12])[C:5]([H:13])([H:14])[C:6]([H:15])([H:16])[C@@:7]12[H:17])([H:8])([H:9])[H:10]>>[C:1](=[O:2])([H:8])[H:9].[C:3]1([H:11])=[C:4]([H:12])[C:5]([H:13])([H:14])[C:6]([H:15])([H:16])[C:7]1([H:10])[H:17]"
C        2.33487810       0.14840059       0.76160726
O        1.66283589      -0.89420219       1.18005343
C        0.20710208      -1.10612753      -0.12126527
C       -1.16554621      -1.08547994       0.07167060
C       -1.70068799       0.26064225       0.49148887
C       -0.97083480       1.06237583      -0.60141044
C       -0.00874436      -0.00981214      -1.09467127
H        3.41059492       0.09866228       0.98042177
H        1.91054012       1.09493863       1.13487252
H        1.65127041       0.41851276      -0.72993945
H        0.70261474      -2.00463495      -0.47580023
H       -1.70119669      -2.00240839       0.29364291
H       -2.78467493       0.32039640       0.38030055
H       -1.46734983       0.55025316       1.51906522
H       -1.66665650       1.35455636      -1.38944100
H       -0.50347270       1.97749446      -0.23703134
H        0.08932776      -0.18356758      -2.16356412
17
Frame=14 idx=009551 GeodesicLength=1.4752909406961616 rxn_smarts="[C:1]([O:2][C@@:3]1([H:11])[C@@:4]2([H:12])[C:5]([H:13])([H:14])[C:6]([H:15])([H:16])[C@@:7]12[H:17])([H:8])([H:9])[H:10]>>[C:1](=[O:2])([H:8])[H:9].[C:3]1([H:11])=[C:4]([H:12])[C:5]([H:13])([H:14])[C:6]([H:15])([H:16])[C:7]1([H:10])[H:17]"
C        2.35857012       0.13785014       0.77840519
O        1.69015862      -0.91417338       1.17498314
C        0.20965241      -1.09894495      -0.12413327
C       -1.16512318      -1.07749548       0.05948790
C       -1.69550806       0.26635952       0.49748776
C       -0.98297444       1.06582301      -0.60946783
C       -0.02345065      -0.00915402      -1.10522699
H        3.41992703       0.11471144       1.06207286
H        1.89662667       1.07658517       1.12679369
H        1.65818050       0.40573944      -0.76244968
H        0.70588724      -1.99589097      -0.48276119
H       -1.69830702      -1.99581720       0.28144240
H       -2.78129884       0.32639758       0.40696111
H       -1.44235333       0.55573086       1.52023647
H       -1.69057816       1.34622690      -1.39139036
H       -0.51884188       1.98750695      -0.25828121
H        0.05943300      -0.19145503      -2.17415999
17
Frame=15 idx=009551 GeodesicLength=1.5805588567813613 rxn_smarts="[C:1]([O:2][C@@:3]1([H:11])[C@@:4]2([H:12])[C:5]([H:13])([H:14])[C:6]([H:15])([H:16])[C@@:7]12[H:17])([H:8])([H:9])[H:10]>>[C:1](=[O:2])([H:8])[H:9].[C:3]1([H:11])=[C:4]([H:12])[C:5]([H:13])([H:14])[C:6]([H:15])([H:16])[C:7]1([H:10])[H:17]"
C        2.38334981       0.12692333       0.79631049
O        1.71806033      -0.93432698       1.16912321
C        0.21265776      -1.09103612      -0.12737598
C       -1.16410686      -1.06930832       0.04789180
C       -1.69007133       0.27214169       0.50338623
C       -0.99547622       1.06937985      -0.61753457
C       -0.03847050      -0.00819734      -1.11609502
H        3.42479870       0.13001896       1.14671911
H        1.88487638       1.05716242       1.11704244
H        1.66475853       0.39292116      -0.79684404
H        0.70971104      -1.98633404      -0.49013579
H       -1.69433206      -1.98916595       0.27036845
H       -2.77730489       0.33183634       0.43347728
H       -1.41740616       0.56181712       1.52083353
H       -1.71499406       1.33791350      -1.39284718
H       -0.53483765       1.99752315      -0.27955420
H        0.02878718      -0.19926878      -2.18476576
17
Frame=16 idx=009551 GeodesicLength=1.6855764219481062 rxn_smarts="[C:1]([O:2][C@@:3]1([H:11])[C@@:4]2([H:12])[C:5]([H:13])([H:14])[C:6]([H:15])([H:16])[C@@:7]12[H:17])([H:8])([H:9])[H:10]>>[C:1](=[O:2])([H:8])[H:9].[C:3]1([H:11])=[C:4]([H:12])[C:5]([H:13])([H:14])[C:6]([H:15])([H:16])[C:7]1([H:10])[H:17]"
C        2.40918812       0.11562250       0.81557714
O        1.74655901      -0.95465027       1.16244346
C        0.21618161      -1.08235747      -0.13104393
C       -1.16245532      -1.06092320       0.03688468
C       -1.68431686       0.27800561       0.50921912
C       -1.00836021       1.07303788      -0.62561831
C       -0.05381424      -0.00693434      -1.12730277
H        3.42464895       0.14437281       1.23441142
H        1.87549593       1.03679130       1.10548030
H        1.67099891       0.38002742      -0.83331652
H        0.71417420      -1.97590788      -0.49797285
H       -1.68918367      -1.98246793       0.26048287
H       -2.77263835       0.33673355       0.45995039
H       -1.39239088       0.56854790       1.52087647
H       -1.73995321       1.32956504      -1.39378629
H       -0.55149223       2.00755442      -0.30089565
H       -0.00264176      -0.20701733      -2.19538951
