13
Frame=0 idx=006244 GeodesicLength=0.0 rxn_smarts="[O:1]=[C:2]([N:3]1[C:4]([H:8])([H:9])[C:5]([H:10])([H:11])[C:6]1([H:12])[H:13])[H:7]>>[O:1](/[C:2](=[N:3]\[C:4]([C:5](=[C:6]([H:12])[H:13])[H:10])([H:8])[H:9])[H:7])[H:11]"
O        0.65219871       0.42247384      -1.90057244
C        1.42651020       0.26306466      -0.93536139
N        1.13724958       0.53897876       0.33653329
C       -0.21942023       1.05572027       0.47673984
C       -1.02703106      -0.18119336       0.07191236
C       -0.39707718      -1.26434846       0.72851986
H        2.41109533      -0.19859076      -1.09206871
H       -0.39269938       1.35415103       1.51191430
H       -0.42538969       1.89747182      -0.18749892
H       -2.11815312      -0.24626599      -0.01566890
H       -0.67674476      -0.23364375      -1.03016949
H       -0.64554204      -2.29353385       0.47628071
H        0.27500360      -1.11428422       1.55943951
13
Frame=1 idx=006244 GeodesicLength=0.07801114336648063 rxn_smarts="[O:1]=[C:2]([N:3]1[C:4]([H:8])([H:9])[C:5]([H:10])([H:11])[C:6]1([H:12])[H:13])[H:7]>>[O:1](/[C:2](=[N:3]\[C:4]([C:5](=[C:6]([H:12])[H:13])[H:10])([H:8])[H:9])[H:7])[H:11]"
O        0.66266921       0.41681634      -1.90443629
C        1.43523599       0.26596211      -0.93336655
N        1.12658790       0.52723804       0.33523640
C       -0.22503513       1.05719199       0.47569361
C       -1.03358657      -0.18050774       0.07326027
C       -0.38696690      -1.25979131       0.72231920
H        2.41458043      -0.20904415      -1.08128867
H       -0.39617091       1.36437776       1.50847915
H       -0.43233340       1.89661523      -0.19132653
H       -2.12634000      -0.23887338       0.01858626
H       -0.68495388      -0.22694405      -1.04938049
H       -0.62790999      -2.28861843       0.46148286
H        0.27422324      -1.12442241       1.56474077
13
Frame=2 idx=006244 GeodesicLength=0.1559728639752951 rxn_smarts="[O:1]=[C:2]([N:3]1[C:4]([H:8])([H:9])[C:5]([H:10])([H:11])[C:6]1([H:12])[H:13])[H:7]>>[O:1](/[C:2](=[N:3]\[C:4]([C:5](=[C:6]([H:12])[H:13])[H:10])([H:8])[H:9])[H:7])[H:11]"
O        0.67333320       0.41050913      -1.90810913
C        1.44401097       0.26866174      -0.93105547
N        1.11578356       0.51575109       0.33368736
C       -0.23075097       1.05863171       0.47456234
C       -1.04045197      -0.17984052       0.07480736
C       -0.37741786      -1.25513935       0.71631761
H        2.41845799      -0.21852988      -1.07021223
H       -0.39944958       1.37470663       1.50488414
H       -0.43953185       1.89558698      -0.19535784
H       -2.13385819      -0.23143752       0.05348386
H       -0.69300579      -0.22029275      -1.06877331
H       -0.61113648      -2.28339100       0.44676036
H        0.27401696      -1.13521625       1.56900496
13
Frame=3 idx=006244 GeodesicLength=0.23389189561877907 rxn_smarts="[O:1]=[C:2]([N:3]1[C:4]([H:8])([H:9])[C:5]([H:10])([H:11])[C:6]1([H:12])[H:13])[H:7]>>[O:1](/[C:2](=[N:3]\[C:4]([C:5](=[C:6]([H:12])[H:13])[H:10])([H:8])[H:9])[H:7])[H:11]"
O        0.68418029       0.40354711      -1.91158703
C        1.45281477       0.27116056      -0.92843234
N        1.10483678       0.50450099       0.33188562
C       -0.23656742       1.06003937       0.47334586
C       -1.04763763      -0.17918934       0.07657729
C       -0.36842469      -1.25040953       0.71050528
H        2.42274202      -0.22703968      -1.05882969
H       -0.40252759       1.38514968       1.50112104
H       -0.44698535       1.89438482      -0.19959116
H       -2.14068141      -0.22395177       0.08902121
H       -0.70089713      -0.21368130      -1.08836775
H       -0.59521717      -2.27786911       0.43209347
H        0.27436452      -1.14664180       1.57225819
13
Frame=4 idx=006244 GeodesicLength=0.3117773237959011 rxn_smarts="[O:1]=[C:2]([N:3]1[C:4]([H:8])([H:9])[C:5]([H:10])([H:11])[C:6]1([H:12])[H:13])[H:7]>>[O:1](/[C:2](=[N:3]\[C:4]([C:5](=[C:6]([H:12])[H:13])[H:10])([H:8])[H:9])[H:7])[H:11]"
O        0.69520016       0.39592210      -1.91486119
C        1.46162742       0.27346506      -0.92550117
N        1.09374776       0.49347590       0.32983298
C       -0.24248544       1.06141690       0.47204592
C       -1.05514994      -0.17855143       0.07859803
C       -0.35997617      -1.24561689       0.70487299
H        2.42742569      -0.23458776      -1.04712489
H       -0.40539951       1.39572058       1.49718155
H       -0.45469845       1.89300591      -0.20402391
H       -2.14677359      -0.21641799       0.12519074
H       -0.70862204      -0.20709603      -1.10818428
H       -0.58014332      -2.27206274       0.41745688
H        0.27524744      -1.15867361       1.57451636
13
Frame=5 idx=006244 GeodesicLength=0.3896335765653331 rxn_smarts="[O:1]=[C:2]([N:3]1[C:4]([H:8])([H:9])[C:5]([H:10])([H:11])[C:6]1([H:12])[H:13])[H:7]>>[O:1](/[C:2](=[N:3]\[C:4]([C:5](=[C:6]([H:12])[H:13])[H:10])([H:8])[H:9])[H:7])[H:11]"
O        0.70638323       0.38764231      -1.91792264
C        1.47043164       0.27560232      -0.92226691
N        1.08251560       0.48267814       0.32753195
C       -0.24851089       1.06277108       0.47066632
C       -1.06298999      -0.17792457       0.08089539
C       -0.35204966      -1.24077110       0.69940850
H        2.43246908      -0.24125309      -1.03506940
H       -0.40806727       1.40643223       1.49305929
H       -0.46268667       1.89145287      -0.20864907
H       -2.15209197      -0.20884850       0.16197532
H       -0.71616937      -0.20051740      -1.12824454
H       -0.56589263      -2.26597912       0.40282557
H        0.27665890      -1.17128517       1.57579022
13
Frame=6 idx=006244 GeodesicLength=0.46746481451971156 rxn_smarts="[O:1]=[C:2]([N:3]1[C:4]([H:8])([H:9])[C:5]([H:10])([H:11])[C:6]1([H:12])[H:13])[H:7]>>[O:1](/[C:2](=[N:3]\[C:4]([C:5](=[C:6]([H:12])[H:13])[H:10])([H:8])[H:9])[H:7])[H:11]"
O        0.71771553       0.37871896      -1.92076423
C        1.47920565       0.27758181      -0.91873245
N        1.07114088       0.47210747       0.32498220
C       -0.25464406       1.06410786       0.46921465
C       -1.07116223      -0.17730410       0.08350863
C       -0.34462685      -1.23588140       0.69411049
H        2.43784205      -0.24709004      -1.02264469
H       -0.41052006       1.41729900       1.48875544
H       -0.47095966       1.88972759      -0.21345642
H       -2.15661747      -0.20125595       0.19930957
H       -0.72353365      -0.19393269      -1.14856081
H       -0.55244487      -2.25962559       0.38818449
H        0.27860474      -1.18445292       1.57609313
13
Frame=7 idx=006244 GeodesicLength=0.5452926436686804 rxn_smarts="[O:1]=[C:2]([N:3]1[C:4]([H:8])([H:9])[C:5]([H:10])([H:11])[C:6]1([H:12])[H:13])[H:7]>>[O:1](/[C:2](=[N:3]\[C:4]([C:5](=[C:6]([H:12])[H:13])[H:10])([H:8])[H:9])[H:7])[H:11]"
O        0.72918945       0.36916181      -1.92337430
C        1.48793258       0.27942841      -0.91490072
N        1.05962283       0.46176658       0.32218705
C       -0.26089049       1.06543449       0.46769606
C       -1.07966474      -0.17668823       0.08647475
C       -0.33768429      -1.23095649       0.68897092
H        2.44349579      -0.25217960      -1.00982214
H       -0.41276070       1.42833620       1.48425993
H       -0.47953596       1.88782934      -0.21843947
H       -2.16030550      -0.19365696       0.23717000
H       -0.73070060      -0.18732107      -1.16915687
H       -0.53977818      -2.25300327       0.37350883
H        0.28107981      -1.19815122       1.57542596
13
Frame=8 idx=006244 GeodesicLength=0.623118846310347 rxn_smarts="[O:1]=[C:2]([N:3]1[C:4]([H:8])([H:9])[C:5]([H:10])([H:11])[C:6]1([H:12])[H:13])[H:7]>>[O:1](/[C:2](=[N:3]\[C:4]([C:5](=[C:6]([H:12])[H:13])[H:10])([H:8])[H:9])[H:7])[H:11]"
O        0.74079294       0.35897314      -1.92573916
C        1.49659431       0.28115247      -0.91077305
N        1.04796342       0.45165423       0.31914802
C       -0.26725011       1.06675642       0.46611893
C       -1.08849453      -0.17607375       0.08983761
C       -0.33120204      -1.22600420       0.68399246
H        2.44939039      -0.25656796      -0.99658684
H       -0.41478103       1.43955727       1.47956834
H       -0.48842701       1.88575689      -0.22358817
H       -2.16313356      -0.18606656       0.27549280
H       -0.73766060      -0.18066636      -1.19004672
H       -0.52787776      -2.24611298       0.35878622
H        0.28408559      -1.21235861       1.57378955
13
Frame=9 idx=006244 GeodesicLength=0.7010470163010984 rxn_smarts="[O:1]=[C:2]([N:3]1[C:4]([H:8])([H:9])[C:5]([H:10])([H:11])[C:6]1([H:12])[H:13])[H:7]>>[O:1](/[C:2](=[N:3]\[C:4]([C:5](=[C:6]([H:12])[H:13])[H:10])([H:8])[H:9])[H:7])[H:11]"
O        0.75253415       0.34820261      -1.92785218
C        1.50517891       0.28277759      -0.90635019
N        1.03616509       0.44179364       0.31587883
C       -0.27372650       1.06808846       0.46449439
C       -1.09763347      -0.17545153       0.09369024
C       -0.32512877      -1.22103115       0.67919118
H        2.45545496      -0.26039368      -0.98290108
H       -0.41658230       1.45099482       1.47467098
H       -0.49766172       1.88350543      -0.22889524
H       -2.16515626      -0.17850515       0.31420747
H       -0.74438827      -0.17396569      -1.21126021
H       -0.51670425      -2.23895000       0.34401882
H        0.28764844      -1.22706536       1.57110700
13
Frame=10 idx=006244 GeodesicLength=0.7789788212510315 rxn_smarts="[O:1]=[C:2]([N:3]1[C:4]([H:8])([H:9])[C:5]([H:10])([H:11])[C:6]1([H:12])[H:13])[H:7]>>[O:1](/[C:2](=[N:3]\[C:4]([C:5](=[C:6]([H:12])[H:13])[H:10])([H:8])[H:9])[H:7])[H:11]"
O        0.76439161       0.33682185      -1.92970036
C        1.51366705       0.28431428      -0.90163917
N        1.02422738       0.43216838       0.31237096
C       -0.28032185       1.06942688       0.46282389
C       -1.10708265      -0.17483085       0.09802335
C       -0.31946719      -1.21604537       0.67454840
H        2.46167811      -0.26364914      -0.96875704
H       -0.41815862       1.46264027       1.46956364
H       -0.50724715       1.88107264      -0.23435216
H       -2.16629446      -0.17097695       0.35330267
H       -0.75087635      -0.16718747      -1.23281219
H       -0.50626529      -2.23151564       0.32917855
H        0.29174942      -1.24223888       1.56744947
13
Frame=11 idx=006244 GeodesicLength=0.8569066415089582 rxn_smarts="[O:1]=[C:2]([N:3]1[C:4]([H:8])([H:9])[C:5]([H:10])([H:11])[C:6]1([H:12])[H:13])[H:7]>>[O:1](/[C:2](=[N:3]\[C:4]([C:5](=[C:6]([H:12])[H:13])[H:10])([H:8])[H:9])[H:7])[H:11]"
O        0.77636211       0.32484153      -1.93127668
C        1.52204459       0.28576792      -0.89664356
N        1.01215148       0.42277256       0.30862591
C       -0.28703489       1.07077377       0.46111254
C       -1.11683365      -0.17421286       0.10287430
C       -0.31420030      -1.21105599       0.67006065
H        2.46802989      -0.26636146      -0.95414187
H       -0.41950472       1.47450128       1.46423705
H       -0.51719378       1.87845216      -0.23995215
H       -2.16654872      -0.16348735       0.39274044
H       -0.75710768      -0.16031409      -1.25472669
H       -0.49655714      -2.22381700       0.31426691
H        0.29639280      -1.25786049       1.56282316
13
Frame=12 idx=006244 GeodesicLength=0.934833064077766 rxn_smarts="[O:1]=[C:2]([N:3]1[C:4]([H:8])([H:9])[C:5]([H:10])([H:11])[C:6]1([H:12])[H:13])[H:7]>>[O:1](/[C:2](=[N:3]\[C:4]([C:5](=[C:6]([H:12])[H:13])[H:10])([H:8])[H:9])[H:7])[H:11]"
O        0.78844627       0.31227319      -1.93257171
C        1.53029844       0.28715290      -0.89136687
N        0.99993764       0.41360837       0.30464645
C       -0.29386889       1.07213277       0.45936415
C       -1.12687420      -0.17360009       0.10828630
C       -0.30930346      -1.20606996       0.66572612
H        2.47447240      -0.26858752      -0.93903245
H       -0.42062180       1.48658849       1.45867827
H       -0.52752182       1.87563592      -0.24569029
H       -2.16591565      -0.15604522       0.43250141
H       -0.76305929      -0.15332716      -1.27703268
H       -0.48757145      -2.21585020       0.29927521
H        0.30158180      -1.27391148       1.55721609
13
Frame=13 idx=006244 GeodesicLength=1.0127511578326438 rxn_smarts="[O:1]=[C:2]([N:3]1[C:4]([H:8])([H:9])[C:5]([H:10])([H:11])[C:6]1([H:12])[H:13])[H:7]>>[O:1](/[C:2](=[N:3]\[C:4]([C:5](=[C:6]([H:12])[H:13])[H:10])([H:8])[H:9])[H:7])[H:11]"
O        0.80064329       0.29913417      -1.93357890
C        1.53841441       0.28847507      -0.88581263
N        0.98758632       0.40467428       0.30043311
C       -0.30082435       1.07350700       0.45758386
C       -1.13719569      -0.17299406       0.11430250
C       -0.30475563      -1.20109339       0.66154500
H        2.48096987      -0.27036974      -0.92341270
H       -0.42150678       1.49891020       1.45287806
H       -0.53824622       1.87261685      -0.25155884
H       -2.16440461      -0.14865572       0.47254631
H       -0.76870763      -0.14621023      -1.29975731
H       -0.47930222      -2.20761873       0.28420770
H        0.30732924      -1.29037569       1.55062382
13
Frame=14 idx=006244 GeodesicLength=1.0906677557609503 rxn_smarts="[O:1]=[C:2]([N:3]1[C:4]([H:8])([H:9])[C:5]([H:10])([H:11])[C:6]1([H:12])[H:13])[H:7]>>[O:1](/[C:2](=[N:3]\[C:4]([C:5](=[C:6]([H:12])[H:13])[H:10])([H:8])[H:9])[H:7])[H:11]"
O        0.81295981       0.28542814      -1.93428574
C        1.54638126       0.28974043      -0.87997978
N        0.97509588       0.39596722       0.29598798
C       -0.30790615       1.07489602       0.45577105
C       -1.14778551      -0.17239893       0.12096915
C       -0.30053757      -1.19613603       0.65751513
H        2.48749492      -0.27173557      -0.90725999
H       -0.42216250       1.51147667       1.44681352
H       -0.54938954       1.86937838      -0.25755972
H       -2.16200449      -0.14131967       0.51289259
H       -0.77402047      -0.13894556      -1.32293863
H       -0.47175465      -2.19911463       0.26905068
H        0.31362902      -1.30723648       1.54302377
13
Frame=15 idx=006244 GeodesicLength=1.168582004867946 rxn_smarts="[O:1]=[C:2]([N:3]1[C:4]([H:8])([H:9])[C:5]([H:10])([H:11])[C:6]1([H:12])[H:13])[H:7]>>[O:1](/[C:2](=[N:3]\[C:4]([C:5](=[C:6]([H:12])[H:13])[H:10])([H:8])[H:9])[H:7])[H:11]"
O        0.82540109       0.27117203      -1.93468578
C        1.55418648       0.29095485      -0.87387001
N        0.96246422       0.38748619       0.29131181
C       -0.31511836       1.07630089       0.45392725
C       -1.15863387      -0.17181802       0.12833542
C       -0.29662790      -1.19120485       0.65363498
H        2.49401387      -0.27272729      -0.89055174
H       -0.42259048       1.52429775       1.44046653
H       -0.56097383       1.86590654      -0.26369084
H       -2.15871442      -0.13403928       0.55353459
H       -0.77896522      -0.13151454      -1.34661290
H       -0.46492849      -2.19033600       0.25380168
H        0.32048690      -1.32447827       1.53439901
13
Frame=16 idx=006244 GeodesicLength=1.246493135326425 rxn_smarts="[O:1]=[C:2]([N:3]1[C:4]([H:8])([H:9])[C:5]([H:10])([H:11])[C:6]1([H:12])[H:13])[H:7]>>[O:1](/[C:2](=[N:3]\[C:4]([C:5](=[C:6]([H:12])[H:13])[H:10])([H:8])[H:9])[H:7])[H:11]"
O        0.83797677       0.25637679      -1.93477162
C        1.56181980       0.29212078      -0.86748141
N        0.94968726       0.37922615       0.28640568
C       -0.32246713       1.07772042       0.45204991
C       -1.16973073      -0.17125622       0.13644881
C       -0.29301066      -1.18630820       0.64990024
H        2.50050084      -0.27336826      -0.87326394
H       -0.42279605       1.53738321       1.43381065
H       -0.57302315       1.86218240      -0.26995528
H       -2.15452109      -0.12681039       0.59449925
H       -0.78350348      -0.12389711      -1.37082327
H       -0.45883259      -2.18128037       0.23845581
H        0.32790021      -1.34208919       1.52472518
