16
Frame=0 idx=008088 GeodesicLength=0.0 rxn_smarts="[C:1](/[C:2](=[N:3]/[H:11])[O:4][C:5]1([H:12])[C:6]([H:13])([H:14])[C:7]1([H:15])[H:16])([H:8])([H:9])[H:10]>>[C:1](=[C:2]([N:3]([H:10])[H:11])[O:4][C:5]1([H:12])[C:6]([H:13])([H:14])[C:7]1([H:15])[H:16])([H:8])[H:9]"
C        1.86014594      -0.88592238      -0.07612050
C        1.33193506       0.45360717      -0.08181238
N        2.32196146       1.26220540      -0.36259351
O        0.10142475       0.91594246       0.09106380
C       -0.87986794      -0.01459729       0.49517595
C       -1.71517439      -0.65465323      -0.55935082
C       -2.28270245       0.43243339       0.31793930
H        2.37099458      -1.10694868       0.85956736
H        1.23825168      -1.70782443      -0.42093578
H        2.90229016       0.14533592      -0.50648258
H        2.29390803       2.23963578      -0.08539920
H       -0.59318049      -0.58475385       1.37005970
H       -1.49113761      -0.39425359      -1.58523197
H       -2.03209680      -1.67705501      -0.40333059
H       -2.42442852       1.40483522      -0.13435324
H       -3.00232339       0.17201309       1.08180440
16
Frame=1 idx=008088 GeodesicLength=0.04108256958070662 rxn_smarts="[C:1](/[C:2](=[N:3]/[H:11])[O:4][C:5]1([H:12])[C:6]([H:13])([H:14])[C:7]1([H:15])[H:16])([H:8])([H:9])[H:10]>>[C:1](=[C:2]([N:3]([H:10])[H:11])[O:4][C:5]1([H:12])[C:6]([H:13])([H:14])[C:7]1([H:15])[H:16])([H:8])[H:9]"
C        1.85507010      -0.88540872      -0.06805345
C        1.33706271       0.45662229      -0.05129174
N        2.32170816       1.26173739      -0.36535716
O        0.10362374       0.91773848       0.11407859
C       -0.87930109      -0.01678170       0.50273742
C       -1.70600930      -0.64971978      -0.56321152
C       -2.28101149       0.43096878       0.31706500
H        2.37804324      -1.12208130       0.85679972
H        1.22263602      -1.69888383      -0.41281218
H        2.90448455       0.13488106      -0.51909484
H        2.27069513       2.24843542      -0.12810432
H       -0.60180419      -0.59364051       1.37641243
H       -1.47372238      -0.38210233      -1.58545624
H       -2.02498827      -1.67305796      -0.41718574
H       -2.41975862       1.40636009      -0.12978484
H       -3.00672831       0.16493262       1.07325887
16
Frame=2 idx=008088 GeodesicLength=0.08214428436290205 rxn_smarts="[C:1](/[C:2](=[N:3]/[H:11])[O:4][C:5]1([H:12])[C:6]([H:13])([H:14])[C:7]1([H:15])[H:16])([H:8])([H:9])[H:10]>>[C:1](=[C:2]([N:3]([H:10])[H:11])[O:4][C:5]1([H:12])[C:6]([H:13])([H:14])[C:7]1([H:15])[H:16])([H:8])[H:9]"
C        1.85000827      -0.88460148      -0.06028989
C        1.34248709       0.45970012      -0.02158884
N        2.32126433       1.26158941      -0.36671826
O        0.10597470       0.91933771       0.13619572
C       -0.87838457      -0.01880376       0.51006693
C       -1.69668654      -0.64494052      -0.56673154
C       -2.27892761       0.42970475       0.31613958
H        2.38368614      -1.13721768       0.85392033
H        1.20758409      -1.68955131      -0.40571395
H        2.90642249       0.12470269      -0.53137877
H        2.24588711       2.25537255      -0.17009310
H       -0.60984522      -0.60198960       1.38256049
H       -1.45650646      -0.37053630      -1.58541014
H       -2.01764352      -1.66907628      -0.43023576
H       -2.41481823       1.40787635      -0.12558717
H       -3.01050205       0.15843336       1.06486437
16
Frame=3 idx=008088 GeodesicLength=0.12313351064232872 rxn_smarts="[C:1](/[C:2](=[N:3]/[H:11])[O:4][C:5]1([H:12])[C:6]([H:13])([H:14])[C:7]1([H:15])[H:16])([H:8])([H:9])[H:10]>>[C:1](=[C:2]([N:3]([H:10])[H:11])[O:4][C:5]1([H:12])[C:6]([H:13])([H:14])[C:7]1([H:15])[H:16])([H:8])[H:9]"
C        1.84500023      -0.88346834      -0.05310455
C        1.34806830       0.46283341       0.00661838
N        2.32094577       1.26187514      -0.36639023
O        0.10840985       0.92081834       0.15693093
C       -0.87710152      -0.02059333       0.51701178
C       -1.68738354      -0.64048222      -0.56981358
C       -2.27649757       0.42861452       0.31519593
H        2.38750954      -1.15222768       0.85099920
H        1.19312881      -1.67979643      -0.39995273
H        2.90842135       0.11491520      -0.54297921
H        2.21997210       2.26038860      -0.21066669
H       -0.61711963      -0.60957583       1.38842333
H       -1.43986016      -0.35988758      -1.58510696
H       -2.01017770      -1.66528063      -0.44213713
H       -2.40976901       1.40928163      -0.12188218
H       -3.01354683       0.15258521       1.05685372
16
Frame=4 idx=008088 GeodesicLength=0.16399352274125928 rxn_smarts="[C:1](/[C:2](=[N:3]/[H:11])[O:4][C:5]1([H:12])[C:6]([H:13])([H:14])[C:7]1([H:15])[H:16])([H:8])([H:9])[H:10]>>[C:1](=[C:2]([N:3]([H:10])[H:11])[O:4][C:5]1([H:12])[C:6]([H:13])([H:14])[C:7]1([H:15])[H:16])([H:8])[H:9]"
C        1.84008494      -0.88193954      -0.04683004
C        1.35361161       0.46604734       0.03262094
N        2.32090986       1.26274078      -0.36460927
O        0.11079193       0.92228884       0.17560179
C       -0.87548185      -0.02202749       0.52337757
C       -1.67834643      -0.63663400      -0.57230188
C       -2.27382732       0.42766752       0.31418189
H        2.38936323      -1.16680581       0.84796177
H        1.17925555      -1.66961331      -0.39565176
H        2.91066762       0.10564876      -0.55399434
H        2.19411375       2.26337663      -0.24784565
H       -0.62346314      -0.61600024       1.39395740
H       -1.42425359      -0.35075442      -1.58455319
H       -2.00276748      -1.66194942      -0.45232601
H       -2.40485065       1.41039981      -0.11902292
H       -3.01580800       0.14755456       1.04943371
16
Frame=5 idx=008088 GeodesicLength=0.20478203585040242 rxn_smarts="[C:1](/[C:2](=[N:3]/[H:11])[O:4][C:5]1([H:12])[C:6]([H:13])([H:14])[C:7]1([H:15])[H:16])([H:8])([H:9])[H:10]>>[C:1](=[C:2]([N:3]([H:10])[H:11])[O:4][C:5]1([H:12])[C:6]([H:13])([H:14])[C:7]1([H:15])[H:16])([H:8])[H:9]"
C        1.83527603      -0.88008870      -0.04109735
C        1.35910018       0.46929291       0.05700812
N        2.32111086       1.26407369      -0.36158836
O        0.11314383       0.92374435       0.19297219
C       -0.87362279      -0.02325774       0.52935885
C       -1.66947585      -0.63311853      -0.57443929
C       -2.27097639       0.42680912       0.31318834
H        2.38967609      -1.18097985       0.84500354
H        1.16593821      -1.65909292      -0.39235126
H        2.91308249       0.09677737      -0.56450219
H        2.16812589       2.26458115      -0.28328077
H       -0.62916112      -0.62176337       1.39920915
H       -1.40933316      -0.34245745      -1.58385305
H       -1.99536342      -1.65887297      -0.46151806
H       -2.40000480       1.41136972      -0.11656243
H       -3.01751606       0.14298321       1.04245257
16
Frame=6 idx=008088 GeodesicLength=0.24556327573372944 rxn_smarts="[C:1](/[C:2](=[N:3]/[H:11])[O:4][C:5]1([H:12])[C:6]([H:13])([H:14])[C:7]1([H:15])[H:16])([H:8])([H:9])[H:10]>>[C:1](=[C:2]([N:3]([H:10])[H:11])[O:4][C:5]1([H:12])[C:6]([H:13])([H:14])[C:7]1([H:15])[H:16])([H:8])[H:9]"
C        1.83058893      -0.87792902      -0.03572739
C        1.36449094       0.47256224       0.08002514
N        2.32138111       1.26583697      -0.35782969
O        0.11544733       0.92518988       0.20938838
C       -0.87159590      -0.02434164       0.53504001
C       -1.66074827      -0.62983457      -0.57632527
C       -2.26799758       0.42600980       0.31220810
H        2.38884734      -1.19462390       0.84216350
H        1.15313391      -1.64830688      -0.38964764
H        2.91553293       0.08823981      -0.57480432
H        2.14222305       2.26400693      -0.31707237
H       -0.63436897      -0.62705015       1.40420578
H       -1.39493984      -0.33475311      -1.58303537
H       -1.98796752      -1.65596752      -0.46999507
H       -2.39522113       1.41222248      -0.11438041
H       -3.01880631       0.13873868       1.03578664
16
Frame=7 idx=008088 GeodesicLength=0.28638651186513364 rxn_smarts="[C:1](/[C:2](=[N:3]/[H:11])[O:4][C:5]1([H:12])[C:6]([H:13])([H:14])[C:7]1([H:15])[H:16])([H:8])([H:9])[H:10]>>[C:1](=[C:2]([N:3]([H:10])[H:11])[O:4][C:5]1([H:12])[C:6]([H:13])([H:14])[C:7]1([H:15])[H:16])([H:8])[H:9]"
C        1.82602957      -0.87550450      -0.03052191
C        1.36979089       0.47584817       0.10203919
N        2.32164292       1.26797942      -0.35350205
O        0.11771169       0.92663232       0.22530473
C       -0.86945559      -0.02535484       0.54054589
C       -1.65207997      -0.62662158      -0.57808680
C       -2.26492442       0.42525023       0.31128756
H        2.38711926      -1.20778996       0.83952883
H        1.14082547      -1.63730514      -0.38731876
H        2.91796960       0.07997199      -0.58492910
H        2.11625499       2.26171745      -0.35014439
H       -0.63925230      -0.63213260       1.40899117
H       -1.38082920      -0.32725880      -1.58214502
H       -1.98051319      -1.65311408      -0.47814860
H       -2.39047082       1.41304921      -0.11223717
H       -3.01981888       0.13463270       1.02933644
16
Frame=8 idx=008088 GeodesicLength=0.32725258689593917 rxn_smarts="[C:1](/[C:2](=[N:3]/[H:11])[O:4][C:5]1([H:12])[C:6]([H:13])([H:14])[C:7]1([H:15])[H:16])([H:8])([H:9])[H:10]>>[C:1](=[C:2]([N:3]([H:10])[H:11])[O:4][C:5]1([H:12])[C:6]([H:13])([H:14])[C:7]1([H:15])[H:16])([H:8])[H:9]"
C        1.82160543      -0.87282172      -0.02527044
C        1.37502372       0.47914181       0.12342020
N        2.32180494       1.27045342      -0.34867460
O        0.11996338       0.92804895       0.24119437
C       -0.86723349      -0.02637632       0.54599004
C       -1.64338370      -0.62329021      -0.57984274
C       -2.26176314       0.42450476       0.31046537
H        2.38473230      -1.22048812       0.83717656
H        1.12899449      -1.62608569      -0.38514170
H        2.92031344       0.07194377      -0.59487130
H        2.08994307       2.25755556      -0.38353303
H       -0.64394170      -0.63728077       1.41356172
H       -1.36677431      -0.31955642      -1.58118147
H       -1.97293568      -1.65013688      -0.48638315
H       -2.38569513       1.41391607      -0.10987173
H       -3.02065362       0.13047181       1.02296192
16
Frame=9 idx=008088 GeodesicLength=0.3682885581490252 rxn_smarts="[C:1](/[C:2](=[N:3]/[H:11])[O:4][C:5]1([H:12])[C:6]([H:13])([H:14])[C:7]1([H:15])[H:16])([H:8])([H:9])[H:10]>>[C:1](=[C:2]([N:3]([H:10])[H:11])[O:4][C:5]1([H:12])[C:6]([H:13])([H:14])[C:7]1([H:15])[H:16])([H:8])[H:9]"
C        1.81732523      -0.86990573      -0.01983649
C        1.38017403       0.48244725       0.14436007
N        2.32167503       1.27325097      -0.34366585
O        0.12219529       0.92943185       0.25736997
C       -0.86496272      -0.02744971       0.55146059
C       -1.63455761      -0.61972361      -0.58167261
C       -2.25850435       0.42378443       0.30975478
H        2.38189706      -1.23269309       0.83516275
H        1.11764287      -1.61470953      -0.38287533
H        2.92245504       0.06411901      -0.60480239
H        2.06311233       2.25135813      -0.41751372
H       -0.64855961      -0.64265660       1.41795618
H       -1.35253710      -0.31140296      -1.58016767
H       -1.96514528      -1.64692908      -0.49494369
H       -2.38082900       1.41489250      -0.10716201
H       -3.02138120       0.12618618       1.01657543
16
Frame=10 idx=008088 GeodesicLength=0.40934808213660656 rxn_smarts="[C:1](/[C:2](=[N:3]/[H:11])[O:4][C:5]1([H:12])[C:6]([H:13])([H:14])[C:7]1([H:15])[H:16])([H:8])([H:9])[H:10]>>[C:1](=[C:2]([N:3]([H:10])[H:11])[O:4][C:5]1([H:12])[C:6]([H:13])([H:14])[C:7]1([H:15])[H:16])([H:8])[H:9]"
C        1.81317289      -0.86672129      -0.01437974
C        1.38522115       0.48580077       0.16463259
N        2.32127365       1.27637371      -0.33868284
O        0.12436559       0.93082076       0.27343101
C       -0.86263351      -0.02850059       0.55684393
C       -1.62573707      -0.61607676      -0.58348207
C       -2.25519699       0.42305936       0.30911438
H        2.37853581      -1.24431767       0.83340128
H        1.10671353      -1.60314874      -0.38065244
H        2.92448587       0.05650347      -0.61466060
H        2.03638833       2.24327906      -0.45106103
H       -0.65298088      -0.64801805       1.42213621
H       -1.33840871      -0.30312487      -1.57907682
H       -1.95724040      -1.64363262      -0.50352033
H       -2.37600908       1.41586323      -0.10429587
H       -3.02195018       0.12184022       1.01025235
16
Frame=11 idx=008088 GeodesicLength=0.4505933109045577 rxn_smarts="[C:1](/[C:2](=[N:3]/[H:11])[O:4][C:5]1([H:12])[C:6]([H:13])([H:14])[C:7]1([H:15])[H:16])([H:8])([H:9])[H:10]>>[C:1](=[C:2]([N:3]([H:10])[H:11])[O:4][C:5]1([H:12])[C:6]([H:13])([H:14])[C:7]1([H:15])[H:16])([H:8])[H:9]"
C        1.80915568      -0.86333634      -0.00881720
C        1.39015214       0.48920306       0.18424624
N        2.32036101       1.27975899      -0.33433732
O        0.12646256       0.93221324       0.28950322
C       -0.86028117      -0.02953591       0.56218801
C       -1.61685761      -0.61233640      -0.58529702
C       -2.25184478       0.42236588       0.30849895
H        2.37490723      -1.25530125       0.83191187
H        1.09619467      -1.59155952      -0.37817323
H        2.92625104       0.04895293      -0.62487143
H        2.00980818       2.23354799      -0.48351063
H       -0.65730295      -0.65339313       1.42617115
H       -1.32421389      -0.29470723      -1.57792953
H       -1.94917416      -1.64023969      -0.51216199
H       -2.37118896       1.41688057      -0.10133515
H       -3.02242898       0.11748682       1.00391407
16
Frame=12 idx=008088 GeodesicLength=0.4918505594196947 rxn_smarts="[C:1](/[C:2](=[N:3]/[H:11])[O:4][C:5]1([H:12])[C:6]([H:13])([H:14])[C:7]1([H:15])[H:16])([H:8])([H:9])[H:10]>>[C:1](=[C:2]([N:3]([H:10])[H:11])[O:4][C:5]1([H:12])[C:6]([H:13])([H:14])[C:7]1([H:15])[H:16])([H:8])[H:9]"
C        1.80524358      -0.85971866      -0.00332550
C        1.39496897       0.49266593       0.20309695
N        2.31913107       1.28340342      -0.33033854
O        0.12847174       0.93362292       0.30520455
C       -0.85787845      -0.03049723       0.56738917
C       -1.60803621      -0.60864185      -0.58702469
C       -2.24846171       0.42167262       0.30788959
H        2.37081692      -1.26570795       0.83058469
H        1.08602889      -1.57983794      -0.37574111
H        2.92788138       0.04149573      -0.63521897
H        1.98370141       2.22240721      -0.51448766
H       -0.66140333      -0.65856955       1.43002547
H       -1.31023803      -0.28644181      -1.57670414
H       -1.94103867      -1.63686906      -0.52057532
H       -2.36645417       1.41782581      -0.09843615
H       -3.02273340       0.11319043       0.99766168
16
Frame=13 idx=008088 GeodesicLength=0.5332626624685172 rxn_smarts="[C:1](/[C:2](=[N:3]/[H:11])[O:4][C:5]1([H:12])[C:6]([H:13])([H:14])[C:7]1([H:15])[H:16])([H:8])([H:9])[H:10]>>[C:1](=[C:2]([N:3]([H:10])[H:11])[O:4][C:5]1([H:12])[C:6]([H:13])([H:14])[C:7]1([H:15])[H:16])([H:8])[H:9]"
C        1.80146528      -0.85593497       0.00224357
C        1.39969803       0.49618587       0.22133298
N        2.31745284       1.28726669      -0.32695130
O        0.13041070       0.93504071       0.32085473
C       -0.85545676      -0.03143378       0.57253843
C       -1.59918303      -0.60487664      -0.58874472
C       -2.24505685       0.42100375       0.30729861
H        2.36646897      -1.27556365       0.82951348
H        1.07623372      -1.56810014      -0.37311593
H        2.92929873       0.03401847      -0.64588193
H        1.95779418       2.20994399      -0.54433001
H       -0.66540064      -0.66373221       1.43373980
H       -1.29624532      -0.27807655      -1.57542073
H       -1.93276093      -1.63343009      -0.52900817
H       -2.36175491       1.41880313      -0.09547251
H       -3.02296403       0.10888541       0.99140371
16
Frame=14 idx=008088 GeodesicLength=0.5748458217181893 rxn_smarts="[C:1](/[C:2](=[N:3]/[H:11])[O:4][C:5]1([H:12])[C:6]([H:13])([H:14])[C:7]1([H:15])[H:16])([H:8])([H:9])[H:10]>>[C:1](=[C:2]([N:3]([H:10])[H:11])[O:4][C:5]1([H:12])[C:6]([H:13])([H:14])[C:7]1([H:15])[H:16])([H:8])[H:9]"
C        1.79780396      -0.85200412       0.00803120
C        1.40435524       0.49975421       0.23908457
N        2.31516240       1.29127343      -0.32437550
O        0.13231472       0.93642680       0.33674337
C       -0.85300645      -0.03238753       0.57770173
C       -1.59020230      -0.60092245      -0.59052410
C       -2.24157587       0.42036183       0.30672426
H        2.36200527      -1.28482015       0.82877634
H        1.06677985      -1.55639608      -0.37008228
H        2.93033801       0.02642731      -0.65698891
H        1.93178012       2.19612142      -0.57333933
H       -0.66934712      -0.66901431       1.43730887
H       -1.28203852      -0.26938687      -1.57406185
H       -1.92426852      -1.62978987      -0.53769395
H       -2.35698153       1.41985168      -0.09232112
H       -3.02311926       0.10450468       0.98501670
16
Frame=15 idx=008088 GeodesicLength=0.6165461165528059 rxn_smarts="[C:1](/[C:2](=[N:3]/[H:11])[O:4][C:5]1([H:12])[C:6]([H:13])([H:14])[C:7]1([H:15])[H:16])([H:8])([H:9])[H:10]>>[C:1](=[C:2]([N:3]([H:10])[H:11])[O:4][C:5]1([H:12])[C:6]([H:13])([H:14])[C:7]1([H:15])[H:16])([H:8])[H:9]"
C        1.79425922      -0.84793755       0.01386808
C        1.40893807       0.50338386       0.25621265
N        2.31243977       1.29543646      -0.32243362
O        0.13415326       0.93781165       0.35247025
C       -0.85052667      -0.03329805       0.58278502
C       -1.58120409      -0.59694523      -0.59227318
C       -2.23806200       0.41974436       0.30613575
H        2.35730799      -1.29356015       0.82827510
H        1.05764933      -1.54470807      -0.36686561
H        2.93110185       0.01870634      -0.66851543
H        1.90602811       2.18133766      -0.60087826
H       -0.67316707      -0.67420902       1.44074102
H       -1.26785558      -0.26071055      -1.57264145
H       -1.91565458      -1.62611422      -0.54631071
H       -2.35223771       1.42090088      -0.08918935
H       -3.02316991       0.10016163       0.97861975
16
Frame=16 idx=008088 GeodesicLength=0.658303737294694 rxn_smarts="[C:1](/[C:2](=[N:3]/[H:11])[O:4][C:5]1([H:12])[C:6]([H:13])([H:14])[C:7]1([H:15])[H:16])([H:8])([H:9])[H:10]>>[C:1](=[C:2]([N:3]([H:10])[H:11])[O:4][C:5]1([H:12])[C:6]([H:13])([H:14])[C:7]1([H:15])[H:16])([H:8])[H:9]"
C        1.79081529      -0.84375926       0.01964274
C        1.41344272       0.50706854       0.27258966
N        2.30938714       1.29971062      -0.32111827
O        0.13591703       0.93920007       0.36772979
C       -0.84801397      -0.03412143       0.58771351
C       -1.57227143      -0.59309480      -0.59392018
C       -2.23452743       0.41915277       0.30547547
H        2.35236205      -1.30180109       0.82792064
H        1.04879806      -1.53306704      -0.36352951
H        2.93155991       0.01077946      -0.68061765
H        1.88085649       2.16610941      -0.62615026
H       -0.67681042      -0.67913561       1.44405204
H       -1.25386298      -0.25236337      -1.57116782
H       -1.90701349      -1.62253891      -0.55458705
H       -2.34755824       1.42188002      -0.08629938
H       -3.02308073       0.09598062       0.97226627
