14
Frame=0 idx=007141 GeodesicLength=0.0 rxn_smarts="[N:1](=[C:2]1\[O:3][C:4]([H:9])([H:10])[C@@:5]2([H:11])[C:6]([H:12])([H:13])[C@@:7]12[H:14])\[H:8]>>[H:9][H:11].[N:1](=[C:2]1\[O:3][C:4]([H:10])=[C:5]2[C:6]([H:12])([H:13])[C@@:7]12[H:14])\[H:8]"
N        1.80579105      -1.93559246       0.54392290
C        1.05324108      -0.96727781       0.32256269
O        1.54494572       0.27129248      -0.18873713
C        0.58475782       1.17979820      -0.11038428
C       -0.67416743       0.67037457       0.25535256
C       -1.25484219      -0.44397056      -0.55223325
C       -0.38378272      -0.80539022       0.61672960
H        2.77481886      -1.73637177       0.31056268
H       -1.02032993       2.44555395      -0.76121592
H        0.87942323       2.21473681      -0.14629403
H       -1.31802351       1.68674732       0.22768054
H       -0.89003781      -0.60430587      -1.56053927
H       -2.31253522      -0.62877134      -0.41555268
H       -0.78925900      -1.34682330       1.45814565
14
Frame=1 idx=007141 GeodesicLength=0.06971809254593841 rxn_smarts="[N:1](=[C:2]1\[O:3][C:4]([H:9])([H:10])[C@@:5]2([H:11])[C:6]([H:12])([H:13])[C@@:7]12[H:14])\[H:8]>>[H:9][H:11].[N:1](=[C:2]1\[O:3][C:4]([H:10])=[C:5]2[C:6]([H:12])([H:13])[C@@:7]12[H:14])\[H:8]"
N        1.80913671      -1.93060224       0.54311990
C        1.05523150      -0.96348489       0.31876994
O        1.54027111       0.27022142      -0.20364749
C        0.57697573       1.18147776      -0.12261796
C       -0.67937217       0.66539618       0.24916560
C       -1.26256956      -0.45263250      -0.55048034
C       -0.38208098      -0.80386343       0.61577403
H        2.77724691      -1.73047506       0.30659974
H       -0.98466821       2.45099081      -0.76775070
H        0.88706093       2.21280482      -0.09323698
H       -1.33245612       1.69872797       0.20771844
H       -0.90361274      -0.61543239      -1.56044478
H       -2.31809236      -0.64420124      -0.40639219
H       -0.78307073      -1.33892719       1.46342280
14
Frame=2 idx=007141 GeodesicLength=0.1394673013872958 rxn_smarts="[N:1](=[C:2]1\[O:3][C:4]([H:9])([H:10])[C@@:5]2([H:11])[C:6]([H:12])([H:13])[C@@:7]12[H:14])\[H:8]>>[H:9][H:11].[N:1](=[C:2]1\[O:3][C:4]([H:10])=[C:5]2[C:6]([H:12])([H:13])[C@@:7]12[H:14])\[H:8]"
N        1.81246244      -1.92596181       0.54143002
C        1.05721970      -0.95994835       0.31445787
O        1.53560689       0.26901454      -0.21849902
C        0.56962909       1.18345081      -0.13334959
C       -0.68428666       0.66041006       0.24355066
C       -1.27017747      -0.46070136      -0.54878038
C       -0.38036103      -0.80259508       0.61441842
H        2.78028496      -1.72351418       0.30554509
H       -0.94997315       2.45650383      -0.77193244
H        0.89371598       2.20786587      -0.04499669
H       -1.34662232       1.71121968       0.18808473
H       -0.91708374      -0.62522894      -1.56049407
H       -2.32348284      -0.65885156      -0.39736341
H       -0.77693185      -1.33166351       1.46792881
14
Frame=3 idx=007141 GeodesicLength=0.20917699464755374 rxn_smarts="[N:1](=[C:2]1\[O:3][C:4]([H:9])([H:10])[C@@:5]2([H:11])[C:6]([H:12])([H:13])[C@@:7]12[H:14])\[H:8]>>[H:9][H:11].[N:1](=[C:2]1\[O:3][C:4]([H:10])=[C:5]2[C:6]([H:12])([H:13])[C@@:7]12[H:14])\[H:8]"
N        1.81589177      -1.92102303       0.54073961
C        1.05929498      -0.95620622       0.31091808
O        1.53108269       0.26807427      -0.23204749
C        0.56257108       1.18584175      -0.14232854
C       -0.68909125       0.65548703       0.23839867
C       -1.27723952      -0.46845496      -0.54715225
C       -0.37867551      -0.80130834       0.61319960
H        2.78293108      -1.71730716       0.30262000
H       -0.91617021       2.46178693      -0.77470842
H        0.89926847       2.20094202      -0.00029894
H       -1.36086098       1.72415013       0.16788120
H       -0.92953693      -0.63426502      -1.56046897
H       -2.32829391      -0.67316878      -0.38894320
H       -0.77117176      -1.32454861       1.47219067
14
Frame=4 idx=007141 GeodesicLength=0.2789964188657083 rxn_smarts="[N:1](=[C:2]1\[O:3][C:4]([H:9])([H:10])[C@@:5]2([H:11])[C:6]([H:12])([H:13])[C@@:7]12[H:14])\[H:8]>>[H:9][H:11].[N:1](=[C:2]1\[O:3][C:4]([H:10])=[C:5]2[C:6]([H:12])([H:13])[C@@:7]12[H:14])\[H:8]"
N        1.81934737      -1.91625530       0.53986666
C        1.06139732      -0.95259428       0.30729919
O        1.52665324       0.26716463      -0.24521059
C        0.55584025       1.18850121      -0.15014824
C       -0.69370438       0.65056837       0.23367045
C       -1.28415293      -0.47591839      -0.54554802
C       -0.37699817      -0.80021706       0.61186493
H        2.78578590      -1.71083796       0.30058719
H       -0.88318793       2.46709122      -0.77592082
H        0.90421444       2.19244275       0.04129762
H       -1.37496416       1.73761640       0.14733307
H       -0.94176629      -0.64257488      -1.56053390
H       -2.33293058      -0.68712084      -0.38067614
H       -0.76553408      -1.31786588       1.47611859
14
Frame=5 idx=007141 GeodesicLength=0.3486746732047999 rxn_smarts="[N:1](=[C:2]1\[O:3][C:4]([H:9])([H:10])[C@@:5]2([H:11])[C:6]([H:12])([H:13])[C@@:7]12[H:14])\[H:8]>>[H:9][H:11].[N:1](=[C:2]1\[O:3][C:4]([H:10])=[C:5]2[C:6]([H:12])([H:13])[C@@:7]12[H:14])\[H:8]"
N        1.82257661      -1.91243251       0.53687202
C        1.06342383      -0.94955067       0.30270466
O        1.52228948       0.26599252      -0.25826111
C        0.54944292       1.19106958      -0.15676002
C       -0.69799190       0.64551988       0.22974846
C       -1.29117971      -0.48273667      -0.54382448
C       -0.37527014      -0.79959142       0.61004671
H        2.78951728      -1.70273067       0.30316764
H       -0.85133295       2.47193769      -0.77539877
H        0.90887051       2.18276919       0.07814915
H       -1.38857049       1.75166177       0.12729883
H       -0.95439870      -0.64940412      -1.56066163
H       -2.33761178      -0.70020492      -0.37218394
H       -0.75976495      -1.31229965       1.47910247
14
Frame=6 idx=007141 GeodesicLength=0.41842110921785475 rxn_smarts="[N:1](=[C:2]1\[O:3][C:4]([H:9])([H:10])[C@@:5]2([H:11])[C:6]([H:12])([H:13])[C@@:7]12[H:14])\[H:8]>>[H:9][H:11].[N:1](=[C:2]1\[O:3][C:4]([H:10])=[C:5]2[C:6]([H:12])([H:13])[C@@:7]12[H:14])\[H:8]"
N        1.82608972      -1.90773963       0.53601704
C        1.06559495      -0.94601811       0.29930205
O        1.51804497       0.26509601      -0.27010080
C        0.54314315       1.19392832      -0.16239339
C       -0.70231971       0.64056635       0.22576273
C       -1.29759812      -0.48959298      -0.54211450
C       -0.37357447      -0.79863270       0.60858736
H        2.79240827      -1.69632797       0.30122856
H       -0.81999444       2.47671987      -0.77401818
H        0.91259819       2.17177432       0.11468022
H       -1.40252815       1.76604129       0.10540215
H       -0.96584219      -0.65645701      -1.56047127
H       -2.34164660      -0.71333587      -0.36421292
H       -0.75437557      -1.30602190       1.48233095
14
Frame=7 idx=007141 GeodesicLength=0.4882161533133542 rxn_smarts="[N:1](=[C:2]1\[O:3][C:4]([H:9])([H:10])[C@@:5]2([H:11])[C:6]([H:12])([H:13])[C@@:7]12[H:14])\[H:8]>>[H:9][H:11].[N:1](=[C:2]1\[O:3][C:4]([H:10])=[C:5]2[C:6]([H:12])([H:13])[C@@:7]12[H:14])\[H:8]"
N        1.82960701      -1.90323481       0.53503915
C        1.06779437      -0.94259969       0.29594794
O        1.51393117       0.26429674      -0.28137262
C        0.53706904       1.19695368      -0.16709797
C       -0.70649167       0.63558768       0.22218750
C       -1.30389409      -0.49627502      -0.54035942
C       -0.37187622      -0.79786933       0.60713205
H        2.79536032      -1.68994048       0.29951187
H       -0.78940947       2.48140001      -0.77155812
H        0.91595415       2.16015811       0.14906378
H       -1.41632931       1.78096505       0.08271718
H       -0.97711242      -0.66302559      -1.56029190
H       -2.34552854      -0.72625456      -0.35631213
H       -0.74907433      -1.30016178       1.48539269
14
Frame=8 idx=007141 GeodesicLength=0.5580349596563614 rxn_smarts="[N:1](=[C:2]1\[O:3][C:4]([H:9])([H:10])[C@@:5]2([H:11])[C:6]([H:12])([H:13])[C@@:7]12[H:14])\[H:8]>>[H:9][H:11].[N:1](=[C:2]1\[O:3][C:4]([H:10])=[C:5]2[C:6]([H:12])([H:13])[C@@:7]12[H:14])\[H:8]"
N        1.83313721      -1.89888889       0.53388900
C        1.07001823      -0.93929283       0.29258673
O        1.50992027       0.26354247      -0.29214898
C        0.53117757       1.20006795      -0.17099179
C       -0.71051755       0.63056826       0.21897865
C       -1.31008395      -0.50277638      -0.53851865
C       -0.37016117      -0.79726552       0.60565673
H        2.79839028      -1.68351616       0.29804783
H       -0.75954559       2.48594339      -0.76804266
H        0.91896447       2.14792181       0.18166410
H       -1.42996872       1.79640338       0.05906748
H       -0.98825732      -0.66915578      -1.56004803
H       -2.34926058      -0.73892500      -0.34840692
H       -0.74381313      -1.29462671       1.48826652
14
Frame=9 idx=007141 GeodesicLength=0.6279024293005617 rxn_smarts="[N:1](=[C:2]1\[O:3][C:4]([H:9])([H:10])[C@@:5]2([H:11])[C:6]([H:12])([H:13])[C@@:7]12[H:14])\[H:8]>>[H:9][H:11].[N:1](=[C:2]1\[O:3][C:4]([H:10])=[C:5]2[C:6]([H:12])([H:13])[C@@:7]12[H:14])\[H:8]"
N        1.83668774      -1.89466093       0.53269899
C        1.07227272      -0.93606366       0.28930283
O        1.50603054       0.26289425      -0.30239161
C        0.52545651       1.20330816      -0.17411695
C       -0.71441604       0.62551370       0.21613146
C       -1.31616380      -0.50916779      -0.53658590
C       -0.36844105      -0.79682062       0.60422708
H        2.80142474      -1.67720873       0.29643235
H       -0.73034274       2.49040996      -0.76356165
H        0.92165214       2.13524714       0.21280103
H       -1.44344323       1.81236647       0.03424294
H       -0.99924741      -0.67496733      -1.55975038
H       -2.35284926      -0.75145213      -0.34049400
H       -0.73862087      -1.28939849       1.49106384
14
Frame=10 idx=007141 GeodesicLength=0.6977127249214541 rxn_smarts="[N:1](=[C:2]1\[O:3][C:4]([H:9])([H:10])[C@@:5]2([H:11])[C:6]([H:12])([H:13])[C@@:7]12[H:14])\[H:8]>>[H:9][H:11].[N:1](=[C:2]1\[O:3][C:4]([H:10])=[C:5]2[C:6]([H:12])([H:13])[C@@:7]12[H:14])\[H:8]"
N        1.84024236      -1.89075204       0.53066568
C        1.07451835      -0.93309369       0.28555995
O        1.50214057       0.26207488      -0.31251323
C        0.51984674       1.20639947      -0.17666107
C       -0.71813593       0.62035157       0.21365049
C       -1.32228936      -0.51523985      -0.53446721
C       -0.36664492      -0.79656703       0.60257612
H        2.80482100      -1.67022499       0.29651068
H       -0.70190811       2.49458761      -0.75791433
H        0.92415382       2.12183169       0.24233543
H       -1.45662037       1.82881615       0.00841459
H       -1.01048515      -0.68016870      -1.55926086
H       -2.35639718      -0.76347610      -0.33232042
H       -0.73324182      -1.28453896       1.49342418
14
Frame=11 idx=007141 GeodesicLength=0.7675443670748924 rxn_smarts="[N:1](=[C:2]1\[O:3][C:4]([H:9])([H:10])[C@@:5]2([H:11])[C:6]([H:12])([H:13])[C@@:7]12[H:14])\[H:8]>>[H:9][H:11].[N:1](=[C:2]1\[O:3][C:4]([H:10])=[C:5]2[C:6]([H:12])([H:13])[C@@:7]12[H:14])\[H:8]"
N        1.84384566      -1.88680352       0.52908350
C        1.07683102      -0.93005962       0.28228401
O        1.49842054       0.26151551      -0.32172260
C        0.51433943       1.20967970      -0.17835981
C       -0.72177871       0.61517489       0.21156544
C       -1.32818338      -0.52127746      -0.53223661
C       -0.36485403      -0.79641293       0.60114437
H        2.80795343      -1.66395431       0.29503567
H       -0.67415732       2.49863714      -0.75152839
H        0.92623914       2.10831717       0.27080851
H       -1.46963181       1.84577890      -0.01904274
H       -1.02129838      -0.68519926      -1.55863867
H       -2.35969268      -0.77548062      -0.32425160
H       -0.72803292      -1.27991559       1.49585892
14
Frame=12 idx=007141 GeodesicLength=0.837418257315505 rxn_smarts="[N:1](=[C:2]1\[O:3][C:4]([H:9])([H:10])[C@@:5]2([H:11])[C:6]([H:12])([H:13])[C@@:7]12[H:14])\[H:8]>>[H:9][H:11].[N:1](=[C:2]1\[O:3][C:4]([H:10])=[C:5]2[C:6]([H:12])([H:13])[C@@:7]12[H:14])\[H:8]"
N        1.84747344      -1.88303969       0.52719579
C        1.07916068      -0.92715670       0.27891989
O        1.49477426       0.26102981      -0.33057600
C        0.50893975       1.21301754      -0.17944240
C       -0.72530007       0.60992964       0.20987441
C       -1.33407028      -0.52721295      -0.52983412
C       -0.36303530      -0.79645864       0.59973541
H        2.81118600      -1.65758605       0.29378402
H       -0.64702624       2.50264848      -0.74415833
H        0.92812191       2.09450630       0.29829261
H       -1.48233117       1.86326011      -0.04810470
H       -1.03217383      -0.68994149      -1.55790308
H       -2.36293719      -0.78732963      -0.31600325
H       -0.72278197      -1.27566673       1.49821976
14
Frame=13 idx=007141 GeodesicLength=0.9072401248746177 rxn_smarts="[N:1](=[C:2]1\[O:3][C:4]([H:9])([H:10])[C@@:5]2([H:11])[C:6]([H:12])([H:13])[C@@:7]12[H:14])\[H:8]>>[H:9][H:11].[N:1](=[C:2]1\[O:3][C:4]([H:10])=[C:5]2[C:6]([H:12])([H:13])[C@@:7]12[H:14])\[H:8]"
N        1.85117152      -1.87927859       0.52535959
C        1.08154985      -0.92424594       0.27575568
O        1.49119716       0.26063372      -0.33874780
C        0.50355322       1.21634795      -0.17980256
C       -0.72874223       0.60462314       0.20856116
C       -1.33980042      -0.53298571      -0.52721385
C       -0.36116129      -0.79656767       0.59841282
H        2.81432672      -1.65157554       0.29175116
H       -0.62063394       2.50643858      -0.73581550
H        0.92960640       2.08035671       0.32495421
H       -1.49475138       1.88113955      -0.07915651
H       -1.04283935      -0.69438412      -1.55685317
H       -2.36596281      -0.79892170      -0.30766697
H       -0.71751344      -1.27158038       1.50046175
14
Frame=14 idx=007141 GeodesicLength=0.9770792776436518 rxn_smarts="[N:1](=[C:2]1\[O:3][C:4]([H:9])([H:10])[C@@:5]2([H:11])[C:6]([H:12])([H:13])[C@@:7]12[H:14])\[H:8]>>[H:9][H:11].[N:1](=[C:2]1\[O:3][C:4]([H:10])=[C:5]2[C:6]([H:12])([H:13])[C@@:7]12[H:14])\[H:8]"
N        1.85489444      -1.87572008       0.52314481
C        1.08395835      -0.92145991       0.27251140
O        1.48768228       0.26034379      -0.34654836
C        0.49823004       1.21972923      -0.17955286
C       -0.73207264       0.59923367       0.20771990
C       -1.34554886      -0.53865684      -0.52437307
C       -0.35925457      -0.79690369       0.59713943
H        2.81756683      -1.64547115       0.28989215
H       -0.59492621       2.51017270      -0.72646031
H        0.93092643       2.06605029       0.35077828
H       -1.50669512       1.89951972      -0.11214924
H       -1.05361086      -0.69853084      -1.55564740
H       -2.36896714      -0.81035667      -0.29909877
H       -0.71218299      -1.26795022       1.50264403
14
Frame=15 idx=007141 GeodesicLength=1.0469158155904725 rxn_smarts="[N:1](=[C:2]1\[O:3][C:4]([H:9])([H:10])[C@@:5]2([H:11])[C:6]([H:12])([H:13])[C@@:7]12[H:14])\[H:8]>>[H:9][H:11].[N:1](=[C:2]1\[O:3][C:4]([H:10])=[C:5]2[C:6]([H:12])([H:13])[C@@:7]12[H:14])\[H:8]"
N        1.85865587      -1.87235142       0.52049317
C        1.08638386      -0.91879692       0.26915478
O        1.48419051       0.26013592      -0.35400346
C        0.49292909       1.22312133      -0.17869326
C       -0.73530262       0.59375046       0.20736740
C       -1.35132572      -0.54419700      -0.52126866
C       -0.35729964      -0.79745517       0.59590146
H        2.82091742      -1.63922847       0.28824145
H       -0.56994038       2.51382943      -0.71600133
H        0.93207443       2.05153481       0.37588070
H       -1.51807096       1.91835698      -0.14734378
H       -1.06452521      -0.70235337      -1.55421461
H       -2.37194542      -0.82158607      -0.29024681
H       -0.70674123      -1.26476054       1.50473293
14
Frame=16 idx=007141 GeodesicLength=1.1167456903652242 rxn_smarts="[N:1](=[C:2]1\[O:3][C:4]([H:9])([H:10])[C@@:5]2([H:11])[C:6]([H:12])([H:13])[C@@:7]12[H:14])\[H:8]>>[H:9][H:11].[N:1](=[C:2]1\[O:3][C:4]([H:10])=[C:5]2[C:6]([H:12])([H:13])[C@@:7]12[H:14])\[H:8]"
N        1.86246806      -1.86911784       0.51751043
C        1.08883530      -0.91620662       0.26578583
O        1.48071602       0.26005949      -0.36102298
C        0.48761606       1.22654566      -0.17717072
C       -0.73845818       0.58817810       0.20753433
C       -1.35710826      -0.54962154      -0.51787004
C       -0.35529740      -0.79820136       0.59475455
H        2.82430841      -1.63300244       0.28637891
H       -0.54571426       2.51742120      -0.70437558
H        0.93300734       2.03686018       0.40042731
H       -1.52877062       1.93760081      -0.18511597
H       -1.07552750      -0.70588522      -1.55250584
H       -2.37487524      -0.83264054      -0.28110923
H       -0.70119974      -1.26198988       1.50677899
