14
Frame=0 idx=005803 GeodesicLength=0.0 rxn_smarts="[C:1]([C@:2]12[C:3]([H:10])([H:11])[C:4]([H:12])([H:13])[C@@:5]1([H:14])[O:6]2)([H:7])([H:8])[H:9]>>[C:1]([C:2]1=[O+:6][C-:5]([H:14])[C:4]([H:12])([H:13])[C:3]1([H:10])[H:11])([H:7])([H:8])[H:9]"
C       -1.87880074       0.33483214       0.43091343
C       -0.43969749       0.59174282       0.29513257
C        0.53978729      -0.38658019       0.85059572
C        1.58436913      -0.28121977      -0.27514380
C        0.69981308       0.25101279      -1.39478644
O       -0.25791119      -0.42564421      -1.76244447
H       -2.10755869       0.83453236       1.38639153
H       -2.17487842      -0.71538651       0.52217604
H       -2.46795777       0.84191181      -0.33207286
H        0.93189289       0.02038073       1.78767129
H        0.16690399      -1.40077995       1.03725290
H        2.37384870       0.42793299      -0.02977994
H        2.02077470      -1.24000475      -0.56197169
H        1.00941450       1.14726978      -1.95393433
14
Frame=1 idx=005803 GeodesicLength=0.12158646734596616 rxn_smarts="[C:1]([C@:2]12[C:3]([H:10])([H:11])[C:4]([H:12])([H:13])[C@@:5]1([H:14])[O:6]2)([H:7])([H:8])[H:9]>>[C:1]([C:2]1=[O+:6][C-:5]([H:14])[C:4]([H:12])([H:13])[C:3]1([H:10])[H:11])([H:7])([H:8])[H:9]"
C       -1.88757349       0.33546718       0.43245374
C       -0.44700220       0.55827678       0.25724453
C        0.54119446      -0.39532766       0.84196877
C        1.59570893      -0.28049558      -0.27383474
C        0.71502492       0.25377477      -1.39371481
O       -0.27785651      -0.40465547      -1.72524671
H       -2.09233566       0.85073115       1.38422969
H       -2.19708832      -0.70927362       0.54087723
H       -2.48075307       0.84017068      -0.32906886
H        0.91375653       0.02159330       1.78216179
H        0.17981064      -1.41423281       1.02633037
H        2.37680718       0.43504768      -0.01781625
H        2.04172258      -1.23434960      -0.56143786
H        1.01858401       1.14327319      -1.96414690
14
Frame=2 idx=005803 GeodesicLength=0.24312980230369063 rxn_smarts="[C:1]([C@:2]12[C:3]([H:10])([H:11])[C:4]([H:12])([H:13])[C@@:5]1([H:14])[O:6]2)([H:7])([H:8])[H:9]>>[C:1]([C:2]1=[O+:6][C-:5]([H:14])[C:4]([H:12])([H:13])[C:3]1([H:10])[H:11])([H:7])([H:8])[H:9]"
C       -1.89499859       0.33742127       0.43373723
C       -0.45393995       0.52436807       0.22253125
C        0.54260883      -0.40509731       0.83381569
C        1.60622208      -0.27869424      -0.27233330
C        0.72750810       0.25569094      -1.39191448
O       -0.29535932      -0.38753665      -1.68993435
H       -2.07684064       0.86722774       1.38130761
H       -2.21898073      -0.70115982       0.55834669
H       -2.49070602       0.84065797      -0.32685766
H        0.89607347       0.01986385       1.77731818
H        0.19297583      -1.42884279       1.01475997
H        2.37760073       0.44452668      -0.00609428
H        2.06380417      -1.22662519      -0.56046461
H        1.02403205       1.13819948      -1.97421793
14
Frame=3 idx=005803 GeodesicLength=0.36464591345223596 rxn_smarts="[C:1]([C@:2]12[C:3]([H:10])([H:11])[C:4]([H:12])([H:13])[C@@:5]1([H:14])[O:6]2)([H:7])([H:8])[H:9]>>[C:1]([C:2]1=[O+:6][C-:5]([H:14])[C:4]([H:12])([H:13])[C:3]1([H:10])[H:11])([H:7])([H:8])[H:9]"
C       -1.90113476       0.34057228       0.43472415
C       -0.46052316       0.49018294       0.19073784
C        0.54404686      -0.41582120       0.82610065
C        1.61595828      -0.27587132      -0.27061978
C        0.73755223       0.25703401      -1.38938593
O       -0.31092493      -0.37412058      -1.65630927
H       -2.06106501       0.88396608       1.37767852
H       -2.24051797      -0.69116782       0.57469855
H       -2.49802610       0.84309913      -0.32548451
H        0.87883492       0.01533844       1.77315137
H        0.20645746      -1.44452296       1.00256317
H        2.37639769       0.45607724       0.00550505
H        2.08679035      -1.21691212      -0.55911156
H        1.02615415       1.13214587      -1.98424823
14
Frame=4 idx=005803 GeodesicLength=0.4861436306300974 rxn_smarts="[C:1]([C@:2]12[C:3]([H:10])([H:11])[C:4]([H:12])([H:13])[C@@:5]1([H:14])[O:6]2)([H:7])([H:8])[H:9]>>[C:1]([C:2]1=[O+:6][C-:5]([H:14])[C:4]([H:12])([H:13])[C:3]1([H:10])[H:11])([H:7])([H:8])[H:9]"
C       -1.90604110       0.34480277       0.43539363
C       -0.46678293       0.45583792       0.16159891
C        0.54551652      -0.42742870       0.81878125
C        1.62495166      -0.27208572      -0.26867963
C        0.74542471       0.25801523      -1.38614642
O       -0.32494864      -0.36418938      -1.62419934
H       -2.04497859       0.90089886       1.37339965
H       -2.26166207      -0.67940964       0.59003961
H       -2.50292095       0.84724006      -0.32495335
H        0.86201930       0.00818425       1.76964260
H        0.22030950      -1.46117942       0.98976366
H        2.37333255       0.46942465       0.01708994
H        2.11046425      -1.20528861      -0.55742557
H        1.02531579       1.12517774      -1.99430495
14
Frame=5 idx=005803 GeodesicLength=0.6076254158785497 rxn_smarts="[C:1]([C@:2]12[C:3]([H:10])([H:11])[C:4]([H:12])([H:13])[C@@:5]1([H:14])[O:6]2)([H:7])([H:8])[H:9]>>[C:1]([C:2]1=[O+:6][C-:5]([H:14])[C:4]([H:12])([H:13])[C:3]1([H:10])[H:11])([H:7])([H:8])[H:9]"
C       -1.90977072       0.35000385       0.43573690
C       -0.47275947       0.42141420       0.13485822
C        0.54702017      -0.43985079       0.81181393
C        1.63322255      -0.26739345      -0.26650115
C        0.75136026       0.25879902      -1.38222165
O       -0.33774085      -0.35750609      -1.59345700
H       -2.02853832       0.91798222       1.36852858
H       -2.28237451      -0.66598558       0.60446215
H       -2.50558181       0.85285419      -0.32524236
H        0.84559976      -0.00142979       1.76675586
H        0.23458036      -1.47871671       0.97638522
H        2.36850965       0.48432133       0.02875761
H        2.13462464      -1.19182442      -0.55544180
H        1.02184828       1.11733204      -2.00443451
14
Frame=6 idx=005803 GeodesicLength=0.7290949658904529 rxn_smarts="[C:1]([C@:2]12[C:3]([H:10])([H:11])[C:4]([H:12])([H:13])[C@@:5]1([H:14])[O:6]2)([H:7])([H:8])[H:9]>>[C:1]([C:2]1=[O+:6][C-:5]([H:14])[C:4]([H:12])([H:13])[C:3]1([H:10])[H:11])([H:7])([H:8])[H:9]"
C       -1.91236821       0.35607440       0.43575164
C       -0.47849676       0.38696996       0.11027956
C        0.54855746      -0.45302064       0.80515597
C        1.64077881      -0.26184713      -0.26407490
C        0.75555733       0.25951779      -1.37763748
O       -0.34954666      -0.35382498      -1.56395288
H       -2.01169638       0.93517596       1.36311534
H       -2.30261157      -0.65098547       0.61804503
H       -2.50618014       0.85973621      -0.32631748
H        0.82955088      -0.01334003       1.76444249
H        0.24931432      -1.49703789       0.96245033
H        2.36200919       0.50054225       0.04059348
H        2.15908240      -1.17658259      -0.55318717
H        1.01604934       1.10862216      -2.01466395
14
Frame=7 idx=005803 GeodesicLength=0.8505545828580993 rxn_smarts="[C:1]([C@:2]12[C:3]([H:10])([H:11])[C:4]([H:12])([H:13])[C@@:5]1([H:14])[O:6]2)([H:7])([H:8])[H:9]>>[C:1]([C:2]1=[O+:6][C-:5]([H:14])[C:4]([H:12])([H:13])[C:3]1([H:10])[H:11])([H:7])([H:8])[H:9]"
C       -1.91386947       0.36292170       0.43544008
C       -0.48403783       0.35255224       0.08765085
C        0.55012581      -0.46687342       0.79876646
C        1.64761839      -0.25549411      -0.26139312
C        0.75818030       0.26027916      -1.37241828
O       -0.36055957      -0.35290489      -1.53557273
H       -1.99440550       0.95243874       1.35720625
H       -2.32232483      -0.63449137       0.63085115
H       -2.50486657       0.86770447      -0.32813613
H        0.81384969      -0.02739354       1.76264748
H        0.26454905      -1.51604547       0.94797747
H        2.35389175       0.51788631       0.05267230
H        2.18366086      -1.15961872      -0.55068193
H        1.00818792       1.09903889      -2.02500985
14
Frame=8 idx=005803 GeodesicLength=0.9720058466252102 rxn_smarts="[C:1]([C@:2]12[C:3]([H:10])([H:11])[C:4]([H:12])([H:13])[C@@:5]1([H:14])[O:6]2)([H:7])([H:8])[H:9]>>[C:1]([C:2]1=[O+:6][C-:5]([H:14])[C:4]([H:12])([H:13])[C:3]1([H:10])[H:11])([H:7])([H:8])[H:9]"
C       -1.91430252       0.37045983       0.43480754
C       -0.48942248       0.31820738       0.06678436
C        0.55172100      -0.48134433       0.79260743
C        1.65373158      -0.24837700      -0.25844919
C        0.75936323       0.26117291      -1.36658604
O       -0.37093534      -0.35451156      -1.50821498
H       -1.97662353       0.96972230       1.35084775
H       -2.34146027      -0.61658199       0.64292446
H       -2.50177256       0.87659950      -0.33064972
H        0.79847830      -0.04344739       1.76131352
H        0.28031381      -1.53563942       0.93298181
H        2.34420518       0.53617231       0.06505920
H        2.20819314      -1.14098384      -0.54794077
H        0.99851045       1.08855129      -2.03548537
14
Frame=9 idx=005803 GeodesicLength=1.0934527600538522 rxn_smarts="[C:1]([C@:2]12[C:3]([H:10])([H:11])[C:4]([H:12])([H:13])[C@@:5]1([H:14])[O:6]2)([H:7])([H:8])[H:9]>>[C:1]([C:2]1=[O+:6][C-:5]([H:14])[C:4]([H:12])([H:13])[C:3]1([H:10])[H:11])([H:7])([H:8])[H:9]"
C       -1.91369030       0.37860750       0.43386161
C       -0.49468396       0.28398435       0.04751939
C        0.55333819      -0.49637001       0.78664112
C        1.65910293      -0.24053530      -0.25523957
C        0.75921524       0.26227895      -1.36015847
O       -0.38079613      -0.35841261      -1.48178496
H       -1.95831856       0.98698619       1.34407296
H       -2.35995420      -0.59733125       0.65431053
H       -2.49702054       0.88626541      -0.33381117
H        0.78342250      -0.06137320       1.76037968
H        0.29662952      -1.55571682       0.91746896
H        2.33298792       0.55523152       0.07780921
H        2.23252021      -1.12072620      -0.54497827
H        0.98724718       1.07711147      -2.04609100
14
Frame=10 idx=005803 GeodesicLength=1.2148954616687633 rxn_smarts="[C:1]([C@:2]12[C:3]([H:10])([H:11])[C:4]([H:12])([H:13])[C@@:5]1([H:14])[O:6]2)([H:7])([H:8])[H:9]>>[C:1]([C:2]1=[O+:6][C-:5]([H:14])[C:4]([H:12])([H:13])[C:3]1([H:10])[H:11])([H:7])([H:8])[H:9]"
C       -1.91205296       0.38728547       0.43261327
C       -0.49984936       0.24995839       0.02971248
C        0.55497150      -0.51187430       0.78083656
C        1.66371457      -0.23200686      -0.25176115
C        0.75782497       0.26366407      -1.35315432
O       -0.39024987      -0.36438015      -1.45619824
H       -1.93947803       1.00414744       1.33694738
H       -2.37774223      -0.57683103       0.66500407
H       -2.49071620       0.89658383      -0.33755723
H        0.76868100      -0.08103373       1.75978835
H        0.31350145      -1.57616050       0.90145208
H        2.32028432       0.57490698       0.09096502
H        2.25648493      -1.09890256      -0.54180034
H        0.97462591       1.06464295      -2.05684794
14
Frame=11 idx=005803 GeodesicLength=1.3363375444777703 rxn_smarts="[C:1]([C@:2]12[C:3]([H:10])([H:11])[C:4]([H:12])([H:13])[C@@:5]1([H:14])[O:6]2)([H:7])([H:8])[H:9]>>[C:1]([C:2]1=[O+:6][C-:5]([H:14])[C:4]([H:12])([H:13])[C:3]1([H:10])[H:11])([H:7])([H:8])[H:9]"
C       -1.90941293       0.39641528       0.43107731
C       -0.50493584       0.21622292       0.01324149
C        0.55661523      -0.52777675       0.77516187
C        1.66754871      -0.22283043      -0.24801573
C        0.75526853       0.26539094      -1.34559110
O       -0.39938190      -0.37218199      -1.43137313
H       -1.92011200       1.02112579       1.32953142
H       -2.39475188      -0.55518031       0.67500268
H       -2.48296771       0.90743515      -0.34182411
H        0.75425802      -0.10229719       1.75947877
H        0.33092104      -1.59684439       0.88493579
H        2.30614336       0.59504490       0.10455739
H        2.27993533      -1.07557735      -0.53841540
H        0.96087203       1.05105343      -2.06776724
14
Frame=12 idx=005803 GeodesicLength=1.4577823187455676 rxn_smarts="[C:1]([C@:2]12[C:3]([H:10])([H:11])[C:4]([H:12])([H:13])[C@@:5]1([H:14])[O:6]2)([H:7])([H:8])[H:9]>>[C:1]([C:2]1=[O+:6][C-:5]([H:14])[C:4]([H:12])([H:13])[C:3]1([H:10])[H:11])([H:7])([H:8])[H:9]"
C       -1.90579830       0.40591733       0.42927374
C       -0.50995117       0.18290110      -0.00199989
C        0.55826337      -0.54398658       0.76958692
C        1.67059116      -0.21304755      -0.24400957
C        0.75161460       0.26751754      -1.33748883
O       -0.40826621      -0.38157944      -1.40723292
H       -1.90025839       1.03782631       1.32189920
H       -2.41090728      -0.53249721       0.68428871
H       -2.47388637       0.91870821      -0.34654006
H        0.74016694      -0.12502525       1.75938967
H        0.34886025      -1.61762965       0.86792383
H        2.29062943       0.61549320       0.11860340
H        2.30272427      -1.05083012      -0.53483141
H        0.94621770       1.03623212      -2.07886278
14
Frame=13 idx=005803 GeodesicLength=1.5792327850696997 rxn_smarts="[C:1]([C@:2]12[C:3]([H:10])([H:11])[C:4]([H:12])([H:13])[C@@:5]1([H:14])[O:6]2)([H:7])([H:8])[H:9]>>[C:1]([C:2]1=[O+:6][C-:5]([H:14])[C:4]([H:12])([H:13])[C:3]1([H:10])[H:11])([H:7])([H:8])[H:9]"
C       -1.90124788       0.41571114       0.42722900
C       -0.51489119       0.15014790      -0.01610612
C        0.55991125      -0.56040169       0.76408193
C        1.67283521      -0.20270457      -0.23975521
C        0.74693068       0.27009480      -1.32887317
O       -0.41696512      -0.39232887      -1.38370451
H       -1.87998866       1.05414194       1.31414034
H       -2.42613434      -0.50892236       0.69283264
H       -2.46359257       0.93030106      -0.35162473
H        0.72643029      -0.14906978       1.75945814
H        0.36727042      -1.63836385       0.85041910
H        2.27382718       0.63609975       0.13310444
H        2.32471255      -1.02475914      -0.53105765
H        0.93090218       1.02005369      -2.09014420
14
Frame=14 idx=005803 GeodesicLength=1.700692536001633 rxn_smarts="[C:1]([C@:2]12[C:3]([H:10])([H:11])[C:4]([H:12])([H:13])[C@@:5]1([H:14])[O:6]2)([H:7])([H:8])[H:9]>>[C:1]([C:2]1=[O+:6][C-:5]([H:14])[C:4]([H:12])([H:13])[C:3]1([H:10])[H:11])([H:7])([H:8])[H:9]"
C       -1.89581607       0.42571330       0.42497591
C       -0.51974173       0.11814727      -0.02916099
C        0.56155557      -0.57690879       0.75861784
C        1.67428484      -0.19185620      -0.23527377
C        0.74128847       0.27317179      -1.31977659
O       -0.42553236      -0.40417351      -1.36071933
H       -1.85941011       1.06996287       1.30635415
H       -2.44036236      -0.48462206       0.70060462
H       -2.45222337       0.94210908      -0.35699326
H        0.71307952      -0.17426673       1.75961855
H        0.38608098      -1.65888293       0.83242712
H        2.25585009       0.65670739       0.14804298
H        2.34576923      -0.99748976      -0.52710802
H        0.91517732       1.00238831      -2.10160921
14
Frame=15 idx=005803 GeodesicLength=1.8221645074100825 rxn_smarts="[C:1]([C@:2]12[C:3]([H:10])([H:11])[C:4]([H:12])([H:13])[C@@:5]1([H:14])[O:6]2)([H:7])([H:8])[H:9]>>[C:1]([C:2]1=[O+:6][C-:5]([H:14])[C:4]([H:12])([H:13])[C:3]1([H:10])[H:11])([H:7])([H:8])[H:9]"
C       -1.88957511       0.43584132       0.42255378
C       -0.52447811       0.08710485      -0.04124242
C        0.56319606      -0.59338653       0.75316537
C        1.67495820      -0.18056474      -0.23059539
C        0.73476701       0.27678727      -1.31024213
O       -0.43401343      -0.41685581      -1.33821377
H       -1.83866378       1.08517929       1.29865131
H       -2.45353373      -0.45978468       0.70757299
H       -2.43993066       0.95403520      -0.36255543
H        0.70015306      -0.20043759       1.75980263
H        0.40520221      -1.67901617       0.81395613
H        2.23683911       0.67716025       0.16338214
H        2.36578116      -0.96917085      -0.52299976
H        0.89929801       0.98310819      -2.11323542
14
Frame=16 idx=005803 GeodesicLength=1.9436505236779527 rxn_smarts="[C:1]([C@:2]12[C:3]([H:10])([H:11])[C:4]([H:12])([H:13])[C@@:5]1([H:14])[O:6]2)([H:7])([H:8])[H:9]>>[C:1]([C:2]1=[O+:6][C-:5]([H:14])[C:4]([H:12])([H:13])[C:3]1([H:10])[H:11])([H:7])([H:8])[H:9]"
C       -1.88261627       0.44601563       0.42000633
C       -0.52906801       0.05723405      -0.05242427
C        0.56483669      -0.60970942       0.74769627
C        1.67488938      -0.16890087      -0.22576018
C        0.72745444       0.28096834      -1.30032434
O       -0.44244613      -0.43012393      -1.31613036
H       -1.81791883       1.09968938       1.29114757
H       -2.46561104      -0.43461472       0.71370906
H       -2.42687940       0.96598955      -0.36822104
H        0.68769528      -0.22738841       1.75994046
H        0.42453000      -1.69859305       0.79502143
H        2.21696316       0.69730564       0.17906445
H        2.38465709      -0.93997496      -0.51875582
H        0.88351363       0.96210278      -2.12496958
